REMARK  Name = ZINC09539832
REMARK  9 active torsions:
REMARK  status: ('A' for Active; 'I' for Inactive)
REMARK    1  A    between atoms: C_1  and  C_2
REMARK    2  A    between atoms: C_2  and  O_3
REMARK    3  A    between atoms: O_3  and  C_4
REMARK    4  A    between atoms: C_9  and  N_10
REMARK    5  A    between atoms: C_15  and  N_16
REMARK    6  A    between atoms: C_15  and  N_71
REMARK    7  A    between atoms: N_19  and  C_28
REMARK    8  A    between atoms: C_20  and  C_22
REMARK    9  A    between atoms: C_34  and  C_36
REMARK                            x       y       z     vdW  Elec       q    Type
REMARK                         _______ _______ _______ _____ _____    ______ ____
ROOT
ATOM      1  N   UNL     1      -0.938   1.206   1.383  0.00  0.00    -0.257 N 
ATOM      2  C   UNL     1      -2.004   0.462   1.745  0.00  0.00    +0.177 A 
ATOM      3  S   UNL     1      -2.426  -1.073   1.116  0.00  0.00    -0.011 S 
ATOM      4  N   UNL     1      -2.677   1.147   2.692  0.00  0.00    -0.300 N 
ATOM      5  C   UNL     1      -2.014   2.337   2.919  0.00  0.00    +0.164 A 
ATOM      6  N   UNL     1      -0.966   2.382   2.144  0.00  0.00    -0.152 NA
ENDROOT
BRANCH   4   7
ATOM      7  C   UNL     1      -3.901   0.705   3.364  0.00  0.00    +0.094 C 
ATOM      8  C   UNL     1      -3.633  -0.611   4.098  0.00  0.00    +0.025 C 
ATOM      9  C   UNL     1      -3.191  -1.675   3.092  0.00  0.00    +0.002 C 
ATOM     10  C   UNL     1      -4.295  -1.886   2.054  0.00  0.00    +0.000 C 
ATOM     11  C   UNL     1      -4.563  -0.571   1.320  0.00  0.00    +0.005 C 
ATOM     12  C   UNL     1      -5.005   0.494   2.326  0.00  0.00    +0.009 C 
ATOM     13  C   UNL     1      -5.273   1.809   1.592  0.00  0.00    +0.009 C 
ENDBRANCH   4   7
BRANCH   5  14
ATOM     14  C   UNL     1      -2.420   3.382   3.885  0.00  0.00    +0.037 A 
ATOM     15  C   UNL     1      -2.175   4.733   3.615  0.00  0.00    +0.014 A 
ATOM     16  C   UNL     1      -2.579   5.671   4.548  0.00  0.00    +0.020 A 
ATOM     17  C   UNL     1      -3.196   5.247   5.712  0.00  0.00    +0.111 A 
ATOM     18  N   UNL     1      -3.409   3.966   5.941  0.00  0.00    -0.263 NA
ATOM     19  C   UNL     1      -3.048   3.036   5.081  0.00  0.00    +0.122 A 
ENDBRANCH   5  14
BRANCH   1  20
ATOM     20  C   UNL     1       0.068   0.846   0.381  0.00  0.00    +0.072 C 
BRANCH  20  26
ATOM     21  N   UNL     1      -0.935   1.103  -3.715  0.00  0.00    -0.331 N 
ATOM     22  C   UNL     1       0.274   1.801  -3.257  0.00  0.00    +0.087 C 
ATOM     23  C   UNL     1       0.728   1.207  -1.921  0.00  0.00    -0.057 C 
ATOM     24  C   UNL     1      -1.566   0.639  -1.395  0.00  0.00    -0.057 C 
ATOM     25  C   UNL     1      -2.019   1.233  -2.731  0.00  0.00    +0.087 C 
ATOM     26  N   UNL     1      -0.362   1.364  -0.935  0.00  0.00    +0.395 N 
ATOM     27  H   UNL     1      -0.588   2.361  -0.844  0.00  0.00    -0.079 HD
BRANCH  21  33
ATOM     28  C   UNL     1      -0.538   1.351  -6.089  0.00  0.00    +0.141 A 
ATOM     29  C   UNL     1      -0.945   1.812  -7.330  0.00  0.00    +0.047 A 
ATOM     30  C   UNL     1      -2.140   2.497  -7.455  0.00  0.00    +0.004 A 
ATOM     31  C   UNL     1      -2.933   2.720  -6.345  0.00  0.00    +0.002 A 
ATOM     32  C   UNL     1      -2.536   2.259  -5.104  0.00  0.00    +0.027 A 
ATOM     33  C   UNL     1      -1.339   1.571  -4.971  0.00  0.00    +0.072 A 
BRANCH  28  34
ATOM     34  O   UNL     1       0.639   0.682  -5.963  0.00  0.00    -0.490 OA
BRANCH  34  36
ATOM     35  C   UNL     1       2.689  -0.273  -6.815  0.00  0.00    +0.048 C 
ATOM     36  C   UNL     1       1.409   0.494  -7.152  0.00  0.00    +0.226 C 
ENDBRANCH  34  36
ENDBRANCH  28  34
ENDBRANCH  21  33
ENDBRANCH  20  26
ENDBRANCH   1  20
TORSDOF 7
