REMARK  Name = ZINC44670699
REMARK  9 active torsions:
REMARK  status: ('A' for Active; 'I' for Inactive)
REMARK    1  A    between atoms: C_3  and  C_8
REMARK    2  A    between atoms: C_4  and  O_7
REMARK    3  A    between atoms: N_9  and  C_10
REMARK    4  A    between atoms: C_10  and  C_12
REMARK    5  A    between atoms: C_10  and  C_30
REMARK    6  A    between atoms: C_12  and  N_14
REMARK    7  A    between atoms: C_12  and  C_23
REMARK    8  A    between atoms: C_15  and  C_16
REMARK    9  A    between atoms: C_17  and  O_22
REMARK                            x       y       z     vdW  Elec       q    Type
REMARK                         _______ _______ _______ _____ _____    ______ ____
ROOT
ATOM      1  C   UNL     1       6.032   2.293   0.164  0.00  0.00    +0.138 C 
ENDROOT
BRANCH   1   2
ATOM      2  C   UNL     1       6.921   1.950  -1.004  0.00  0.00    -0.023 A 
ATOM      3  C   UNL     1       6.996   0.646  -1.455  0.00  0.00    +0.008 A 
ATOM      4  C   UNL     1       7.811   0.330  -2.525  0.00  0.00    +0.038 A 
ATOM      5  C   UNL     1       8.552   1.321  -3.146  0.00  0.00    +0.123 A 
ATOM      6  C   UNL     1       8.476   2.627  -2.694  0.00  0.00    +0.038 A 
ATOM      7  C   UNL     1       7.657   2.942  -1.626  0.00  0.00    +0.008 A 
ATOM      8  F   UNL     1       9.349   1.013  -4.193  0.00  0.00    -0.205 F 
ENDBRANCH   1   2
BRANCH   1  10
ATOM      9  C   UNL     1       3.651   2.169  -0.022  0.00  0.00    +0.090 C 
ATOM     10  N   UNL     1       4.780   1.540   0.062  0.00  0.00    -0.381 N 
ATOM     11  H   UNL     1       4.796   0.570   0.057  0.00  0.00    +0.160 HD
BRANCH   9  14
ATOM     12  C   UNL     1      -0.005   1.363  -0.271  0.00  0.00    +0.001 A 
ATOM     13  C   UNL     1       1.175   2.076  -0.250  0.00  0.00    +0.013 A 
ATOM     14  C   UNL     1       2.387   1.413  -0.045  0.00  0.00    +0.032 A 
ATOM     15  C   UNL     1       2.393   0.023   0.139  0.00  0.00    +0.125 A 
ATOM     16  C   UNL     1       1.197  -0.678   0.115  0.00  0.00    +0.046 A 
ATOM     17  C   UNL     1       0.006  -0.010  -0.089  0.00  0.00    +0.004 A 
BRANCH  15  18
ATOM     18  O   UNL     1       3.564  -0.633   0.338  0.00  0.00    -0.506 OA
ATOM     19  H   UNL     1       3.819  -0.709   1.268  0.00  0.00    +0.292 HD
ENDBRANCH  15  18
ENDBRANCH   9  14
ENDBRANCH   1  10
BRANCH   1  20
ATOM     20  C   UNL     1       6.742   1.929   1.470  0.00  0.00    +0.162 C 
BRANCH  20  21
ATOM     21  C   UNL     1       5.852   2.272   2.637  0.00  0.00    -0.021 A 
ATOM     22  C   UNL     1       5.769   3.579   3.081  0.00  0.00    +0.008 A 
ATOM     23  C   UNL     1       4.953   3.895   4.151  0.00  0.00    +0.038 A 
ATOM     24  C   UNL     1       4.220   2.902   4.779  0.00  0.00    +0.123 A 
ATOM     25  C   UNL     1       4.305   1.594   4.333  0.00  0.00    +0.038 A 
ATOM     26  C   UNL     1       5.117   1.281   3.260  0.00  0.00    +0.008 A 
ATOM     27  F   UNL     1       3.423   3.210   5.825  0.00  0.00    -0.205 F 
ENDBRANCH  20  21
BRANCH  20  28
ATOM     28  N   UNL     1       7.994   2.683   1.571  0.00  0.00    -0.281 NA
ATOM     29  C   UNL     1       9.122   2.054   1.655  0.00  0.00    +0.117 C 
BRANCH  29  30
ATOM     30  C   UNL     1      10.382   2.812   1.758  0.00  0.00    +0.034 A 
ATOM     31  C   UNL     1      10.363   4.214   1.771  0.00  0.00    +0.125 A 
ATOM     32  C   UNL     1      11.553   4.916   1.868  0.00  0.00    +0.046 A 
ATOM     33  C   UNL     1      12.754   4.237   1.950  0.00  0.00    +0.004 A 
ATOM     34  C   UNL     1      12.777   2.853   1.938  0.00  0.00    +0.001 A 
ATOM     35  C   UNL     1      11.602   2.138   1.848  0.00  0.00    +0.013 A 
BRANCH  31  36
ATOM     36  O   UNL     1       9.183   4.880   1.689  0.00  0.00    -0.506 OA
ATOM     37  H   UNL     1       8.775   5.064   2.546  0.00  0.00    +0.292 HD
ENDBRANCH  31  36
ENDBRANCH  29  30
ENDBRANCH  20  28
ENDBRANCH   1  20
TORSDOF 9
