REMARK  Name = ZINC64538252
REMARK  7 active torsions:
REMARK  status: ('A' for Active; 'I' for Inactive)
REMARK    1  A    between atoms: C_1  and  C_2
REMARK    2  A    between atoms: C_5  and  C_8
REMARK    3  A    between atoms: N_19  and  C_20
REMARK    4  A    between atoms: C_20  and  C_21
REMARK    5  A    between atoms: N_23  and  C_24
REMARK    6  A    between atoms: C_24  and  C_25
REMARK    7  A    between atoms: C_25  and  C_26
REMARK                            x       y       z     vdW  Elec       q    Type
REMARK                         _______ _______ _______ _____ _____    ______ ____
ROOT
ATOM      1  C   UNL     1       0.059  -4.275  -0.021  0.00  0.00    +0.103 C 
ATOM      2  C   UNL     1       1.499  -4.795   0.248  0.00  0.00    +0.064 C 
ATOM      3  C   UNL     1       1.225  -6.003   1.160  0.00  0.00    +0.163 C 
ATOM      4  N   UNL     1       0.116  -5.478   2.001  0.00  0.00    -0.222 NA
ATOM      5  N   UNL     1      -0.777  -4.806   1.087  0.00  0.00    -0.245 NA
ATOM      6  C   UNL     1      -0.404  -6.553   2.830  0.00  0.00    +0.113 C 
ATOM      7  C   UNL     1       0.672  -6.875   3.880  0.00  0.00    +0.113 C 
ATOM      8  C   UNL     1       2.048  -6.824   3.282  0.00  0.00    +0.218 C 
ATOM      9  O   UNL     1       2.975  -7.227   3.952  0.00  0.00    -0.276 OA
ATOM     10  N   UNL     1       2.321  -6.367   2.038  0.00  0.00    -0.276 N 
ATOM     11  H   UNL     1      -1.277  -4.061   1.551  0.00  0.00    +0.142 HD
ENDROOT
BRANCH   1  16
ATOM     12  C   UNL     1      -0.018   1.503   0.010  0.00  0.00    +0.044 C 
ATOM     13  C   UNL     1       0.002  -0.004   0.002  0.00  0.00    -0.050 A 
ATOM     14  C   UNL     1       0.006  -0.689  -1.199  0.00  0.00    +0.003 A 
ATOM     15  C   UNL     1       0.025  -2.071  -1.206  0.00  0.00    +0.005 A 
ATOM     16  C   UNL     1       0.040  -2.768  -0.013  0.00  0.00    -0.029 A 
ATOM     17  C   UNL     1       0.037  -2.084   1.188  0.00  0.00    +0.005 A 
ATOM     18  C   UNL     1       0.023  -0.702   1.195  0.00  0.00    +0.003 A 
ENDBRANCH   1  16
BRANCH  10  19
ATOM     19  C   UNL     1       3.706  -6.229   1.581  0.00  0.00    +0.205 C 
BRANCH  19  20
ATOM     20  C   UNL     1       4.216  -4.855   1.931  0.00  0.00    +0.230 C 
ATOM     21  O   UNL     1       3.493  -4.068   2.506  0.00  0.00    -0.274 OA
ATOM     22  N   UNL     1       5.474  -4.499   1.606  0.00  0.00    -0.314 N 
ATOM     23  H   UNL     1       6.053  -5.128   1.147  0.00  0.00    +0.149 HD
BRANCH  22  24
ATOM     24  C   UNL     1       5.970  -3.163   1.947  0.00  0.00    +0.108 C 
BRANCH  24  25
ATOM     25  C   UNL     1       7.416  -3.019   1.470  0.00  0.00    +0.052 C 
BRANCH  25  26
ATOM     26  C   UNL     1       7.926  -1.645   1.820  0.00  0.00    -0.040 C 
ATOM     27  C   UNL     1       8.639  -1.296   2.916  0.00  0.00    -0.001 A 
ATOM     28  C   UNL     1       9.133  -2.063   4.066  0.00  0.00    +0.010 A 
ATOM     29  C   UNL     1       9.833  -1.423   5.029  0.00  0.00    +0.001 A 
ATOM     30  C   UNL     1      10.098  -0.048   4.957  0.00  0.00    +0.002 A 
ATOM     31  C   UNL     1       9.677   0.723   3.933  0.00  0.00    +0.026 A 
ATOM     32  C   UNL     1       8.932   0.154   2.863  0.00  0.00    +0.043 A 
ATOM     33  N   UNL     1       8.421   0.681   1.778  0.00  0.00    -0.380 N 
ATOM     34  C   UNL     1       7.750  -0.377   1.015  0.00  0.00    +0.144 C 
ATOM     35  H   UNL     1       8.480   1.615   1.520  0.00  0.00    +0.160 HD
ENDBRANCH  25  26
ENDBRANCH  24  25
ENDBRANCH  22  24
ENDBRANCH  19  20
ENDBRANCH  10  19
TORSDOF 6
