REMARK  Name = ZINC12666154
REMARK  5 active torsions:
REMARK  status: ('A' for Active; 'I' for Inactive)
REMARK    1  A    between atoms: C_6  and  O_25
REMARK    2  A    between atoms: C_7  and  C_11
REMARK    3  A    between atoms: N_13  and  C_14
REMARK    4  A    between atoms: C_14  and  C_15
REMARK    5  A    between atoms: C_15  and  C_16
REMARK                            x       y       z     vdW  Elec       q    Type
REMARK                         _______ _______ _______ _____ _____    ______ ____
ROOT
ATOM      1  C   UNL     1       2.255   9.646  -2.109  0.00  0.00    +0.248 C 
ATOM      2  O   UNL     1       1.424   9.410  -2.965  0.00  0.00    -0.270 OA
ATOM      3  N   UNL     1       2.524   8.728  -1.160  0.00  0.00    -0.311 N 
ATOM      4  H   UNL     1       3.186   8.917  -0.477  0.00  0.00    +0.149 HD
ENDROOT
BRANCH   1  11
ATOM      5  C   UNL     1       6.192  13.935  -0.193  0.00  0.00    +0.001 A 
ATOM      6  C   UNL     1       5.903  14.875  -1.181  0.00  0.00    +0.001 A 
ATOM      7  C   UNL     1       4.975  14.619  -2.142  0.00  0.00    +0.008 A 
ATOM      8  C   UNL     1       4.294  13.389  -2.143  0.00  0.00    -0.014 A 
ATOM      9  C   UNL     1       3.330  13.096  -3.123  0.00  0.00    +0.054 A 
ATOM     10  C   UNL     1       2.687  11.894  -3.109  0.00  0.00    +0.130 A 
ATOM     11  C   UNL     1       2.968  10.938  -2.109  0.00  0.00    +0.079 A 
ATOM     12  C   UNL     1       3.913  11.203  -1.132  0.00  0.00    +0.025 A 
ATOM     13  C   UNL     1       4.588  12.432  -1.138  0.00  0.00    -0.017 A 
ATOM     14  C   UNL     1       5.554  12.734  -0.161  0.00  0.00    +0.008 A 
BRANCH  10  15
ATOM     15  O   UNL     1       1.761  11.617  -4.062  0.00  0.00    -0.506 OA
ATOM     16  H   UNL     1       0.862  11.885  -3.828  0.00  0.00    +0.292 HD
ENDBRANCH  10  15
ENDBRANCH   1  11
BRANCH   3  17
ATOM     17  C   UNL     1       1.816   7.446  -1.159  0.00  0.00    +0.110 C 
BRANCH  17  18
ATOM     18  C   UNL     1       2.304   6.594   0.014  0.00  0.00    +0.075 C 
BRANCH  18  19
ATOM     19  C   UNL     1       1.576   5.274   0.014  0.00  0.00    +0.062 A 
ATOM     20  C   UNL     1       2.156   4.054   0.002  0.00  0.00    +0.116 A 
ATOM     21  N   UNL     1       1.148   3.128   0.007  0.00  0.00    -0.306 N 
ATOM     22  C   UNL     1       1.149   1.763   0.001  0.00  0.00    +0.092 A 
ATOM     23  C   UNL     1      -0.013   1.076   0.008  0.00  0.00    +0.018 A 
ATOM     24  C   UNL     1      -1.240   1.758   0.018  0.00  0.00    +0.005 A 
ATOM     25  C   UNL     1      -1.255   3.119   0.031  0.00  0.00    +0.047 A 
ATOM     26  C   UNL     1      -0.034   3.822   0.022  0.00  0.00    +0.138 A 
ATOM     27  N   UNL     1       0.250   5.117   0.026  0.00  0.00    -0.233 NA
ENDBRANCH  18  19
ENDBRANCH  17  18
ENDBRANCH   3  17
TORSDOF 5
