REMARK  Name = ZINC63440488
REMARK  11 active torsions:
REMARK  status: ('A' for Active; 'I' for Inactive)
REMARK    1  A    between atoms: C_1  and  C_2
REMARK    2  A    between atoms: C_4  and  C_14
REMARK    3  A    between atoms: C_7  and  O_12
REMARK    4  A    between atoms: O_12  and  C_13
REMARK    5  A    between atoms: C_14  and  C_15
REMARK    6  A    between atoms: C_15  and  N_16
REMARK    7  A    between atoms: N_16  and  C_17
REMARK    8  A    between atoms: N_16  and  C_23
REMARK    9  A    between atoms: C_17  and  C_18
REMARK   10  A    between atoms: C_23  and  N_25
REMARK   11  A    between atoms: N_25  and  C_26
REMARK                            x       y       z     vdW  Elec       q    Type
REMARK                         _______ _______ _______ _____ _____    ______ ____
ROOT
ATOM      1  N   UNL     1       1.227  -0.825  -5.104  0.00  0.00    -0.307 N 
ENDROOT
BRANCH   1   2
ATOM      2  C   UNL     1       0.397  -1.694  -5.714  0.00  0.00    +0.137 C 
ATOM      3  S   UNL     1       0.053  -3.205  -4.986  0.00  0.00    -0.018 S 
BRANCH   2   4
ATOM      4  N   UNL     1      -0.163  -1.374  -6.898  0.00  0.00    -0.297 N 
ATOM      5  H   UNL     1      -0.033  -0.488  -7.272  0.00  0.00    +0.154 HD
BRANCH   4   6
ATOM      6  C   UNL     1      -0.931  -2.320  -7.588  0.00  0.00    +0.033 A 
ATOM      7  C   UNL     1      -2.113  -1.936  -8.207  0.00  0.00    +0.026 A 
ATOM      8  C   UNL     1      -2.870  -2.871  -8.887  0.00  0.00    +0.040 A 
ATOM      9  C   UNL     1      -2.451  -4.189  -8.950  0.00  0.00    +0.124 A 
ATOM     10  C   UNL     1      -1.273  -4.573  -8.332  0.00  0.00    +0.040 A 
ATOM     11  C   UNL     1      -0.510  -3.641  -7.657  0.00  0.00    +0.026 A 
ATOM     12  F   UNL     1      -3.193  -5.102  -9.615  0.00  0.00    -0.205 F 
ENDBRANCH   4   6
ENDBRANCH   2   4
ENDBRANCH   1   2
BRANCH   1  13
ATOM     13  C   UNL     1       1.835  -1.173  -3.818  0.00  0.00    +0.111 C 
BRANCH  13  14
ATOM     14  C   UNL     1       0.924  -0.706  -2.680  0.00  0.00    +0.052 C 
BRANCH  14  17
ATOM     15  C   UNL     1       0.824   0.720   0.229  0.00  0.00    +0.035 C 
ATOM     16  C   UNL     1       0.987  -0.787   0.019  0.00  0.00    +0.103 C 
ATOM     17  C   UNL     1       1.550  -1.064  -1.357  0.00  0.00    -0.037 C 
ATOM     18  C   UNL     1       2.728  -1.698  -1.160  0.00  0.00    +0.003 A 
ATOM     19  C   UNL     1       3.741  -2.224  -2.080  0.00  0.00    +0.055 A 
ATOM     20  C   UNL     1       4.848  -2.825  -1.581  0.00  0.00    +0.121 A 
ATOM     21  C   UNL     1       5.067  -2.967  -0.200  0.00  0.00    +0.047 A 
ATOM     22  C   UNL     1       4.193  -2.515   0.725  0.00  0.00    +0.029 A 
ATOM     23  C   UNL     1       2.959  -1.848   0.296  0.00  0.00    +0.043 A 
ATOM     24  N   UNL     1       1.963  -1.328   0.972  0.00  0.00    -0.378 N 
ATOM     25  H   UNL     1       1.885  -1.304   1.938  0.00  0.00    +0.160 HD
BRANCH  20  26
ATOM     26  O   UNL     1       5.779  -3.308  -2.446  0.00  0.00    -0.495 OA
ATOM     27  C   UNL     1       6.930  -3.934  -1.877  0.00  0.00    +0.277 C 
ENDBRANCH  20  26
ENDBRANCH  14  17
ENDBRANCH  13  14
ENDBRANCH   1  13
BRANCH   1  28
ATOM     28  C   UNL     1       1.521   0.468  -5.728  0.00  0.00    +0.149 C 
BRANCH  28  29
ATOM     29  C   UNL     1       2.727   0.332  -6.621  0.00  0.00    +0.007 A 
ATOM     30  C   UNL     1       2.783   0.013  -7.937  0.00  0.00    +0.013 A 
ATOM     31  C   UNL     1       4.016  -0.054  -8.559  0.00  0.00    +0.008 A 
ATOM     32  C   UNL     1       5.132   0.202  -7.834  0.00  0.00    +0.045 A 
ATOM     33  S   UNL     1       4.452   0.558  -6.222  0.00  0.00    -0.100 S 
ENDBRANCH  28  29
ENDBRANCH   1  28
TORSDOF 9
