REMARK  Name = ZINC25391139
REMARK  6 active torsions:
REMARK  status: ('A' for Active; 'I' for Inactive)
REMARK    1  A    between atoms: C_4  and  C_7
REMARK    2  A    between atoms: C_15  and  C_17
REMARK    3  A    between atoms: C_17  and  N_18
REMARK    4  A    between atoms: N_21  and  S_24
REMARK    5  A    between atoms: S_24  and  C_27
REMARK    6  A    between atoms: C_32  and  N_33
REMARK                            x       y       z     vdW  Elec       q    Type
REMARK                         _______ _______ _______ _____ _____    ______ ____
ROOT
ATOM      1  C   UNL     1       3.548  -7.409  -0.006  0.00  0.00    +0.137 C 
ENDROOT
BRANCH   1  10
ATOM      2  C   UNL     1      -1.566  -9.340  -1.392  0.00  0.00    +0.066 A 
ATOM      3  C   UNL     1      -2.250  -8.572  -2.263  0.00  0.00    +0.075 A 
ATOM      4  S   UNL     1      -1.100  -7.240  -2.559  0.00  0.00    -0.059 S 
ATOM      5  C   UNL     1       0.207  -7.813  -1.496  0.00  0.00    +0.159 A 
ATOM      6  N   UNL     1      -0.303  -8.972  -0.975  0.00  0.00    -0.256 N 
ATOM      7  C   UNL     1       0.497  -9.650  -0.098  0.00  0.00    +0.259 A 
ATOM      8  O   UNL     1       0.108 -10.694   0.401  0.00  0.00    -0.267 OA
ATOM      9  C   UNL     1       1.758  -9.148   0.226  0.00  0.00    +0.093 A 
ATOM     10  C   UNL     1       2.190  -7.968  -0.342  0.00  0.00    +0.037 A 
ATOM     11  N   UNL     1       1.391  -7.338  -1.199  0.00  0.00    -0.337 N 
ATOM     12  H   UNL     1       1.687  -6.507  -1.604  0.00  0.00    +0.168 HD
BRANCH   2  16
ATOM     13  C   UNL     1      -3.319 -12.911   0.098  0.00  0.00    +0.000 A 
ATOM     14  C   UNL     1      -2.117 -12.967  -0.586  0.00  0.00    +0.001 A 
ATOM     15  C   UNL     1      -1.543 -11.810  -1.072  0.00  0.00    +0.010 A 
ATOM     16  C   UNL     1      -2.177 -10.583  -0.873  0.00  0.00    -0.001 A 
ATOM     17  C   UNL     1      -3.389 -10.534  -0.183  0.00  0.00    +0.010 A 
ATOM     18  C   UNL     1      -3.952 -11.698   0.299  0.00  0.00    +0.001 A 
ENDBRANCH   2  16
ENDBRANCH   1  10
BRANCH   1  19
ATOM     19  N   UNL     1       4.390  -7.409  -1.210  0.00  0.00    -0.294 NA
ATOM     20  C   UNL     1       5.532  -6.498  -1.055  0.00  0.00    +0.102 C 
ATOM     21  C   UNL     1       6.279  -6.388  -2.388  0.00  0.00    +0.125 C 
ATOM     22  N   UNL     1       6.623  -7.744  -2.843  0.00  0.00    -0.174 NA
ATOM     23  C   UNL     1       5.554  -8.753  -2.894  0.00  0.00    +0.125 C 
ATOM     24  C   UNL     1       4.835  -8.769  -1.541  0.00  0.00    +0.102 C 
BRANCH  22  25
ATOM     25  S   UNL     1       8.172  -8.124  -3.288  0.00  0.00    +0.063 S 
ATOM     26  O   UNL     1       8.076  -9.185  -4.228  0.00  0.00    -0.153 OA
ATOM     27  O   UNL     1       8.821  -6.896  -3.588  0.00  0.00    -0.153 OA
BRANCH  25  28
ATOM     28  C   UNL     1       8.975  -8.783  -1.865  0.00  0.00    +0.136 A 
ATOM     29  C   UNL     1       8.292  -8.877  -0.667  0.00  0.00    +0.031 A 
ATOM     30  C   UNL     1       8.922  -9.394   0.449  0.00  0.00    +0.002 A 
ATOM     31  C   UNL     1      10.236  -9.818   0.368  0.00  0.00    +0.002 A 
ATOM     32  C   UNL     1      10.919  -9.724  -0.830  0.00  0.00    +0.035 A 
ATOM     33  C   UNL     1      10.287  -9.211  -1.948  0.00  0.00    +0.152 A 
BRANCH  33  34
ATOM     34  N   UNL     1      11.017  -9.116  -3.232  0.00  0.00    +0.058 N 
ATOM     35  O   UNL     1      12.147  -9.535  -3.318  0.00  0.00    -0.126 OA
ATOM     36  O   UNL     1      10.482  -8.619  -4.196  0.00  0.00    -0.126 OA
ENDBRANCH  33  34
ENDBRANCH  25  28
ENDBRANCH  22  25
ENDBRANCH   1  19
TORSDOF 6
