REMARK  Name = ZINC39949084
REMARK  7 active torsions:
REMARK  status: ('A' for Active; 'I' for Inactive)
REMARK    1  A    between atoms: C_1  and  C_2
REMARK    2  A    between atoms: C_7  and  C_9
REMARK    3  A    between atoms: C_7  and  C_10
REMARK    4  A    between atoms: N_11  and  C_13
REMARK    5  A    between atoms: C_13  and  N_14
REMARK    6  A    between atoms: N_17  and  C_30
REMARK    7  A    between atoms: C_18  and  C_20
REMARK                            x       y       z     vdW  Elec       q    Type
REMARK                         _______ _______ _______ _____ _____    ______ ____
ROOT
ATOM      1  N   UNL     1      -3.740  -2.946  -0.568  0.00  0.00    -0.257 N 
ATOM      2  C   UNL     1      -4.464  -2.803   0.561  0.00  0.00    +0.181 A 
ATOM      3  S   UNL     1      -4.201  -3.625   2.040  0.00  0.00    -0.011 S 
ATOM      4  N   UNL     1      -5.431  -1.897   0.316  0.00  0.00    -0.271 N 
ATOM      5  C   UNL     1      -5.303  -1.471  -0.995  0.00  0.00    +0.175 A 
ATOM      6  N   UNL     1      -4.287  -2.090  -1.533  0.00  0.00    -0.151 NA
ENDROOT
BRANCH   5   7
ATOM      7  C   UNL     1      -6.163  -0.481  -1.666  0.00  0.00    +0.076 A 
ATOM      8  C   UNL     1      -6.065  -0.005  -2.933  0.00  0.00    +0.066 A 
ATOM      9  C   UNL     1      -7.032   0.978  -3.392  0.00  0.00    +0.008 A 
ATOM     10  C   UNL     1      -7.121   1.605  -4.660  0.00  0.00    +0.010 A 
ATOM     11  C   UNL     1      -8.101   2.511  -4.918  0.00  0.00    +0.001 A 
ATOM     12  C   UNL     1      -9.045   2.854  -3.959  0.00  0.00    +0.001 A 
ATOM     13  C   UNL     1      -8.993   2.265  -2.711  0.00  0.00    +0.016 A 
ATOM     14  C   UNL     1      -8.004   1.344  -2.435  0.00  0.00    +0.021 A 
ATOM     15  S   UNL     1      -7.584   0.372  -1.011  0.00  0.00    -0.084 S 
ATOM     16 CL   UNL     1      -4.805  -0.560  -3.989  0.00  0.00    -0.082 Cl
ENDBRANCH   5   7
BRANCH   4  17
ATOM     17  C   UNL     1      -6.400  -1.463   1.229  0.00  0.00    +0.050 A 
ATOM     18  C   UNL     1      -6.144  -0.370   2.047  0.00  0.00    +0.026 A 
ATOM     19  C   UNL     1      -7.102   0.056   2.947  0.00  0.00    +0.002 A 
ATOM     20  C   UNL     1      -8.314  -0.604   3.034  0.00  0.00    +0.000 A 
ATOM     21  C   UNL     1      -8.571  -1.693   2.220  0.00  0.00    +0.002 A 
ATOM     22  C   UNL     1      -7.620  -2.120   1.315  0.00  0.00    +0.026 A 
ENDBRANCH   4  17
BRANCH   1  23
ATOM     23  C   UNL     1      -2.588  -3.832  -0.751  0.00  0.00    +0.072 C 
BRANCH  23  33
ATOM     24  C   UNL     1       0.967  -1.218   1.416  0.00  0.00    +0.009 C 
ATOM     25  C   UNL     1       0.368  -2.520   0.862  0.00  0.00    -0.048 C 
ATOM     26  C   UNL     1       0.988  -2.921  -0.504  0.00  0.00    -0.010 C 
ATOM     27  C   UNL     1      -0.151  -3.835  -1.040  0.00  0.00    -0.065 C 
ATOM     28  C   UNL     1      -0.105  -5.134  -0.261  0.00  0.00    -0.009 C 
ATOM     29  C   UNL     1       0.113  -5.038   1.233  0.00  0.00    -0.036 C 
ATOM     30  C   UNL     1       0.576  -3.711   1.799  0.00  0.00    +0.011 C 
ATOM     31  C   UNL     1       1.192  -6.089   1.605  0.00  0.00    +0.011 C 
ATOM     32  C   UNL     1      -1.171  -5.475   1.965  0.00  0.00    +0.011 C 
ATOM     33  N   UNL     1      -1.362  -3.043  -0.745  0.00  0.00    +0.395 N 
ATOM     34  C   UNL     1      -1.142  -2.391   0.560  0.00  0.00    -0.069 C 
ATOM     35  H   UNL     1      -1.444  -2.309  -1.452  0.00  0.00    -0.079 HD
ENDBRANCH  23  33
ENDBRANCH   1  23
TORSDOF 4
