REMARK  Name = ZINC02094706
REMARK  9 active torsions:
REMARK  status: ('A' for Active; 'I' for Inactive)
REMARK    1  A    between atoms: C_1  and  C_2
REMARK    2  A    between atoms: C_2  and  C_3
REMARK    3  A    between atoms: C_3  and  C_4
REMARK    4  A    between atoms: C_4  and  S_5
REMARK    5  A    between atoms: S_5  and  C_6
REMARK    6  A    between atoms: C_19  and  C_22
REMARK    7  A    between atoms: C_22  and  C_24
REMARK    8  A    between atoms: C_27  and  O_30
REMARK    9  A    between atoms: O_30  and  C_31
REMARK                            x       y       z     vdW  Elec       q    Type
REMARK                         _______ _______ _______ _____ _____    ______ ____
ROOT
ATOM      1  C   UNL     1       6.003   5.590  -1.064  0.00  0.00    +0.212 A 
ATOM      2  N   UNL     1       4.966   4.917  -0.571  0.00  0.00    -0.184 NA
ATOM      3  C   UNL     1       4.550   3.827  -1.192  0.00  0.00    +0.248 A 
ATOM      4  C   UNL     1       5.226   3.410  -2.361  0.00  0.00    +0.156 A 
ATOM      5  N   UNL     1       6.249   4.127  -2.800  0.00  0.00    -0.141 NA
ATOM      6  N   UNL     1       6.621   5.185  -2.166  0.00  0.00    -0.122 NA
ATOM      7  C   UNL     1       4.783   2.188  -3.064  0.00  0.00    +0.029 A 
ATOM      8  C   UNL     1       4.609   2.166  -4.443  0.00  0.00    +0.027 A 
ATOM      9  C   UNL     1       4.224   0.994  -5.067  0.00  0.00    +0.019 A 
ATOM     10  C   UNL     1       4.010  -0.156  -4.327  0.00  0.00    +0.017 A 
ATOM     11  C   UNL     1       4.173  -0.145  -2.953  0.00  0.00    +0.025 A 
ATOM     12  C   UNL     1       4.552   1.020  -2.314  0.00  0.00    +0.040 A 
ATOM     13  N   UNL     1       4.711   1.071  -0.925  0.00  0.00    -0.303 N 
ATOM     14  C   UNL     1       3.763   1.852  -0.137  0.00  0.00    +0.334 C 
ATOM     15  O   UNL     1       3.492   3.115  -0.735  0.00  0.00    -0.445 OA
ATOM     16 BR   UNL     1       3.987   0.963  -6.943  0.00  0.00    -0.050 Br
ATOM     17  H   UNL     1       5.439   0.596  -0.494  0.00  0.00    +0.150 HD
ENDROOT
BRANCH  14  18
ATOM     18  C   UNL     1       2.474   1.081  -0.015  0.00  0.00    +0.222 C 
ATOM     19  O   UNL     1       2.438  -0.093  -0.318  0.00  0.00    -0.286 OA
BRANCH  18  20
ATOM     20  C   UNL     1       1.260   1.750   0.470  0.00  0.00    +0.023 A 
ATOM     21  C   UNL     1       1.326   3.066   0.946  0.00  0.00    +0.015 A 
ATOM     22  C   UNL     1       0.191   3.685   1.403  0.00  0.00    +0.046 A 
ATOM     23  C   UNL     1      -1.026   3.013   1.383  0.00  0.00    +0.120 A 
ATOM     24  C   UNL     1      -1.097   1.706   0.911  0.00  0.00    +0.046 A 
ATOM     25  C   UNL     1       0.033   1.076   0.458  0.00  0.00    +0.015 A 
BRANCH  23  26
ATOM     26  O   UNL     1      -2.147   3.632   1.831  0.00  0.00    -0.495 OA
ATOM     27  C   UNL     1      -2.004   4.974   2.301  0.00  0.00    +0.277 C 
ENDBRANCH  23  26
ENDBRANCH  18  20
ENDBRANCH  14  18
BRANCH   1  28
ATOM     28  S   UNL     1       6.563   7.044  -0.240  0.00  0.00    -0.084 S 
BRANCH  28  29
ATOM     29  C   UNL     1       7.937   7.508  -1.323  0.00  0.00    +0.077 C 
BRANCH  29  30
ATOM     30  C   UNL     1       8.597   8.782  -0.791  0.00  0.00    +0.011 C 
BRANCH  30  32
ATOM     31  C   UNL     1      10.418  10.448  -1.175  0.00  0.00    +0.004 C 
ATOM     32  C   UNL     1       9.759   9.175  -1.706  0.00  0.00    -0.003 C 
ENDBRANCH  30  32
ENDBRANCH  29  30
ENDBRANCH  28  29
ENDBRANCH   1  28
TORSDOF 7
