REMARK  Name = ZINC28161667
REMARK  8 active torsions:
REMARK  status: ('A' for Active; 'I' for Inactive)
REMARK    1  A    between atoms: C_1  and  C_2
REMARK    2  A    between atoms: C_2  and  C_3
REMARK    3  A    between atoms: C_2  and  C_4
REMARK    4  A    between atoms: C_7  and  C_10
REMARK    5  A    between atoms: C_13  and  C_34
REMARK    6  A    between atoms: C_20  and  C_23
REMARK    7  A    between atoms: C_23  and  C_24
REMARK    8  A    between atoms: N_26  and  C_27
REMARK                            x       y       z     vdW  Elec       q    Type
REMARK                         _______ _______ _______ _____ _____    ______ ____
ROOT
ATOM      1  C   UNL     1       1.541   4.247   5.076  0.00  0.00    +0.136 C 
ATOM      2  C   UNL     1       1.832   5.709   5.468  0.00  0.00    +0.087 C 
ATOM      3  C   UNL     1       1.226   6.517   4.343  0.00  0.00    +0.075 C 
ATOM      4  N   UNL     1       0.700   5.718   3.475  0.00  0.00    -0.181 NA
ATOM      5  N   UNL     1       0.825   4.368   3.796  0.00  0.00    -0.195 N 
ATOM      6  C   UNL     1       0.357   3.328   3.048  0.00  0.00    +0.170 C 
ATOM      7  N   UNL     1       0.447   2.029   3.303  0.00  0.00    -0.157 NA
ATOM      8  C   UNL     1      -0.030   1.092   2.531  0.00  0.00    +0.252 C 
ATOM      9  O   UNL     1       0.074  -0.089   2.800  0.00  0.00    -0.272 OA
ATOM     10  C   UNL     1      -0.727   1.581   1.267  0.00  0.00    +0.150 C 
ATOM     11  S   UNL     1      -0.524   3.394   1.492  0.00  0.00    -0.078 S 
ENDROOT
BRANCH   1  15
ATOM     12  C   UNL     1       5.186   2.081   4.562  0.00  0.00    -0.045 A 
ATOM     13  C   UNL     1       4.423   1.890   5.699  0.00  0.00    +0.004 A 
ATOM     14  C   UNL     1       3.243   2.591   5.865  0.00  0.00    +0.006 A 
ATOM     15  C   UNL     1       2.827   3.483   4.895  0.00  0.00    -0.025 A 
ATOM     16  C   UNL     1       3.587   3.671   3.756  0.00  0.00    +0.006 A 
ATOM     17  C   UNL     1       4.769   2.973   3.592  0.00  0.00    +0.004 A 
BRANCH  12  19
ATOM     18  C   UNL     1       6.387   0.468   3.111  0.00  0.00    +0.012 C 
ATOM     19  C   UNL     1       6.472   1.317   4.380  0.00  0.00    +0.013 C 
ATOM     20  C   UNL     1       7.637   2.301   4.258  0.00  0.00    +0.012 C 
ENDBRANCH  12  19
ENDBRANCH   1  15
BRANCH   3  21
ATOM     21  C   UNL     1       1.236   7.980   4.250  0.00  0.00    +0.035 A 
ATOM     22  C   UNL     1       0.710   8.796   3.263  0.00  0.00    +0.017 A 
ATOM     23  C   UNL     1       0.845  10.158   3.399  0.00  0.00    +0.008 A 
ATOM     24  C   UNL     1       1.486  10.656   4.489  0.00  0.00    +0.046 A 
ATOM     25  S   UNL     1       1.923   9.175   5.385  0.00  0.00    -0.095 S 
ENDBRANCH   3  21
BRANCH  10  26
ATOM     26  C   UNL     1      -0.009   1.091   0.008  0.00  0.00    +0.120 C 
BRANCH  26  27
ATOM     27  C   UNL     1      -0.743   1.583  -1.213  0.00  0.00    +0.219 C 
ATOM     28  O   UNL     1      -1.742   2.260  -1.088  0.00  0.00    -0.275 OA
ATOM     29  N   UNL     1      -0.288   1.272  -2.443  0.00  0.00    -0.285 N 
ATOM     30  H   UNL     1       0.658   0.724  -2.558  0.00  0.00    +0.155 HD
BRANCH  29  31
ATOM     31  C   UNL     1      -1.022   1.647  -3.575  0.00  0.00    +0.034 A 
ATOM     32  C   UNL     1      -1.045   0.822  -4.693  0.00  0.00    +0.026 A 
ATOM     33  C   UNL     1      -1.774   1.191  -5.806  0.00  0.00    +0.040 A 
ATOM     34  C   UNL     1      -2.472   2.387  -5.814  0.00  0.00    +0.124 A 
ATOM     35  C   UNL     1      -2.446   3.213  -4.703  0.00  0.00    +0.040 A 
ATOM     36  C   UNL     1      -1.723   2.845  -3.585  0.00  0.00    +0.026 A 
ATOM     37  F   UNL     1      -3.179   2.748  -6.907  0.00  0.00    -0.205 F 
ENDBRANCH  29  31
ENDBRANCH  26  27
ENDBRANCH  10  26
TORSDOF 6
