REMARK  Name = ZINC20531921
REMARK  11 active torsions:
REMARK  status: ('A' for Active; 'I' for Inactive)
REMARK    1  A    between atoms: C_1  and  C_2
REMARK    2  A    between atoms: C_2  and  O_3
REMARK    3  A    between atoms: O_3  and  C_4
REMARK    4  A    between atoms: C_12  and  C_18
REMARK    5  A    between atoms: C_13  and  C_17
REMARK    6  A    between atoms: N_20  and  C_21
REMARK    7  A    between atoms: C_21  and  C_22
REMARK    8  A    between atoms: C_22  and  C_23
REMARK    9  A    between atoms: C_23  and  N_24
REMARK   10  A    between atoms: C_26  and  C_33
REMARK   11  A    between atoms: C_29  and  C_32
REMARK                            x       y       z     vdW  Elec       q    Type
REMARK                         _______ _______ _______ _____ _____    ______ ____
ROOT
ATOM      1  C   UNL     1       4.356  -1.912   2.739  0.00  0.00    +0.403 C 
ATOM      2  O   UNL     1       4.099  -3.014   2.294  0.00  0.00    -0.226 OA
ATOM      3  N   UNL     1       3.602  -1.393   3.729  0.00  0.00    -0.267 N 
ATOM      4  C   UNL     1       2.468  -2.147   4.280  0.00  0.00    +0.115 C 
ATOM      5  C   UNL     1       1.212  -1.272   4.207  0.00  0.00    +0.072 C 
ATOM      6  C   UNL     1       1.485   0.063   4.900  0.00  0.00    +0.147 C 
ATOM      7  C   UNL     1       2.632   0.795   4.204  0.00  0.00    +0.072 C 
ATOM      8  C   UNL     1       3.900  -0.063   4.277  0.00  0.00    +0.115 C 
ATOM      9  C   UNL     1       0.241   0.917   4.880  0.00  0.00    +0.067 C 
ATOM     10  C   UNL     1      -0.087   1.152   6.162  0.00  0.00    +0.045 C 
ATOM     11  C   UNL     1       0.883   0.480   7.040  0.00  0.00    +0.336 C 
ATOM     12  O   UNL     1       0.856   0.500   8.255  0.00  0.00    -0.245 OA
ATOM     13  O   UNL     1       1.809  -0.157   6.299  0.00  0.00    -0.450 OA
ATOM     14  C   UNL     1      -1.265   1.970   6.626  0.00  0.00    +0.052 C 
ENDROOT
BRANCH   9  15
ATOM     15  C   UNL     1      -0.473   1.407   3.684  0.00  0.00    +0.244 C 
ATOM     16  O   UNL     1      -1.470   2.091   3.809  0.00  0.00    -0.270 OA
ATOM     17  N   UNL     1      -0.020   1.094   2.454  0.00  0.00    -0.312 N 
ATOM     18  H   UNL     1       0.881   0.474   2.341  0.00  0.00    +0.149 HD
BRANCH  17  19
ATOM     19  C   UNL     1      -0.729   1.579   1.267  0.00  0.00    +0.102 C 
BRANCH  19  20
ATOM     20  C   UNL     1      -0.013   1.086   0.008  0.00  0.00    +0.000 C 
BRANCH  20  21
ATOM     21  C   UNL     1      -0.753   1.593  -1.232  0.00  0.00    -0.077 C 
BRANCH  21  22
ATOM     22  N   UNL     1      -0.065   1.119  -2.440  0.00  0.00    +0.380 N 
ATOM     23  C   UNL     1       1.271   1.718  -2.555  0.00  0.00    -0.076 C 
ATOM     24  C   UNL     1       2.011   1.095  -3.740  0.00  0.00    -0.031 C 
ATOM     25  C   UNL     1       1.210   1.339  -5.022  0.00  0.00    +0.003 C 
ATOM     26  C   UNL     1      -0.193   0.748  -4.858  0.00  0.00    -0.031 C 
ATOM     27  C   UNL     1      -0.870   1.381  -3.640  0.00  0.00    -0.076 C 
ATOM     28  C   UNL     1      -1.020   1.040  -6.112  0.00  0.00    +0.005 C 
ATOM     29  C   UNL     1       2.164  -0.411  -3.512  0.00  0.00    +0.005 C 
ATOM     30  H   UNL     1       0.062   0.030  -2.353  0.00  0.00    -0.082 HD
ENDBRANCH  21  22
ENDBRANCH  20  21
ENDBRANCH  19  20
ENDBRANCH  17  19
ENDBRANCH   9  15
BRANCH   1  31
ATOM     31  O   UNL     1       5.392  -1.211   2.244  0.00  0.00    -0.451 OA
BRANCH  31  33
ATOM     32  C   UNL     1       7.287  -0.892   0.748  0.00  0.00    +0.048 C 
ATOM     33  C   UNL     1       6.160  -1.832   1.179  0.00  0.00    +0.230 C 
ENDBRANCH  31  33
ENDBRANCH   1  31
TORSDOF 7
