REMARK  Name = ZINC20704062
REMARK  3 active torsions:
REMARK  status: ('A' for Active; 'I' for Inactive)
REMARK    1  A    between atoms: C_5  and  C_7
REMARK    2  A    between atoms: C_11  and  C_20
REMARK    3  A    between atoms: C_24  and  N_26
REMARK                            x       y       z     vdW  Elec       q    Type
REMARK                         _______ _______ _______ _____ _____    ______ ____
ROOT
ATOM      1  C   UNL     1      -7.349   4.750  -0.815  0.00  0.00    +0.001 A 
ATOM      2  C   UNL     1      -6.472   5.104   0.194  0.00  0.00    +0.006 A 
ATOM      3  C   UNL     1      -5.136   4.737   0.142  0.00  0.00    -0.019 A 
ATOM      4  C   UNL     1      -4.673   4.004  -0.938  0.00  0.00    +0.044 A 
ATOM      5  C   UNL     1      -5.563   3.642  -1.968  0.00  0.00    +0.058 A 
ATOM      6  C   UNL     1      -6.904   4.022  -1.896  0.00  0.00    +0.015 A 
ATOM      7  N   UNL     1      -3.352   3.600  -1.048  0.00  0.00    -0.336 N 
ATOM      8  C   UNL     1      -2.440   4.483  -0.321  0.00  0.00    +0.105 C 
ATOM      9  C   UNL     1      -2.842   4.527   1.155  0.00  0.00    +0.029 C 
ATOM     10  C   UNL     1      -4.245   5.162   1.272  0.00  0.00    +0.049 C 
ATOM     11  C   UNL     1      -3.982   6.649   1.212  0.00  0.00    -0.023 C 
ATOM     12  C   UNL     1      -2.738   6.909   1.526  0.00  0.00    -0.030 C 
ATOM     13  C   UNL     1      -1.993   5.629   1.849  0.00  0.00    +0.033 C 
ATOM     14  H   UNL     1      -2.957   2.732  -1.596  0.00  0.00    +0.147 HD
ENDROOT
BRANCH   8  15
ATOM     15  C   UNL     1      -1.032   3.962  -0.442  0.00  0.00    -0.025 A 
ATOM     16  C   UNL     1      -0.790   2.602  -0.377  0.00  0.00    +0.007 A 
ATOM     17  C   UNL     1       0.502   2.124  -0.483  0.00  0.00    +0.022 A 
ATOM     18  C   UNL     1       1.553   3.005  -0.665  0.00  0.00    +0.071 A 
ATOM     19  C   UNL     1       1.310   4.365  -0.736  0.00  0.00    +0.145 A 
ATOM     20  C   UNL     1       0.018   4.843  -0.624  0.00  0.00    +0.039 A 
ATOM     21 CL   UNL     1       3.176   2.404  -0.806  0.00  0.00    -0.081 Cl
BRANCH  19  22
ATOM     22  N   UNL     1       2.434   5.308  -0.932  0.00  0.00    +0.058 N 
ATOM     23  O   UNL     1       2.220   6.506  -0.994  0.00  0.00    -0.126 OA
ATOM     24  O   UNL     1       3.572   4.887  -1.030  0.00  0.00    -0.126 OA
ENDBRANCH  19  22
ENDBRANCH   8  15
BRANCH   5  25
ATOM     25  C   UNL     1      -5.078   2.863  -3.121  0.00  0.00    +0.243 C 
ATOM     26  O   UNL     1      -3.943   2.428  -3.127  0.00  0.00    -0.270 OA
ATOM     27  N   UNL     1      -5.893   2.633  -4.170  0.00  0.00    -0.325 N 
ATOM     28  H   UNL     1      -5.531   2.052  -5.031  0.00  0.00    +0.145 HD
ATOM     29  H   UNL     1      -6.920   3.027  -4.165  0.00  0.00    +0.145 HD
ENDBRANCH   5  25
TORSDOF 3
