REMARK  Name = ZINC13024658
REMARK  14 active torsions:
REMARK  status: ('A' for Active; 'I' for Inactive)
REMARK    1  A    between atoms: C_1  and  C_2
REMARK    2  A    between atoms: C_2  and  C_3
REMARK    3  A    between atoms: C_3  and  C_4
REMARK    4  A    between atoms: C_3  and  C_5
REMARK    5  A    between atoms: C_3  and  N_6
REMARK    6  A    between atoms: C_7  and  C_9
REMARK    7  A    between atoms: C_9  and  C_11
REMARK    8  A    between atoms: C_9  and  N_19
REMARK    9  A    between atoms: C_14  and  O_17
REMARK   10  A    between atoms: O_17  and  C_18
REMARK   11  A    between atoms: N_19  and  C_20
REMARK   12  A    between atoms: C_23  and  C_26
REMARK   13  A    between atoms: C_27  and  C_29
REMARK   14  A    between atoms: C_29  and  N_30
REMARK                            x       y       z     vdW  Elec       q    Type
REMARK                         _______ _______ _______ _____ _____    ______ ____
ROOT
ATOM      1  N   UNL     1      -2.328   3.343   1.975  0.00  0.00    -0.254 N 
ATOM      2  C   UNL     1      -2.215   2.070   1.547  0.00  0.00    +0.242 C 
ATOM      3  O   UNL     1      -2.757   1.174   2.159  0.00  0.00    -0.273 OA
ENDROOT
BRANCH   1   4
ATOM      4  C   UNL     1      -1.790   4.387   1.214  0.00  0.00    +0.037 A 
ATOM      5  C   UNL     1      -2.363   4.725  -0.005  0.00  0.00    +0.024 A 
ATOM      6  C   UNL     1      -1.834   5.761  -0.751  0.00  0.00    +0.005 A 
ATOM      7  C   UNL     1      -0.729   6.452  -0.291  0.00  0.00    -0.050 A 
ATOM      8  C   UNL     1      -0.152   6.113   0.920  0.00  0.00    +0.005 A 
ATOM      9  C   UNL     1      -0.680   5.083   1.674  0.00  0.00    +0.024 A 
ATOM     10  C   UNL     1      -0.150   7.577  -1.110  0.00  0.00    +0.044 C 
ENDBRANCH   1   4
BRANCH   1  11
ATOM     11  C   UNL     1      -3.012   3.634   3.237  0.00  0.00    +0.197 C 
BRANCH  11  12
ATOM     12  C   UNL     1      -2.874   5.100   3.558  0.00  0.00    -0.018 A 
ATOM     13  C   UNL     1      -3.331   6.048   2.662  0.00  0.00    +0.009 A 
ATOM     14  C   UNL     1      -3.211   7.393   2.955  0.00  0.00    +0.046 A 
ATOM     15  C   UNL     1      -2.620   7.791   4.146  0.00  0.00    +0.120 A 
ATOM     16  C   UNL     1      -2.157   6.838   5.041  0.00  0.00    +0.046 A 
ATOM     17  C   UNL     1      -2.285   5.494   4.745  0.00  0.00    +0.009 A 
BRANCH  15  18
ATOM     18  O   UNL     1      -2.494   9.113   4.434  0.00  0.00    -0.495 OA
ATOM     19  C   UNL     1      -2.994  10.039   3.466  0.00  0.00    +0.277 C 
ENDBRANCH  15  18
ENDBRANCH  11  12
BRANCH  11  21
ATOM     20  N   UNL     1      -5.304   3.468   4.154  0.00  0.00    -0.308 N 
ATOM     21  C   UNL     1      -4.472   3.283   3.109  0.00  0.00    +0.239 C 
ATOM     22  O   UNL     1      -4.899   2.834   2.066  0.00  0.00    -0.273 OA
ATOM     23  H   UNL     1      -4.963   3.827   4.988  0.00  0.00    +0.149 HD
BRANCH  20  24
ATOM     24  C   UNL     1      -6.723   3.127   4.029  0.00  0.00    +0.029 C 
ATOM     25  C   UNL     1      -7.350   3.956   2.906  0.00  0.00    +0.031 C 
ATOM     26  C   UNL     1      -6.864   1.639   3.704  0.00  0.00    +0.031 C 
BRANCH  24  28
ATOM     27  C   UNL     1      -8.921   3.075   5.217  0.00  0.00    +0.006 C 
ATOM     28  C   UNL     1      -7.438   3.431   5.347  0.00  0.00    +0.022 C 
ENDBRANCH  24  28
ENDBRANCH  20  24
ENDBRANCH  11  21
ENDBRANCH   1  11
BRANCH   2  29
ATOM     29  C   UNL     1      -1.415   1.759   0.308  0.00  0.00    +0.242 C 
BRANCH  29  30
ATOM     30  N   UNL     1      -1.341   0.307   0.126  0.00  0.00    -0.235 N 
ATOM     31  C   UNL     1      -2.222  -0.479  -0.579  0.00  0.00    +0.090 A 
ATOM     32  C   UNL     1      -3.384  -0.223  -1.297  0.00  0.00    +0.029 A 
ATOM     33  C   UNL     1      -4.050  -1.252  -1.902  0.00  0.00    +0.002 A 
ATOM     34  C   UNL     1      -3.576  -2.554  -1.804  0.00  0.00    +0.002 A 
ATOM     35  C   UNL     1      -2.438  -2.832  -1.105  0.00  0.00    +0.032 A 
ATOM     36  C   UNL     1      -1.737  -1.794  -0.476  0.00  0.00    +0.113 A 
ATOM     37  N   UNL     1      -0.612  -1.759   0.266  0.00  0.00    -0.129 NA
ATOM     38  N   UNL     1      -0.355  -0.553   0.631  0.00  0.00    -0.064 NA
ENDBRANCH  29  30
ENDBRANCH   2  29
TORSDOF 9
