REMARK  Name = ZINC35867610
REMARK  9 active torsions:
REMARK  status: ('A' for Active; 'I' for Inactive)
REMARK    1  A    between atoms: C_1  and  C_2
REMARK    2  A    between atoms: C_2  and  C_3
REMARK    3  A    between atoms: C_3  and  C_4
REMARK    4  A    between atoms: C_4  and  C_5
REMARK    5  A    between atoms: C_15  and  C_19
REMARK    6  A    between atoms: N_28  and  C_29
REMARK    7  A    between atoms: C_34  and  O_35
REMARK    8  A    between atoms: O_35  and  C_36
REMARK    9  A    between atoms: C_36  and  C_37
REMARK                            x       y       z     vdW  Elec       q    Type
REMARK                         _______ _______ _______ _____ _____    ______ ____
ROOT
ATOM      1  C   UNL     1       1.409  -2.633  -2.435  0.00  0.00    +0.132 A 
ATOM      2  N   UNL     1       0.658  -2.845  -3.501  0.00  0.00    -0.217 NA
ATOM      3  C   UNL     1       1.145  -3.371  -4.613  0.00  0.00    +0.133 A 
ATOM      4  C   UNL     1       2.523  -3.723  -4.667  0.00  0.00    +0.051 A 
ATOM      5  C   UNL     1       3.276  -4.312  -5.776  0.00  0.00    -0.025 A 
ATOM      6  C   UNL     1       4.586  -4.552  -5.566  0.00  0.00    -0.004 A 
ATOM      7  S   UNL     1       4.894  -4.018  -3.903  0.00  0.00    -0.073 S 
ATOM      8  C   UNL     1       3.258  -3.470  -3.492  0.00  0.00    +0.114 A 
ATOM      9  N   UNL     1       2.693  -2.935  -2.426  0.00  0.00    -0.225 NA
ATOM     10  C   UNL     1       5.567  -5.142  -6.532  0.00  0.00    +0.046 C 
ATOM     11  C   UNL     1       4.951  -5.095  -7.938  0.00  0.00    -0.009 C 
ATOM     12  C   UNL     1       3.520  -5.637  -7.864  0.00  0.00    +0.008 C 
ATOM     13  C   UNL     1       2.628  -4.645  -7.116  0.00  0.00    +0.037 C 
ATOM     14  C   UNL     1       5.781  -5.957  -8.891  0.00  0.00    +0.008 C 
ATOM     15  N   UNL     1       0.326  -3.577  -5.708  0.00  0.00    -0.312 N 
ATOM     16  C   UNL     1      -0.529  -4.769  -5.789  0.00  0.00    +0.125 C 
ATOM     17  C   UNL     1      -1.979  -4.319  -6.005  0.00  0.00    +0.128 C 
ATOM     18  N   UNL     1      -2.010  -3.349  -7.109  0.00  0.00    -0.282 N 
ATOM     19  C   UNL     1      -1.155  -2.157  -7.028  0.00  0.00    +0.128 C 
ATOM     20  C   UNL     1       0.291  -2.605  -6.810  0.00  0.00    +0.125 C 
ATOM     21  C   UNL     1      -2.808  -3.550  -8.176  0.00  0.00    +0.307 C 
ATOM     22  O   UNL     1      -3.576  -4.492  -8.192  0.00  0.00    -0.252 OA
ATOM     23  N   UNL     1      -2.755  -2.706  -9.226  0.00  0.00    -0.266 N 
ATOM     24  H   UNL     1      -2.120  -1.973  -9.226  0.00  0.00    +0.156 HD
ENDROOT
BRANCH  23  25
ATOM     25  C   UNL     1      -3.617  -2.888 -10.316  0.00  0.00    +0.077 A 
ATOM     26  C   UNL     1      -4.199  -4.126 -10.542  0.00  0.00    +0.027 A 
ATOM     27  C   UNL     1      -5.049  -4.303 -11.618  0.00  0.00    +0.002 A 
ATOM     28  C   UNL     1      -5.321  -3.249 -12.470  0.00  0.00    +0.004 A 
ATOM     29  C   UNL     1      -4.744  -2.012 -12.250  0.00  0.00    +0.047 A 
ATOM     30  C   UNL     1      -3.896  -1.824 -11.171  0.00  0.00    +0.142 A 
BRANCH  30  31
ATOM     31  O   UNL     1      -3.332  -0.607 -10.950  0.00  0.00    -0.490 OA
BRANCH  31  32
ATOM     32  C   UNL     1      -3.663   0.437 -11.868  0.00  0.00    +0.226 C 
ATOM     33  C   UNL     1      -2.940   1.723 -11.461  0.00  0.00    +0.048 C 
ENDBRANCH  31  32
ENDBRANCH  30  31
ENDBRANCH  23  25
BRANCH   1  34
ATOM     34  C   UNL     1       0.786  -2.028  -1.203  0.00  0.00    +0.076 C 
BRANCH  34  35
ATOM     35  C   UNL     1       0.889  -0.503  -1.276  0.00  0.00    +0.007 C 
BRANCH  35  37
ATOM     36  C   UNL     1       0.360   1.636  -0.099  0.00  0.00    +0.004 C 
ATOM     37  C   UNL     1       0.257   0.111  -0.026  0.00  0.00    -0.003 C 
ENDBRANCH  35  37
ENDBRANCH  34  35
ENDBRANCH   1  34
TORSDOF 6
