REMARK  Name = ZINC02781437
REMARK  6 active torsions:
REMARK  status: ('A' for Active; 'I' for Inactive)
REMARK    1  A    between atoms: C_6  and  C_7
REMARK    2  A    between atoms: C_9  and  C_29
REMARK    3  A    between atoms: C_14  and  C_16
REMARK    4  A    between atoms: N_18  and  C_19
REMARK    5  A    between atoms: C_19  and  C_20
REMARK    6  A    between atoms: C_29  and  C_30
REMARK                            x       y       z     vdW  Elec       q    Type
REMARK                         _______ _______ _______ _____ _____    ______ ____
ROOT
ATOM      1  C   UNL     1      -6.313  -1.352   6.998  0.00  0.00    +0.075 A 
ATOM      2  C   UNL     1      -5.170  -0.672   7.479  0.00  0.00    +0.058 A 
ATOM      3  C   UNL     1      -4.294  -0.143   6.597  0.00  0.00    +0.124 A 
ATOM      4  N   UNL     1      -4.533  -0.274   5.256  0.00  0.00    -0.212 N 
ATOM      5  C   UNL     1      -5.652  -0.940   4.821  0.00  0.00    +0.157 A 
ATOM      6  N   UNL     1      -6.518  -1.464   5.698  0.00  0.00    -0.228 NA
ATOM      7  C   UNL     1      -5.633  -0.910   3.434  0.00  0.00    +0.083 A 
ATOM      8  C   UNL     1      -4.479  -0.223   3.043  0.00  0.00    +0.150 A 
ATOM      9  N   UNL     1      -3.825   0.159   4.128  0.00  0.00    -0.160 NA
ENDROOT
BRANCH   1  15
ATOM     10  C   UNL     1      -7.065  -1.827   9.326  0.00  0.00    +0.013 A 
ATOM     11  C   UNL     1      -7.972  -2.372  10.211  0.00  0.00    +0.039 A 
ATOM     12  C   UNL     1      -9.091  -3.038   9.738  0.00  0.00    +0.123 A 
ATOM     13  C   UNL     1      -9.308  -3.156   8.374  0.00  0.00    +0.039 A 
ATOM     14  C   UNL     1      -8.409  -2.611   7.481  0.00  0.00    +0.013 A 
ATOM     15  C   UNL     1      -7.281  -1.939   7.953  0.00  0.00    +0.001 A 
ATOM     16  F   UNL     1      -9.974  -3.574  10.609  0.00  0.00    -0.205 F 
ENDBRANCH   1  15
BRANCH   8  17
ATOM     17  C   UNL     1      -4.062   0.037   1.648  0.00  0.00    +0.265 C 
ATOM     18  O   UNL     1      -4.744  -0.362   0.725  0.00  0.00    -0.268 OA
ATOM     19  N   UNL     1      -2.926   0.719   1.400  0.00  0.00    -0.306 N 
ATOM     20  H   UNL     1      -2.381   1.038   2.137  0.00  0.00    +0.149 HD
BRANCH  19  21
ATOM     21  C   UNL     1      -2.513   0.977   0.019  0.00  0.00    +0.140 C 
BRANCH  21  22
ATOM     22  C   UNL     1      -1.219   1.750   0.017  0.00  0.00    -0.027 A 
ATOM     23  C   UNL     1      -1.242   3.133   0.033  0.00  0.00    +0.009 A 
ATOM     24  C   UNL     1      -0.058   3.846   0.024  0.00  0.00    +0.050 A 
ATOM     25  C   UNL     1       1.155   3.177   0.008  0.00  0.00    +0.166 A 
ATOM     26  C   UNL     1       1.178   1.784   0.000  0.00  0.00    +0.167 A 
ATOM     27  C   UNL     1      -0.013   1.076   0.008  0.00  0.00    +0.054 A 
ATOM     28  O   UNL     1       2.478   1.369  -0.015  0.00  0.00    -0.453 OA
ATOM     29  C   UNL     1       3.243   2.517  -0.428  0.00  0.00    +0.466 C 
ATOM     30  O   UNL     1       2.441   3.634  -0.002  0.00  0.00    -0.453 OA
ENDBRANCH  21  22
ENDBRANCH  19  21
ENDBRANCH   8  17
BRANCH   3  31
ATOM     31  C   UNL     1      -3.069   0.586   7.085  0.00  0.00    +0.383 C 
ATOM     32  F   UNL     1      -1.922  -0.055   6.604  0.00  0.00    -0.189 F 
ATOM     33  F   UNL     1      -3.095   1.906   6.620  0.00  0.00    -0.189 F 
BRANCH  31  34
ATOM     34  C   UNL     1      -3.050   0.585   8.615  0.00  0.00    +0.460 C 
ATOM     35  F   UNL     1      -3.023  -0.734   9.080  0.00  0.00    -0.165 F 
ATOM     36  F   UNL     1      -1.912   1.262   9.068  0.00  0.00    -0.165 F 
ATOM     37  F   UNL     1      -4.196   1.226   9.096  0.00  0.00    -0.165 F 
ENDBRANCH  31  34
ENDBRANCH   3  31
TORSDOF 6
