REMARK  Name = ZINC09494772
REMARK  9 active torsions:
REMARK  status: ('A' for Active; 'I' for Inactive)
REMARK    1  A    between atoms: C_1  and  O_2
REMARK    2  A    between atoms: O_2  and  C_3
REMARK    3  A    between atoms: C_6  and  C_9
REMARK    4  A    between atoms: C_9  and  C_11
REMARK    5  A    between atoms: C_9  and  N_66
REMARK    6  A    between atoms: C_11  and  N_12
REMARK    7  A    between atoms: C_13  and  C_15
REMARK    8  A    between atoms: N_18  and  C_21
REMARK    9  A    between atoms: C_24  and  C_26
REMARK                            x       y       z     vdW  Elec       q    Type
REMARK                         _______ _______ _______ _____ _____    ______ ____
ROOT
ATOM      1  N   UNL     1      -4.488   6.559   8.030  0.00  0.00    -0.316 N 
ATOM      2  C   UNL     1      -4.845   5.681   7.072  0.00  0.00    +0.216 C 
ATOM      3  O   UNL     1      -5.927   5.135   7.123  0.00  0.00    -0.276 OA
ATOM      4  H   UNL     1      -3.623   6.996   7.989  0.00  0.00    +0.149 HD
ENDROOT
BRANCH   2   5
ATOM      5  C   UNL     1      -3.900   5.377   5.938  0.00  0.00    +0.078 C 
ATOM      6  C   UNL     1      -4.543   4.356   4.996  0.00  0.00    +0.031 C 
ATOM      7  C   UNL     1      -3.555   4.006   3.881  0.00  0.00    +0.107 C 
ATOM      8  N   UNL     1      -2.328   3.452   4.468  0.00  0.00    -0.317 N 
ATOM      9  C   UNL     1      -1.668   4.432   5.340  0.00  0.00    +0.107 C 
ATOM     10  C   UNL     1      -2.599   4.795   6.498  0.00  0.00    +0.031 C 
BRANCH   8  11
ATOM     11  C   UNL     1      -1.461   3.002   3.478  0.00  0.00    +0.099 A 
ATOM     12  C   UNL     1      -0.239   2.442   3.835  0.00  0.00    +0.042 A 
ATOM     13  C   UNL     1       0.614   1.998   2.841  0.00  0.00    +0.017 A 
ATOM     14  C   UNL     1       0.214   2.131   1.517  0.00  0.00    +0.071 A 
ATOM     15  C   UNL     1      -1.010   2.702   1.235  0.00  0.00    +0.096 A 
ATOM     16  N   UNL     1      -1.876   3.143   2.186  0.00  0.00    -0.349 N 
ATOM     17  H   UNL     1      -2.785   3.557   1.947  0.00  0.00    +0.167 HD
BRANCH  14  18
ATOM     18  C   UNL     1       1.110   1.661   0.401  0.00  0.00    +0.419 C 
ATOM     19  F   UNL     1       0.826   0.323   0.106  0.00  0.00    -0.166 F 
ATOM     20  F   UNL     1       2.447   1.777   0.796  0.00  0.00    -0.166 F 
ATOM     21  F   UNL     1       0.890   2.446  -0.736  0.00  0.00    -0.166 F 
ENDBRANCH  14  18
ENDBRANCH   8  11
ENDBRANCH   2   5
BRANCH   1  22
ATOM     22  C   UNL     1      -5.407   6.854   9.132  0.00  0.00    +0.093 C 
BRANCH  22  23
ATOM     23  C   UNL     1      -4.838   7.994   9.979  0.00  0.00    -0.020 C 
BRANCH  23  27
ATOM     24  C   UNL     1      -7.402   8.702  13.324  0.00  0.00    +0.120 A 
ATOM     25  C   UNL     1      -6.182   8.068  13.506  0.00  0.00    +0.046 A 
ATOM     26  C   UNL     1      -5.355   7.840  12.423  0.00  0.00    +0.005 A 
ATOM     27  C   UNL     1      -5.742   8.244  11.159  0.00  0.00    -0.059 A 
ATOM     28  C   UNL     1      -6.956   8.881  10.975  0.00  0.00    +0.005 A 
ATOM     29  C   UNL     1      -7.789   9.106  12.054  0.00  0.00    +0.046 A 
BRANCH  24  31
ATOM     30  C   UNL     1      -9.459   9.585  14.125  0.00  0.00    +0.277 C 
ATOM     31  O   UNL     1      -8.218   8.928  14.387  0.00  0.00    -0.495 OA
ENDBRANCH  24  31
ENDBRANCH  23  27
BRANCH  23  36
ATOM     32  C   UNL     1      -4.476  10.402  10.012  0.00  0.00    -0.078 C 
ATOM     33  C   UNL     1      -3.905  11.432   9.005  0.00  0.00    -0.020 C 
ATOM     34  C   UNL     1      -3.054  10.555   8.059  0.00  0.00    -0.020 C 
ATOM     35  C   UNL     1      -3.622   9.131   8.210  0.00  0.00    -0.078 C 
ATOM     36  N   UNL     1      -4.736   9.235   9.154  0.00  0.00    +0.385 N 
ATOM     37  H   UNL     1      -5.614   9.371   8.640  0.00  0.00    -0.081 HD
ENDBRANCH  23  36
ENDBRANCH  22  23
ENDBRANCH   1  22
TORSDOF 8
