REMARK  Name = ZINC09680319
REMARK  9 active torsions:
REMARK  status: ('A' for Active; 'I' for Inactive)
REMARK    1  A    between atoms: C_1  and  C_2
REMARK    2  A    between atoms: C_3  and  C_29
REMARK    3  A    between atoms: C_4  and  C_22
REMARK    4  A    between atoms: C_10  and  C_15
REMARK    5  A    between atoms: C_25  and  O_28
REMARK    6  A    between atoms: C_29  and  O_31
REMARK    7  A    between atoms: O_31  and  C_32
REMARK    8  A    between atoms: C_32  and  C_33
REMARK    9  A    between atoms: C_33  and  C_34
REMARK                            x       y       z     vdW  Elec       q    Type
REMARK                         _______ _______ _______ _____ _____    ______ ____
ROOT
ATOM      1  C   UNL     1       6.793  -2.709  -5.241  0.00  0.00    +0.061 C 
ATOM      2  C   UNL     1       7.600  -3.012  -4.005  0.00  0.00    +0.031 C 
ATOM      3  C   UNL     1       7.143  -2.633  -2.799  0.00  0.00    +0.154 C 
ATOM      4  C   UNL     1       7.911  -2.931  -1.546  0.00  0.00    +0.073 C 
ATOM      5  C   UNL     1       9.347  -3.271  -1.859  0.00  0.00    +0.025 C 
ATOM      6  C   UNL     1       9.717  -3.622  -3.110  0.00  0.00    +0.049 C 
ATOM      7  N   UNL     1       8.792  -3.672  -4.118  0.00  0.00    -0.260 NA
ATOM      8  C   UNL     1      11.147  -3.980  -3.425  0.00  0.00    +0.064 C 
ATOM      9  C   UNL     1      12.086  -3.192  -2.510  0.00  0.00    +0.032 C 
ATOM     10  C   UNL     1      11.739  -3.521  -1.055  0.00  0.00    +0.088 C 
ATOM     11  C   UNL     1      10.287  -3.208  -0.815  0.00  0.00    +0.162 C 
ATOM     12  O   UNL     1       9.921  -2.894   0.300  0.00  0.00    -0.292 OA
ENDROOT
BRANCH   9  13
ATOM     13  C   UNL     1      13.514  -3.585  -2.791  0.00  0.00    -0.043 A 
ATOM     14  C   UNL     1      13.916  -4.897  -2.620  0.00  0.00    +0.005 A 
ATOM     15  C   UNL     1      15.224  -5.259  -2.883  0.00  0.00    +0.020 A 
ATOM     16  C   UNL     1      16.133  -4.306  -3.306  0.00  0.00    +0.041 A 
ATOM     17  C   UNL     1      15.732  -2.993  -3.472  0.00  0.00    +0.020 A 
ATOM     18  C   UNL     1      14.422  -2.633  -3.215  0.00  0.00    +0.005 A 
ATOM     19 CL   UNL     1      17.778  -4.759  -3.629  0.00  0.00    -0.084 Cl
ENDBRANCH   9  13
BRANCH   4  20
ATOM     20  C   UNL     1       7.268  -4.099  -0.845  0.00  0.00    -0.038 A 
ATOM     21  C   UNL     1       7.164  -5.319  -1.488  0.00  0.00    +0.008 A 
ATOM     22  C   UNL     1       6.580  -6.393  -0.845  0.00  0.00    +0.045 A 
ATOM     23  C   UNL     1       6.088  -6.244   0.443  0.00  0.00    +0.117 A 
ATOM     24  C   UNL     1       6.188  -5.019   1.085  0.00  0.00    +0.045 A 
ATOM     25  C   UNL     1       6.778  -3.949   0.440  0.00  0.00    +0.008 A 
BRANCH  23  26
ATOM     26  O   UNL     1       5.507  -7.298   1.075  0.00  0.00    -0.507 OA
ATOM     27  H   UNL     1       4.553  -7.367   0.930  0.00  0.00    +0.292 HD
ENDBRANCH  23  26
ENDBRANCH   4  20
BRANCH   3  28
ATOM     28  C   UNL     1       5.912  -1.941  -2.710  0.00  0.00    +0.317 C 
ATOM     29  O   UNL     1       5.330  -1.602  -3.723  0.00  0.00    -0.250 OA
BRANCH  28  30
ATOM     30  O   UNL     1       5.384  -1.657  -1.501  0.00  0.00    -0.464 OA
BRANCH  30  31
ATOM     31  C   UNL     1       4.139  -0.956  -1.485  0.00  0.00    +0.237 C 
BRANCH  31  32
ATOM     32  C   UNL     1       3.702  -0.725  -0.037  0.00  0.00    +0.076 C 
BRANCH  32  33
ATOM     33  C   UNL     1       2.389   0.014  -0.021  0.00  0.00    -0.044 A 
ATOM     34  C   UNL     1       1.199  -0.690  -0.025  0.00  0.00    +0.004 A 
ATOM     35  C   UNL     1      -0.006  -0.012  -0.009  0.00  0.00    +0.000 A 
ATOM     36  C   UNL     1      -0.021   1.370   0.009  0.00  0.00    +0.000 A 
ATOM     37  C   UNL     1       1.169   2.074   0.013  0.00  0.00    +0.000 A 
ATOM     38  C   UNL     1       2.373   1.396  -0.003  0.00  0.00    +0.004 A 
ENDBRANCH  32  33
ENDBRANCH  31  32
ENDBRANCH  30  31
ENDBRANCH  28  30
ENDBRANCH   3  28
TORSDOF 8
