REMARK  Name = ZINC16677183
REMARK  3 active torsions:
REMARK  status: ('A' for Active; 'I' for Inactive)
REMARK    1  A    between atoms: C_1  and  C_2
REMARK    2  A    between atoms: C_5  and  N_8
REMARK    3  A    between atoms: C_10  and  C_11
REMARK                            x       y       z     vdW  Elec       q    Type
REMARK                         _______ _______ _______ _____ _____    ______ ____
ROOT
ATOM      1  N   UNL     1       1.239   3.511  -0.421  0.00  0.00    -0.224 N 
ATOM      2  C   UNL     1       2.462   4.097  -0.427  0.00  0.00    +0.102 C 
ATOM      3  C   UNL     1       3.539   3.429   0.206  0.00  0.00    +0.053 C 
ATOM      4  N   UNL     1       2.693   5.285  -1.014  0.00  0.00    -0.302 N 
ATOM      5  C   UNL     1       1.671   5.976  -1.639  0.00  0.00    +0.044 A 
ATOM      6  C   UNL     1       1.892   7.205  -2.244  0.00  0.00    +0.024 A 
ATOM      7  C   UNL     1       0.846   7.864  -2.858  0.00  0.00    +0.002 A 
ATOM      8  C   UNL     1      -0.426   7.311  -2.876  0.00  0.00    +0.001 A 
ATOM      9  C   UNL     1      -0.665   6.091  -2.280  0.00  0.00    +0.015 A 
ATOM     10  C   UNL     1       0.381   5.414  -1.657  0.00  0.00    +0.059 A 
ATOM     11  C   UNL     1       0.177   4.108  -1.005  0.00  0.00    +0.258 C 
ATOM     12  O   UNL     1      -0.918   3.582  -0.994  0.00  0.00    -0.269 OA
ATOM     13  H   UNL     1       3.705   5.716  -1.001  0.00  0.00    +0.153 HD
ENDROOT
BRANCH   3  14
ATOM     14  C   UNL     1       4.717   4.080   0.410  0.00  0.00    +0.049 C 
ATOM     15  C   UNL     1       4.928   5.520   0.658  0.00  0.00    +0.009 A 
ATOM     16  C   UNL     1       4.074   6.612   0.759  0.00  0.00    +0.025 A 
ATOM     17  C   UNL     1       4.595   7.870   1.004  0.00  0.00    +0.019 A 
ATOM     18  C   UNL     1       5.962   8.041   1.148  0.00  0.00    +0.017 A 
ATOM     19  C   UNL     1       6.824   6.967   1.050  0.00  0.00    +0.025 A 
ATOM     20  C   UNL     1       6.322   5.687   0.804  0.00  0.00    +0.042 A 
ATOM     21  N   UNL     1       6.943   4.483   0.665  0.00  0.00    -0.281 N 
ATOM     22  C   UNL     1       6.094   3.499   0.442  0.00  0.00    +0.249 C 
ATOM     23  O   UNL     1       6.382   2.323   0.286  0.00  0.00    -0.270 OA
ATOM     24 BR   UNL     1       3.438   9.359   1.143  0.00  0.00    -0.050 Br
ATOM     25  H   UNL     1       8.038   4.417   0.743  0.00  0.00    +0.155 HD
ENDBRANCH   3  14
BRANCH   1  30
ATOM     26  C   UNL     1       0.567  -1.518   2.115  0.00  0.00    +0.044 C 
ATOM     27  C   UNL     1       0.745  -0.182   1.441  0.00  0.00    -0.050 A 
ATOM     28  C   UNL     1       0.423   0.981   2.118  0.00  0.00    +0.005 A 
ATOM     29  C   UNL     1       0.585   2.206   1.503  0.00  0.00    +0.024 A 
ATOM     30  C   UNL     1       1.073   2.271   0.204  0.00  0.00    +0.043 A 
ATOM     31  C   UNL     1       1.397   1.101  -0.472  0.00  0.00    +0.024 A 
ATOM     32  C   UNL     1       1.232  -0.121   0.148  0.00  0.00    +0.005 A 
ENDBRANCH   1  30
TORSDOF 2
