REMARK  Name = ZINC20270914
REMARK  11 active torsions:
REMARK  status: ('A' for Active; 'I' for Inactive)
REMARK    1  A    between atoms: C_1  and  N_2
REMARK    2  A    between atoms: N_2  and  C_3
REMARK    3  A    between atoms: C_3  and  C_5
REMARK    4  A    between atoms: C_3  and  C_13
REMARK    5  A    between atoms: C_5  and  C_6
REMARK    6  A    between atoms: N_16  and  C_19
REMARK    7  A    between atoms: C_19  and  C_20
REMARK    8  A    between atoms: C_24  and  O_27
REMARK    9  A    between atoms: C_25  and  O_26
REMARK   10  A    between atoms: O_27  and  C_28
REMARK   11  A    between atoms: C_29  and  C_31
REMARK                            x       y       z     vdW  Elec       q    Type
REMARK                         _______ _______ _______ _____ _____    ______ ____
ROOT
ATOM      1  C   UNL     1       2.471   1.729  -0.582  0.00  0.00    +0.083 C 
ENDROOT
BRANCH   1   2
ATOM      2  C   UNL     1       3.540   1.605   0.506  0.00  0.00    +0.006 C 
ATOM      3  C   UNL     1       4.836   1.069  -0.109  0.00  0.00    -0.013 C 
ATOM      4  C   UNL     1       5.881   0.889   0.994  0.00  0.00    -0.078 C 
ATOM      5  N   UNL     1       5.373  -0.049   2.004  0.00  0.00    +0.382 N 
ATOM      6  C   UNL     1       4.155   0.467   2.641  0.00  0.00    -0.078 C 
ATOM      7  C   UNL     1       3.058   0.634   1.588  0.00  0.00    -0.013 C 
ATOM      8  H   UNL     1       5.112  -0.986   1.490  0.00  0.00    -0.081 HD
BRANCH   5   9
ATOM      9  C   UNL     1       6.404  -0.353   3.006  0.00  0.00    -0.039 C 
BRANCH   9  10
ATOM     10  C   UNL     1       7.710  -0.641   2.312  0.00  0.00    -0.019 A 
ATOM     11  C   UNL     1       8.117  -1.949   2.121  0.00  0.00    +0.005 A 
ATOM     12  C   UNL     1       9.314  -2.217   1.485  0.00  0.00    +0.004 A 
ATOM     13  C   UNL     1      10.110  -1.179   1.037  0.00  0.00    +0.049 A 
ATOM     14  C   UNL     1       9.708   0.133   1.224  0.00  0.00    +0.161 A 
ATOM     15  C   UNL     1       8.499   0.403   1.859  0.00  0.00    +0.160 A 
BRANCH  15  16
ATOM     16  O   UNL     1       8.097   1.689   2.041  0.00  0.00    -0.503 OA
ATOM     17  H   UNL     1       8.725   2.518   1.681  0.00  0.00    +0.292 HD
ENDBRANCH  15  16
BRANCH  14  18
ATOM     18  O   UNL     1      10.490   1.155   0.783  0.00  0.00    -0.491 OA
ATOM     19  C   UNL     1      11.714   0.802   0.136  0.00  0.00    +0.277 C 
ENDBRANCH  14  18
ENDBRANCH   9  10
ENDBRANCH   5   9
ENDBRANCH   1   2
BRANCH   1  21
ATOM     20  C   UNL     1       1.166   3.608   0.515  0.00  0.00    +0.132 C 
ATOM     21  N   UNL     1       1.230   2.235   0.008  0.00  0.00    -0.297 N 
ATOM     22  C   UNL     1       0.146   1.437   0.086  0.00  0.00    +0.253 C 
ATOM     23  O   UNL     1      -0.923   1.896   0.441  0.00  0.00    -0.269 OA
BRANCH  22  24
ATOM     24  C   UNL     1       0.255   0.017  -0.264  0.00  0.00    +0.074 A 
ATOM     25  C   UNL     1      -0.749  -0.928  -0.402  0.00  0.00    +0.021 A 
ATOM     26  C   UNL     1      -0.366  -2.201  -0.745  0.00  0.00    +0.008 A 
ATOM     27  C   UNL     1       0.954  -2.473  -0.919  0.00  0.00    +0.046 A 
ATOM     28  S   UNL     1       1.716  -0.946  -0.615  0.00  0.00    -0.092 S 
ENDBRANCH  22  24
ENDBRANCH   1  21
BRANCH   1  29
ATOM     29  C   UNL     1       2.954   2.699  -1.663  0.00  0.00    +0.060 C 
BRANCH  29  30
ATOM     30  C   UNL     1       2.100   2.545  -2.894  0.00  0.00    -0.010 A 
ATOM     31  C   UNL     1       2.423   1.596  -3.846  0.00  0.00    +0.006 A 
ATOM     32  C   UNL     1       1.636   1.451  -4.973  0.00  0.00    +0.000 A 
ATOM     33  C   UNL     1       0.531   2.262  -5.155  0.00  0.00    +0.003 A 
ATOM     34  C   UNL     1       0.209   3.215  -4.208  0.00  0.00    +0.038 A 
ATOM     35  C   UNL     1       0.994   3.358  -3.076  0.00  0.00    +0.127 A 
ATOM     36  F   UNL     1       0.681   4.290  -2.150  0.00  0.00    -0.205 F 
ENDBRANCH  29  30
ENDBRANCH   1  29
TORSDOF 9
