REMARK  Name = ZINC58960798
REMARK  9 active torsions:
REMARK  status: ('A' for Active; 'I' for Inactive)
REMARK    1  A    between atoms: C_1  and  C_2
REMARK    2  A    between atoms: C_5  and  O_32
REMARK    3  A    between atoms: C_6  and  N_8
REMARK    4  A    between atoms: C_9  and  C_11
REMARK    5  A    between atoms: C_11  and  C_13
REMARK    6  A    between atoms: C_11  and  S_14
REMARK    7  A    between atoms: S_14  and  C_15
REMARK    8  A    between atoms: C_17  and  C_25
REMARK    9  A    between atoms: C_19  and  C_21
REMARK                            x       y       z     vdW  Elec       q    Type
REMARK                         _______ _______ _______ _____ _____    ______ ____
ROOT
ATOM      1  C   UNL     1       1.195  -2.870   7.525  0.00  0.00    +0.190 A 
ATOM      2  N   UNL     1       1.690  -2.370   8.648  0.00  0.00    -0.222 NA
ATOM      3  C   UNL     1       1.872  -3.147   9.713  0.00  0.00    +0.076 A 
ATOM      4  C   UNL     1       1.533  -4.501   9.630  0.00  0.00    +0.060 A 
ATOM      5  C   UNL     1       1.020  -4.980   8.438  0.00  0.00    +0.148 A 
ATOM      6  N   UNL     1       0.861  -4.149   7.420  0.00  0.00    -0.218 NA
ENDROOT
BRANCH   3   7
ATOM      7  C   UNL     1       2.426  -2.585  10.968  0.00  0.00    +0.001 A 
ATOM      8  C   UNL     1       2.619  -3.408  12.077  0.00  0.00    +0.011 A 
ATOM      9  C   UNL     1       3.135  -2.880  13.243  0.00  0.00    +0.020 A 
ATOM     10  C   UNL     1       3.461  -1.536  13.312  0.00  0.00    +0.041 A 
ATOM     11  C   UNL     1       3.272  -0.715  12.214  0.00  0.00    +0.020 A 
ATOM     12  C   UNL     1       2.761  -1.234  11.041  0.00  0.00    +0.011 A 
ATOM     13 CL   UNL     1       4.109  -0.878  14.782  0.00  0.00    -0.084 Cl
ENDBRANCH   3   7
BRANCH   5  14
ATOM     14  C   UNL     1       0.641  -6.432   8.301  0.00  0.00    +0.434 C 
ATOM     15  F   UNL     1      -0.697  -6.602   8.672  0.00  0.00    -0.164 F 
ATOM     16  F   UNL     1       0.811  -6.836   6.973  0.00  0.00    -0.164 F 
ATOM     17  F   UNL     1       1.457  -7.207   9.132  0.00  0.00    -0.164 F 
ENDBRANCH   5  14
BRANCH   1  18
ATOM     18  S   UNL     1       0.969  -1.807   6.138  0.00  0.00    -0.074 S 
BRANCH  18  19
ATOM     19  C   UNL     1       0.279  -2.894   4.860  0.00  0.00    +0.137 C 
ATOM     20  C   UNL     1      -1.101  -3.388   5.301  0.00  0.00    +0.029 C 
BRANCH  19  22
ATOM     21  N   UNL     1       0.050  -2.795   2.399  0.00  0.00    -0.282 N 
ATOM     22  C   UNL     1       0.149  -2.130   3.568  0.00  0.00    +0.230 C 
ATOM     23  O   UNL     1       0.134  -0.917   3.579  0.00  0.00    -0.274 OA
ATOM     24  H   UNL     1      -0.002  -3.763   2.395  0.00  0.00    +0.155 HD
BRANCH  21  30
ATOM     25  C   UNL     1      -1.307   1.189  -0.143  0.00  0.00    +0.044 C 
ATOM     26  C   UNL     1      -0.627  -0.153  -0.071  0.00  0.00    -0.048 A 
ATOM     27  C   UNL     1      -0.029  -0.685  -1.199  0.00  0.00    +0.007 A 
ATOM     28  C   UNL     1       0.596  -1.917  -1.139  0.00  0.00    +0.047 A 
ATOM     29  C   UNL     1       0.625  -2.622   0.054  0.00  0.00    +0.138 A 
ATOM     30  C   UNL     1       0.024  -2.086   1.191  0.00  0.00    +0.076 A 
ATOM     31  C   UNL     1      -0.597  -0.847   1.124  0.00  0.00    +0.030 A 
BRANCH  29  32
ATOM     32  O   UNL     1       1.239  -3.834   0.115  0.00  0.00    -0.505 OA
ATOM     33  H   UNL     1       2.177  -3.788   0.347  0.00  0.00    +0.292 HD
ENDBRANCH  29  32
ENDBRANCH  21  30
ENDBRANCH  19  22
ENDBRANCH  18  19
ENDBRANCH   1  18
TORSDOF 7
