REMARK  Name = ZINC12170494
REMARK  9 active torsions:
REMARK  status: ('A' for Active; 'I' for Inactive)
REMARK    1  A    between atoms: N_13  and  C_16
REMARK    2  A    between atoms: C_16  and  C_17
REMARK    3  A    between atoms: C_22  and  C_23
REMARK    4  A    between atoms: C_22  and  N_77
REMARK    5  A    between atoms: C_23  and  C_25
REMARK    6  A    between atoms: C_23  and  O_39
REMARK    7  A    between atoms: C_25  and  O_26
REMARK    8  A    between atoms: O_26  and  C_27
REMARK    9  A    between atoms: C_30  and  C_33
REMARK                            x       y       z     vdW  Elec       q    Type
REMARK                         _______ _______ _______ _____ _____    ______ ____
ROOT
ATOM      1  C   UNL     1       2.830   0.899  -1.463  0.00  0.00    +0.003 C 
ATOM      2  C   UNL     1       1.811  -0.019  -2.143  0.00  0.00    -0.014 C 
ATOM      3  C   UNL     1       2.274  -0.318  -3.571  0.00  0.00    -0.078 C 
ATOM      4  C   UNL     1       4.599  -0.077  -2.930  0.00  0.00    -0.078 C 
ATOM      5  C   UNL     1       4.206   0.227  -1.483  0.00  0.00    -0.014 C 
ATOM      6  N   UNL     1       3.592  -0.986  -3.519  0.00  0.00    +0.381 N 
ATOM      7  H   UNL     1       3.517  -1.825  -2.933  0.00  0.00    -0.082 HD
ENDROOT
BRANCH   1   8
ATOM      8  C   UNL     1       2.405   1.151  -0.015  0.00  0.00    +0.120 C 
BRANCH   8  21
ATOM      9  C   UNL     1      -3.706   1.979   0.047  0.00  0.00    +0.001 A 
ATOM     10  C   UNL     1      -3.716   3.344   0.055  0.00  0.00    +0.008 A 
ATOM     11  C   UNL     1      -2.505   4.057   0.047  0.00  0.00    -0.016 A 
ATOM     12  C   UNL     1      -2.463   5.463   0.056  0.00  0.00    +0.008 A 
ATOM     13  C   UNL     1      -1.261   6.110   0.048  0.00  0.00    +0.001 A 
ATOM     14  C   UNL     1      -0.058   5.414   0.032  0.00  0.00    +0.014 A 
ATOM     15  C   UNL     1      -0.056   4.027   0.024  0.00  0.00    +0.046 A 
ATOM     16  C   UNL     1      -1.291   3.339   0.032  0.00  0.00    +0.006 A 
ATOM     17  C   UNL     1      -1.300   1.926   0.019  0.00  0.00    +0.046 A 
ATOM     18  C   UNL     1      -2.517   1.260   0.031  0.00  0.00    +0.014 A 
ATOM     19  C   UNL     1      -0.014   1.212   0.009  0.00  0.00    +0.254 C 
ATOM     20  O   UNL     1       0.002  -0.004   0.002  0.00  0.00    -0.270 OA
ATOM     21  N   UNL     1       1.145   1.897   0.001  0.00  0.00    -0.234 N 
ATOM     22  C   UNL     1       1.188   3.243   0.009  0.00  0.00    +0.254 C 
ATOM     23  O   UNL     1       2.262   3.814   0.002  0.00  0.00    -0.270 OA
ENDBRANCH   8  21
ENDBRANCH   1   8
BRANCH   6  24
ATOM     24  C   UNL     1       4.008  -1.386  -4.879  0.00  0.00    -0.044 C 
BRANCH  24  25
ATOM     25  C   UNL     1       2.842  -2.092  -5.573  0.00  0.00    +0.135 C 
BRANCH  25  26
ATOM     26  O   UNL     1       2.455  -3.236  -4.809  0.00  0.00    -0.390 OA
ATOM     27  H   UNL     1       3.159  -3.890  -4.697  0.00  0.00    +0.210 HD
ENDBRANCH  25  26
BRANCH  25  28
ATOM     28  C   UNL     1       3.273  -2.535  -6.973  0.00  0.00    +0.258 C 
BRANCH  28  29
ATOM     29  O   UNL     1       2.152  -3.089  -7.664  0.00  0.00    -0.489 OA
BRANCH  29  30
ATOM     30  C   UNL     1       2.366  -3.534  -8.930  0.00  0.00    +0.121 A 
ATOM     31  C   UNL     1       3.628  -3.434  -9.497  0.00  0.00    +0.046 A 
ATOM     32  C   UNL     1       3.844  -3.893 -10.782  0.00  0.00    +0.007 A 
ATOM     33  C   UNL     1       2.801  -4.441 -11.507  0.00  0.00    -0.044 A 
ATOM     34  C   UNL     1       1.542  -4.536 -10.945  0.00  0.00    +0.007 A 
ATOM     35  C   UNL     1       1.321  -4.085  -9.659  0.00  0.00    +0.046 A 
BRANCH  33  36
ATOM     36  C   UNL     1       3.039  -4.934 -12.911  0.00  0.00    +0.019 C 
ATOM     37  C   UNL     1       4.097  -6.039 -12.891  0.00  0.00    +0.008 C 
ATOM     38  C   UNL     1       4.338  -6.540 -14.316  0.00  0.00    +0.001 C 
ATOM     39  C   UNL     1       4.826  -5.382 -15.188  0.00  0.00    +0.000 C 
ATOM     40  C   UNL     1       3.768  -4.277 -15.208  0.00  0.00    +0.001 C 
ATOM     41  C   UNL     1       3.527  -3.776 -13.783  0.00  0.00    +0.008 C 
ENDBRANCH  33  36
ENDBRANCH  29  30
ENDBRANCH  28  29
ENDBRANCH  25  28
ENDBRANCH  24  25
ENDBRANCH   6  24
TORSDOF 9
