REMARK  Name = ZINC05202478
REMARK  11 active torsions:
REMARK  status: ('A' for Active; 'I' for Inactive)
REMARK    1  A    between atoms: C_1  and  C_2
REMARK    2  A    between atoms: C_2  and  C_3
REMARK    3  A    between atoms: C_3  and  C_4
REMARK    4  A    between atoms: C_4  and  N_62
REMARK    5  A    between atoms: C_5  and  C_6
REMARK    6  A    between atoms: C_5  and  N_62
REMARK    7  A    between atoms: C_6  and  C_7
REMARK    8  A    between atoms: C_7  and  C_8
REMARK    9  A    between atoms: C_9  and  N_10
REMARK   10  A    between atoms: C_9  and  N_62
REMARK   11  A    between atoms: N_18  and  C_19
REMARK                            x       y       z     vdW  Elec       q    Type
REMARK                         _______ _______ _______ _____ _____    ______ ____
ROOT
ATOM      1  N   UNL     1       2.116   0.280  -0.056  0.00  0.00    -0.282 N 
ATOM      2  C   UNL     1       1.514  -0.971  -0.141  0.00  0.00    +0.044 A 
ATOM      3  C   UNL     1       2.053  -2.250  -0.219  0.00  0.00    +0.024 A 
ATOM      4  C   UNL     1       1.222  -3.350  -0.296  0.00  0.00    +0.002 A 
ATOM      5  C   UNL     1      -0.154  -3.196  -0.295  0.00  0.00    +0.001 A 
ATOM      6  C   UNL     1      -0.709  -1.934  -0.218  0.00  0.00    +0.012 A 
ATOM      7  C   UNL     1       0.121  -0.819  -0.141  0.00  0.00    +0.027 A 
ATOM      8  C   UNL     1      -0.142   0.633  -0.049  0.00  0.00    +0.135 C 
ATOM      9  N   UNL     1      -1.308   1.234  -0.024  0.00  0.00    -0.242 NA
ATOM     10  C   UNL     1       1.201   1.263   0.001  0.00  0.00    +0.268 C 
ATOM     11  O   UNL     1       1.432   2.454   0.079  0.00  0.00    -0.268 OA
ENDROOT
BRANCH   9  12
ATOM     12  C   UNL     1      -1.373   2.588   0.064  0.00  0.00    +0.065 A 
ATOM     13  C   UNL     1      -0.551   3.272   0.985  0.00  0.00    +0.028 A 
ATOM     14  C   UNL     1      -0.599   4.622   1.089  0.00  0.00    +0.010 A 
ATOM     15  C   UNL     1      -1.475   5.363   0.272  0.00  0.00    -0.018 A 
ATOM     16  C   UNL     1      -1.538   6.763   0.364  0.00  0.00    +0.008 A 
ATOM     17  C   UNL     1      -2.395   7.454  -0.439  0.00  0.00    +0.001 A 
ATOM     18  C   UNL     1      -3.213   6.794  -1.353  0.00  0.00    +0.001 A 
ATOM     19  C   UNL     1      -3.179   5.439  -1.471  0.00  0.00    +0.008 A 
ATOM     20  C   UNL     1      -2.307   4.691  -0.659  0.00  0.00    -0.016 A 
ATOM     21  C   UNL     1      -2.244   3.294  -0.760  0.00  0.00    +0.036 A 
ENDBRANCH   9  12
BRANCH   1  22
ATOM     22  C   UNL     1       3.564   0.499  -0.031  0.00  0.00    +0.039 C 
BRANCH  22  23
ATOM     23  N   UNL     1       4.043   0.645  -1.422  0.00  0.00    +0.390 N 
ATOM     24  H   UNL     1       3.463   0.061  -2.037  0.00  0.00    -0.080 HD
BRANCH  23  25
ATOM     25  C   UNL     1       3.928   2.055  -1.851  0.00  0.00    -0.077 C 
BRANCH  25  26
ATOM     26  C   UNL     1       4.835   2.949  -1.003  0.00  0.00    -0.019 C 
BRANCH  26  28
ATOM     27  C   UNL     1       5.687   5.276  -0.687  0.00  0.00    +0.004 C 
ATOM     28  C   UNL     1       4.780   4.382  -1.535  0.00  0.00    -0.005 C 
ENDBRANCH  26  28
ENDBRANCH  25  26
ENDBRANCH  23  25
BRANCH  23  29
ATOM     29  C   UNL     1       5.449   0.199  -1.522  0.00  0.00    -0.077 C 
BRANCH  29  30
ATOM     30  C   UNL     1       5.874   0.232  -2.991  0.00  0.00    -0.019 C 
BRANCH  30  31
ATOM     31  C   UNL     1       7.276  -0.367  -3.129  0.00  0.00    -0.005 C 
ATOM     32  C   UNL     1       7.702  -0.335  -4.598  0.00  0.00    +0.004 C 
ENDBRANCH  30  31
ENDBRANCH  29  30
ENDBRANCH  23  29
ENDBRANCH  22  23
ENDBRANCH   1  22
TORSDOF 9
