REMARK  Name = ZINC13222471
REMARK  12 active torsions:
REMARK  status: ('A' for Active; 'I' for Inactive)
REMARK    1  A    between atoms: C_1  and  C_2
REMARK    2  A    between atoms: C_3  and  C_32
REMARK    3  A    between atoms: C_4  and  C_31
REMARK    4  A    between atoms: C_9  and  S_11
REMARK    5  A    between atoms: S_11  and  C_12
REMARK    6  A    between atoms: C_12  and  C_13
REMARK    7  A    between atoms: N_15  and  C_16
REMARK    8  A    between atoms: C_16  and  C_18
REMARK    9  A    between atoms: C_16  and  C_28
REMARK   10  A    between atoms: C_28  and  C_29
REMARK   11  A    between atoms: C_28  and  C_30
REMARK   12  A    between atoms: C_32  and  C_33
REMARK                            x       y       z     vdW  Elec       q    Type
REMARK                         _______ _______ _______ _____ _____    ______ ____
ROOT
ATOM      1  C   UNL     1      -5.643  -0.864   1.476  0.00  0.00    +0.224 C 
ATOM      2  O   UNL     1      -5.749  -2.048   1.237  0.00  0.00    -0.275 OA
ATOM      3  N   UNL     1      -4.647  -0.149   0.915  0.00  0.00    -0.308 N 
ATOM      4  H   UNL     1      -4.563   0.798   1.107  0.00  0.00    +0.149 HD
ENDROOT
BRANCH   1   5
ATOM      5  C   UNL     1      -6.626  -0.191   2.399  0.00  0.00    +0.173 C 
BRANCH   5   6
ATOM      6  S   UNL     1      -7.836  -1.409   2.986  0.00  0.00    -0.075 S 
BRANCH   6  15
ATOM      7  C   UNL     1     -11.394   3.851   7.093  0.00  0.00    +0.066 C 
ATOM      8  C   UNL     1     -11.074   2.508   6.489  0.00  0.00    +0.047 A 
ATOM      9  C   UNL     1     -11.872   1.399   6.793  0.00  0.00    +0.006 A 
ATOM     10  C   UNL     1     -11.572   0.195   6.241  0.00  0.00    +0.049 A 
ATOM     11  N   UNL     1     -10.503   0.099   5.408  0.00  0.00    -0.200 N 
ATOM     12  C   UNL     1      -9.744   1.201   5.131  0.00  0.00    +0.254 A 
ATOM     13  N   UNL     1     -10.047   2.384   5.678  0.00  0.00    -0.216 NA
ATOM     14  N   UNL     1      -8.777   0.819   4.304  0.00  0.00    -0.183 NA
ATOM     15  C   UNL     1      -8.899  -0.480   4.039  0.00  0.00    +0.211 A 
ATOM     16  N   UNL     1      -9.937  -0.965   4.693  0.00  0.00    -0.137 NA
ATOM     17  C   UNL     1     -12.412  -1.018   6.549  0.00  0.00    +0.066 C 
BRANCH   9  18
ATOM     18  C   UNL     1     -13.051   1.540   7.721  0.00  0.00    +0.163 C 
BRANCH  18  19
ATOM     19  C   UNL     1     -12.606   1.288   9.139  0.00  0.00    +0.360 C 
ATOM     20  O   UNL     1     -11.451   1.021   9.372  0.00  0.00    -0.246 OA
ATOM     21  O   UNL     1     -13.494   1.359  10.143  0.00  0.00    -0.246 OA
ENDBRANCH  18  19
ENDBRANCH   9  18
ENDBRANCH   6  15
ENDBRANCH   5   6
ENDBRANCH   1   5
BRANCH   3  22
ATOM     22  C   UNL     1      -3.692  -0.803   0.018  0.00  0.00    +0.106 C 
BRANCH  22  23
ATOM     23  C   UNL     1      -2.397  -0.033   0.016  0.00  0.00    -0.023 A 
ATOM     24  C   UNL     1      -2.415   1.349   0.026  0.00  0.00    +0.009 A 
ATOM     25  C   UNL     1      -1.229   2.059   0.019  0.00  0.00    +0.050 A 
ATOM     26  C   UNL     1      -0.017   1.385   0.010  0.00  0.00    +0.162 A 
ATOM     27  C   UNL     1       0.002  -0.004   0.002  0.00  0.00    +0.162 A 
ATOM     28  C   UNL     1      -1.192  -0.710   0.004  0.00  0.00    +0.055 A 
ATOM     29  O   UNL     1       1.181  -0.685  -0.007  0.00  0.00    -0.485 OA
ATOM     30  C   UNL     1       2.347   0.053  -0.387  0.00  0.00    +0.270 C 
ATOM     31  C   UNL     1       2.334   1.392   0.364  0.00  0.00    +0.270 C 
ATOM     32  O   UNL     1       1.143   2.098   0.002  0.00  0.00    -0.485 OA
ENDBRANCH  22  23
BRANCH  22  33
ATOM     33  C   UNL     1      -4.266  -0.838  -1.400  0.00  0.00    +0.008 C 
ATOM     34  C   UNL     1      -3.269  -1.521  -2.338  0.00  0.00    +0.009 C 
ATOM     35  C   UNL     1      -5.582  -1.620  -1.398  0.00  0.00    +0.009 C 
ENDBRANCH  22  33
ENDBRANCH   3  22
TORSDOF 8
