REMARK  Name = ZINC20286936
REMARK  9 active torsions:
REMARK  status: ('A' for Active; 'I' for Inactive)
REMARK    1  A    between atoms: C_1  and  C_2
REMARK    2  A    between atoms: C_2  and  C_3
REMARK    3  A    between atoms: C_3  and  C_4
REMARK    4  A    between atoms: C_10  and  C_11
REMARK    5  A    between atoms: C_10  and  N_12
REMARK    6  A    between atoms: N_12  and  N_13
REMARK    7  A    between atoms: C_14  and  C_16
REMARK    8  A    between atoms: C_16  and  C_17
REMARK    9  A    between atoms: C_16  and  C_23
REMARK                            x       y       z     vdW  Elec       q    Type
REMARK                         _______ _______ _______ _____ _____    ______ ____
ROOT
ATOM      1  C   UNL     1      -2.263  -2.929   2.307  0.00  0.00    +0.074 C 
ATOM      2  N   UNL     1      -1.422  -3.755   2.850  0.00  0.00    -0.174 NA
ATOM      3  N   UNL     1      -2.077  -4.850   3.412  0.00  0.00    -0.132 N 
ATOM      4  C   UNL     1      -3.408  -4.739   3.228  0.00  0.00    +0.275 C 
ATOM      5  O   UNL     1      -4.267  -5.523   3.594  0.00  0.00    -0.268 OA
ATOM      6  C   UNL     1      -3.613  -3.479   2.503  0.00  0.00    +0.080 C 
ATOM      7  C   UNL     1      -4.816  -2.930   2.091  0.00  0.00    +0.033 C 
ATOM      8  C   UNL     1      -6.096  -3.705   2.263  0.00  0.00    +0.063 C 
ATOM      9  C   UNL     1      -1.450  -5.902   4.064  0.00  0.00    +0.189 A 
ATOM     10  N   UNL     1      -1.986  -6.968   4.612  0.00  0.00    -0.223 NA
ATOM     11  C   UNL     1      -1.247  -7.922   5.218  0.00  0.00    +0.080 A 
ATOM     12  C   UNL     1      -1.697  -9.109   5.843  0.00  0.00    +0.029 A 
ATOM     13  C   UNL     1      -0.806  -9.978   6.417  0.00  0.00    +0.002 A 
ATOM     14  C   UNL     1       0.559  -9.728   6.409  0.00  0.00    +0.001 A 
ATOM     15  C   UNL     1       1.033  -8.578   5.807  0.00  0.00    +0.017 A 
ATOM     16  C   UNL     1       0.149  -7.701   5.229  0.00  0.00    +0.041 A 
ATOM     17  S   UNL     1       0.294  -6.155   4.365  0.00  0.00    -0.050 S 
ENDROOT
BRANCH   7  18
ATOM     18  N   UNL     1      -4.840  -1.701   1.535  0.00  0.00    -0.268 N 
ATOM     19  H   UNL     1      -4.009  -1.237   1.347  0.00  0.00    +0.170 HD
BRANCH  18  20
ATOM     20  N   UNL     1      -6.066  -1.095   1.230  0.00  0.00    -0.236 N 
ATOM     21  C   UNL     1      -6.090   0.085   0.579  0.00  0.00    +0.241 C 
ATOM     22  O   UNL     1      -5.057   0.580   0.181  0.00  0.00    -0.273 OA
ATOM     23  H   UNL     1      -6.897  -1.524   1.486  0.00  0.00    +0.173 HD
BRANCH  21  24
ATOM     24  C   UNL     1      -7.402   0.791   0.347  0.00  0.00    +0.136 C 
BRANCH  24  25
ATOM     25  C   UNL     1      -7.144   2.137  -0.279  0.00  0.00    -0.031 A 
ATOM     26  C   UNL     1      -6.595   2.217  -1.545  0.00  0.00    +0.005 A 
ATOM     27  C   UNL     1      -6.359   3.452  -2.119  0.00  0.00    +0.000 A 
ATOM     28  C   UNL     1      -6.671   4.607  -1.427  0.00  0.00    +0.000 A 
ATOM     29  C   UNL     1      -7.221   4.527  -0.161  0.00  0.00    +0.000 A 
ATOM     30  C   UNL     1      -7.461   3.292   0.411  0.00  0.00    +0.005 A 
ENDBRANCH  24  25
BRANCH  24  31
ATOM     31  C   UNL     1      -8.260  -0.036  -0.575  0.00  0.00    -0.031 A 
ATOM     32  C   UNL     1      -7.716  -0.578  -1.725  0.00  0.00    +0.005 A 
ATOM     33  C   UNL     1      -8.504  -1.336  -2.571  0.00  0.00    +0.000 A 
ATOM     34  C   UNL     1      -9.835  -1.553  -2.267  0.00  0.00    +0.000 A 
ATOM     35  C   UNL     1     -10.378  -1.012  -1.117  0.00  0.00    +0.000 A 
ATOM     36  C   UNL     1      -9.590  -0.257  -0.269  0.00  0.00    +0.005 A 
ENDBRANCH  24  31
ENDBRANCH  21  24
ENDBRANCH  18  20
ENDBRANCH   7  18
BRANCH   1  37
ATOM     37  C   UNL     1      -1.920  -1.640   1.607  0.00  0.00    +0.057 C 
BRANCH  37  39
ATOM     38  C   UNL     1      -0.052  -0.118   0.944  0.00  0.00    +0.004 C 
ATOM     39  C   UNL     1      -0.399  -1.478   1.552  0.00  0.00    +0.003 C 
ENDBRANCH  37  39
ENDBRANCH   1  37
TORSDOF 7
