REMARK  Name = ZINC38687554
REMARK  13 active torsions:
REMARK  status: ('A' for Active; 'I' for Inactive)
REMARK    1  A    between atoms: C_1  and  C_2
REMARK    2  A    between atoms: C_2  and  C_3
REMARK    3  A    between atoms: C_3  and  C_4
REMARK    4  A    between atoms: C_4  and  O_5
REMARK    5  A    between atoms: O_5  and  C_6
REMARK    6  A    between atoms: C_9  and  C_12
REMARK    7  A    between atoms: C_17  and  O_26
REMARK    8  A    between atoms: C_21  and  N_25
REMARK    9  A    between atoms: C_22  and  C_23
REMARK   10  A    between atoms: O_26  and  C_27
REMARK   11  A    between atoms: C_27  and  C_29
REMARK   12  A    between atoms: C_30  and  C_39
REMARK   13  A    between atoms: C_34  and  C_38
REMARK                            x       y       z     vdW  Elec       q    Type
REMARK                         _______ _______ _______ _____ _____    ______ ____
ROOT
ATOM      1  C   UNL     1      -3.458  -8.184   0.027  0.00  0.00    +0.098 C 
ATOM      2  C   UNL     1      -4.210  -8.583  -1.215  0.00  0.00    +0.008 A 
ATOM      3  C   UNL     1      -3.578  -8.514  -2.444  0.00  0.00    +0.012 A 
ATOM      4  C   UNL     1      -4.252  -8.877  -3.594  0.00  0.00    +0.047 A 
ATOM      5  C   UNL     1      -5.568  -9.312  -3.518  0.00  0.00    +0.136 A 
ATOM      6  C   UNL     1      -6.203  -9.381  -2.289  0.00  0.00    +0.093 A 
ATOM      7  C   UNL     1      -5.524  -9.016  -1.134  0.00  0.00    +0.138 A 
ATOM      8  O   UNL     1      -6.160  -9.089   0.061  0.00  0.00    -0.441 OA
ATOM      9  C   UNL     1      -5.446  -9.123   1.199  0.00  0.00    +0.199 C 
ATOM     10  C   UNL     1      -4.162  -8.707   1.248  0.00  0.00    +0.098 C 
ENDROOT
BRANCH   1  14
ATOM     11  C   UNL     1      -3.237  -3.921   0.239  0.00  0.00    +0.121 A 
ATOM     12  C   UNL     1      -2.074  -4.675   0.179  0.00  0.00    +0.046 A 
ATOM     13  C   UNL     1      -2.148  -6.053   0.111  0.00  0.00    +0.008 A 
ATOM     14  C   UNL     1      -3.380  -6.681   0.102  0.00  0.00    -0.034 A 
ATOM     15  C   UNL     1      -4.540  -5.931   0.162  0.00  0.00    +0.008 A 
ATOM     16  C   UNL     1      -4.471  -4.554   0.236  0.00  0.00    +0.046 A 
BRANCH  11  17
ATOM     17  O   UNL     1      -3.166  -2.566   0.307  0.00  0.00    -0.492 OA
BRANCH  17  18
ATOM     18  C   UNL     1      -1.862  -1.983   0.306  0.00  0.00    +0.229 C 
BRANCH  18  19
ATOM     19  C   UNL     1      -1.983  -0.460   0.387  0.00  0.00    +0.041 C 
BRANCH  19  21
ATOM     20  C   UNL     1      -0.708   1.687   0.466  0.00  0.00    +0.004 C 
ATOM     21  C   UNL     1      -0.586   0.164   0.385  0.00  0.00    -0.000 C 
ENDBRANCH  19  21
ENDBRANCH  18  19
ENDBRANCH  17  18
ENDBRANCH  11  17
ENDBRANCH   1  14
BRANCH   9  22
ATOM     22  N   UNL     1      -6.040  -9.592   2.344  0.00  0.00    -0.328 N 
ATOM     23  H   UNL     1      -6.962  -9.893   2.324  0.00  0.00    +0.145 HD
ATOM     24  H   UNL     1      -5.538  -9.623   3.173  0.00  0.00    +0.145 HD
ENDBRANCH   9  22
BRANCH  10  25
ATOM     25  C   UNL     1      -3.456  -8.768   2.492  0.00  0.00    +0.101 C 
ATOM     26  N   UNL     1      -2.897  -8.816   3.480  0.00  0.00    -0.191 NA
ENDBRANCH  10  25
BRANCH   5  27
ATOM     27  O   UNL     1      -6.232  -9.669  -4.649  0.00  0.00    -0.420 OA
BRANCH  27  28
ATOM     28  C   UNL     1      -7.237  -8.874  -5.071  0.00  0.00    +0.380 C 
ATOM     29  O   UNL     1      -7.457  -7.821  -4.505  0.00  0.00    -0.241 OA
BRANCH  28  30
ATOM     30  C   UNL     1      -8.065  -9.282  -6.212  0.00  0.00    +0.216 A 
ATOM     31  C   UNL     1      -9.098  -8.562  -6.726  0.00  0.00    +0.010 A 
ATOM     32  C   UNL     1      -9.624  -9.349  -7.840  0.00  0.00    +0.024 A 
ATOM     33  C   UNL     1     -10.663  -9.165  -8.757  0.00  0.00    +0.012 A 
ATOM     34  C   UNL     1     -10.904 -10.118  -9.706  0.00  0.00    +0.004 A 
ATOM     35  C   UNL     1     -10.125 -11.265  -9.765  0.00  0.00    -0.047 A 
ATOM     36  C   UNL     1      -9.096 -11.465  -8.871  0.00  0.00    +0.050 A 
ATOM     37  C   UNL     1      -8.831 -10.510  -7.896  0.00  0.00    +0.137 A 
ATOM     38  O   UNL     1      -7.914 -10.425  -6.913  0.00  0.00    -0.448 OA
ATOM     39  C   UNL     1     -10.409 -12.305 -10.819  0.00  0.00    +0.044 C 
ATOM     40  C   UNL     1      -9.599  -7.226  -6.244  0.00  0.00    +0.048 C 
ENDBRANCH  28  30
ENDBRANCH  27  28
ENDBRANCH   5  27
TORSDOF 10
