REMARK  Name = ZINC39559001
REMARK  8 active torsions:
REMARK  status: ('A' for Active; 'I' for Inactive)
REMARK    1  A    between atoms: C_4  and  C_7
REMARK    2  A    between atoms: C_8  and  C_33
REMARK    3  A    between atoms: C_10  and  C_12
REMARK    4  A    between atoms: C_12  and  C_13
REMARK    5  A    between atoms: C_13  and  C_14
REMARK    6  A    between atoms: N_16  and  C_17
REMARK    7  A    between atoms: C_17  and  C_18
REMARK    8  A    between atoms: N_20  and  C_21
REMARK                            x       y       z     vdW  Elec       q    Type
REMARK                         _______ _______ _______ _____ _____    ______ ____
ROOT
ATOM      1  C   UNL     1       9.291  -0.011  -0.824  0.00  0.00    +0.214 C 
ATOM      2  O   UNL     1       9.605  -0.697  -1.774  0.00  0.00    -0.276 OA
ATOM      3  N   UNL     1      10.240   0.632  -0.115  0.00  0.00    -0.307 N 
ATOM      4  H   UNL     1       9.989   1.181   0.645  0.00  0.00    +0.149 HD
ENDROOT
BRANCH   1   5
ATOM      5  C   UNL     1       7.841   0.122  -0.438  0.00  0.00    +0.105 C 
BRANCH   5   6
ATOM      6  C   UNL     1       6.980  -0.701  -1.398  0.00  0.00    +0.105 C 
BRANCH   6  10
ATOM      7  C   UNL     1       3.500   0.157  -0.899  0.00  0.00    +0.117 A 
ATOM      8  C   UNL     1       3.605  -0.936  -0.064  0.00  0.00    +0.163 A 
ATOM      9  O   UNL     1       4.882  -1.368  -0.154  0.00  0.00    -0.439 OA
ATOM     10  C   UNL     1       5.529  -0.568  -1.011  0.00  0.00    +0.197 A 
ATOM     11  N   UNL     1       4.713   0.339  -1.463  0.00  0.00    -0.213 NA
BRANCH   7  15
ATOM     12  C   UNL     1       0.018   2.497  -1.578  0.00  0.00    +0.000 A 
ATOM     13  C   UNL     1       0.332   2.086  -0.295  0.00  0.00    +0.001 A 
ATOM     14  C   UNL     1       1.461   1.326  -0.068  0.00  0.00    +0.010 A 
ATOM     15  C   UNL     1       2.286   0.972  -1.135  0.00  0.00    +0.004 A 
ATOM     16  C   UNL     1       1.964   1.390  -2.427  0.00  0.00    +0.010 A 
ATOM     17  C   UNL     1       0.833   2.150  -2.641  0.00  0.00    +0.001 A 
ENDBRANCH   7  15
BRANCH   8  18
ATOM     18  C   UNL     1       2.532  -1.520   0.766  0.00  0.00    +0.019 A 
ATOM     19  C   UNL     1       1.276  -1.774   0.211  0.00  0.00    +0.011 A 
ATOM     20  C   UNL     1       0.278  -2.319   0.992  0.00  0.00    +0.001 A 
ATOM     21  C   UNL     1       0.519  -2.614   2.322  0.00  0.00    +0.000 A 
ATOM     22  C   UNL     1       1.761  -2.364   2.878  0.00  0.00    +0.001 A 
ATOM     23  C   UNL     1       2.770  -1.825   2.108  0.00  0.00    +0.011 A 
ENDBRANCH   8  18
ENDBRANCH   6  10
ENDBRANCH   5   6
ENDBRANCH   1   5
BRANCH   3  24
ATOM     24  C   UNL     1      11.650   0.502  -0.490  0.00  0.00    +0.200 C 
BRANCH  24  25
ATOM     25  C   UNL     1      12.498   1.313   0.455  0.00  0.00    +0.234 C 
ATOM     26  O   UNL     1      11.976   1.938   1.354  0.00  0.00    -0.274 OA
ATOM     27  N   UNL     1      13.837   1.344   0.301  0.00  0.00    -0.284 N 
ATOM     28  H   UNL     1      14.248   0.907  -0.460  0.00  0.00    +0.155 HD
BRANCH  27  29
ATOM     29  C   UNL     1      14.635   2.009   1.242  0.00  0.00    +0.036 A 
ATOM     30  C   UNL     1      15.792   2.661   0.833  0.00  0.00    +0.025 A 
ATOM     31  C   UNL     1      16.582   3.318   1.754  0.00  0.00    +0.029 A 
ATOM     32  C   UNL     1      16.222   3.328   3.093  0.00  0.00    +0.067 A 
ATOM     33  C   UNL     1      15.060   2.673   3.507  0.00  0.00    +0.069 A 
ATOM     34  C   UNL     1      14.265   2.020   2.579  0.00  0.00    +0.051 A 
ATOM     35  N   UNL     1      14.964   2.856   4.885  0.00  0.00    -0.306 N 
ATOM     36  H   UNL     1      14.257   2.515   5.455  0.00  0.00    +0.170 HD
ATOM     37  C   UNL     1      16.018   3.588   5.291  0.00  0.00    +0.325 A 
ATOM     38  O   UNL     1      16.236   3.926   6.439  0.00  0.00    -0.247 OA
ATOM     39  N   UNL     1      16.796   3.888   4.234  0.00  0.00    -0.306 N 
ATOM     40  H   UNL     1      17.616   4.406   4.261  0.00  0.00    +0.170 HD
ENDBRANCH  27  29
ENDBRANCH  24  25
ENDBRANCH   3  24
TORSDOF 8
