REMARK  Name = ZINC58894147
REMARK  15 active torsions:
REMARK  status: ('A' for Active; 'I' for Inactive)
REMARK    1  A    between atoms: C_1  and  C_2
REMARK    2  A    between atoms: C_2  and  O_3
REMARK    3  A    between atoms: O_3  and  C_4
REMARK    4  A    between atoms: C_7  and  C_10
REMARK    5  A    between atoms: C_10  and  C_12
REMARK    6  A    between atoms: C_10  and  O_33
REMARK    7  A    between atoms: C_12  and  C_13
REMARK    8  A    between atoms: C_13  and  C_14
REMARK    9  A    between atoms: N_16  and  N_17
REMARK   10  A    between atoms: C_18  and  C_19
REMARK   11  A    between atoms: C_21  and  O_31
REMARK   12  A    between atoms: C_22  and  O_26
REMARK   13  A    between atoms: O_26  and  C_27
REMARK   14  A    between atoms: C_27  and  C_28
REMARK   15  A    between atoms: O_31  and  C_32
REMARK                            x       y       z     vdW  Elec       q    Type
REMARK                         _______ _______ _______ _____ _____    ______ ____
ROOT
ATOM      1  C   UNL     1      -0.589  -8.504  -4.396  0.00  0.00    +0.232 C 
ATOM      2  O   UNL     1      -1.518  -7.732  -4.506  0.00  0.00    -0.274 OA
ATOM      3  N   UNL     1      -0.755  -9.806  -4.700  0.00  0.00    -0.207 N 
ATOM      4  H   UNL     1      -0.012 -10.424  -4.612  0.00  0.00    +0.177 HD
ENDROOT
BRANCH   3   5
ATOM      5  N   UNL     1      -2.001 -10.268  -5.143  0.00  0.00    -0.188 NA
ATOM      6  C   UNL     1      -2.196 -11.539  -5.322  0.00  0.00    +0.138 C 
BRANCH   6   7
ATOM      7  C   UNL     1      -1.333 -12.520  -4.641  0.00  0.00    -0.001 A 
ATOM      8  C   UNL     1      -1.341 -13.859  -5.042  0.00  0.00    +0.059 A 
ATOM      9  C   UNL     1      -0.530 -14.775  -4.400  0.00  0.00    +0.163 A 
ATOM     10  C   UNL     1       0.294 -14.364  -3.354  0.00  0.00    +0.177 A 
ATOM     11  C   UNL     1       0.303 -13.035  -2.955  0.00  0.00    +0.064 A 
ATOM     12  C   UNL     1      -0.500 -12.114  -3.596  0.00  0.00    +0.028 A 
ATOM     13 BR   UNL     1       1.423 -12.485  -1.534  0.00  0.00    -0.046 Br
BRANCH   9  14
ATOM     14  O   UNL     1      -0.536 -16.079  -4.788  0.00  0.00    -0.491 OA
ATOM     15  C   UNL     1      -1.405 -16.430  -5.867  0.00  0.00    +0.277 C 
ENDBRANCH   9  14
BRANCH  10  16
ATOM     16  O   UNL     1       1.090 -15.267  -2.723  0.00  0.00    -0.476 OA
BRANCH  16  17
ATOM     17  C   UNL     1       2.404 -15.456  -3.253  0.00  0.00    +0.354 C 
BRANCH  17  18
ATOM     18  C   UNL     1       3.134 -16.486  -2.430  0.00  0.00    +0.393 C 
ATOM     19  O   UNL     1       2.581 -17.010  -1.479  0.00  0.00    -0.243 OA
ATOM     20  O   UNL     1       4.278 -16.795  -2.716  0.00  0.00    -0.243 OA
ENDBRANCH  17  18
ENDBRANCH  16  17
ENDBRANCH  10  16
ENDBRANCH   6   7
ENDBRANCH   3   5
BRANCH   1  21
ATOM     21  C   UNL     1       0.752  -8.007  -3.919  0.00  0.00    +0.100 C 
BRANCH  21  22
ATOM     22  C   UNL     1       0.670  -6.504  -3.645  0.00  0.00    +0.045 C 
BRANCH  22  23
ATOM     23  C   UNL     1       2.031  -5.999  -3.162  0.00  0.00    +0.145 C 
BRANCH  23  27
ATOM     24  C   UNL     1       1.716  -1.880  -2.066  0.00  0.00    +0.121 A 
ATOM     25  C   UNL     1       1.694  -2.863  -1.087  0.00  0.00    +0.046 A 
ATOM     26  C   UNL     1       1.795  -4.194  -1.444  0.00  0.00    +0.010 A 
ATOM     27  C   UNL     1       1.920  -4.546  -2.775  0.00  0.00    -0.019 A 
ATOM     28  C   UNL     1       1.944  -3.569  -3.752  0.00  0.00    +0.010 A 
ATOM     29  C   UNL     1       1.836  -2.237  -3.401  0.00  0.00    +0.046 A 
BRANCH  24  30
ATOM     30  O   UNL     1       1.616  -0.571  -1.718  0.00  0.00    -0.492 OA
BRANCH  30  32
ATOM     31  C   UNL     1       1.395   1.237  -0.128  0.00  0.00    +0.048 C 
ATOM     32  C   UNL     1       1.496  -0.277  -0.324  0.00  0.00    +0.225 C 
ENDBRANCH  30  32
ENDBRANCH  24  30
ENDBRANCH  23  27
BRANCH  23  33
ATOM     33  O   UNL     1       2.992  -6.141  -4.210  0.00  0.00    -0.387 OA
ATOM     34  H   UNL     1       2.774  -5.648  -5.013  0.00  0.00    +0.210 HD
ENDBRANCH  23  33
ENDBRANCH  22  23
ENDBRANCH  21  22
ENDBRANCH   1  21
TORSDOF 13
