REMARK  Name = ZINC39356758
REMARK  4 active torsions:
REMARK  status: ('A' for Active; 'I' for Inactive)
REMARK    1  A    between atoms: C_6  and  C_11
REMARK    2  A    between atoms: C_11  and  N_12
REMARK    3  A    between atoms: C_15  and  N_18
REMARK    4  A    between atoms: C_26  and  C_28
REMARK                            x       y       z     vdW  Elec       q    Type
REMARK                         _______ _______ _______ _____ _____    ______ ____
ROOT
ATOM      1  N   UNL     1      -6.515   0.395   1.444  0.00  0.00    +0.383 N 
ATOM      2  C   UNL     1      -6.165   1.595   2.212  0.00  0.00    -0.077 C 
ATOM      3  C   UNL     1      -6.582   1.411   3.672  0.00  0.00    +0.004 C 
ATOM      4  C   UNL     1      -8.094   1.182   3.741  0.00  0.00    +0.073 C 
ATOM      5  C   UNL     1      -8.457  -0.029   2.877  0.00  0.00    +0.004 C 
ATOM      6  C   UNL     1      -7.971   0.209   1.446  0.00  0.00    -0.077 C 
ATOM      7  H   UNL     1      -6.074  -0.410   1.863  0.00  0.00    -0.081 HD
ENDROOT
BRANCH   4   8
ATOM      8  N   UNL     1      -8.489   0.929   5.129  0.00  0.00    -0.291 N 
ATOM      9  C   UNL     1      -8.032  -0.110   5.940  0.00  0.00    +0.122 A 
ATOM     10  C   UNL     1      -8.632  -0.024   7.196  0.00  0.00    +0.067 A 
ATOM     11  C   UNL     1      -8.316  -0.969   8.165  0.00  0.00    +0.028 A 
ATOM     12  C   UNL     1      -7.408  -1.969   7.844  0.00  0.00    +0.019 A 
ATOM     13  C   UNL     1      -6.852  -1.994   6.581  0.00  0.00    +0.084 A 
ATOM     14  N   UNL     1      -7.170  -1.085   5.680  0.00  0.00    -0.348 N 
ATOM     15  N   UNL     1      -9.497   1.076   7.237  0.00  0.00    -0.321 N 
ATOM     16  C   UNL     1      -9.431   1.727   5.922  0.00  0.00    +0.189 C 
ATOM     17  H   UNL     1     -10.036   1.358   7.993  0.00  0.00    +0.148 HD
ATOM     18  H   UNL     1      -6.762  -1.131   4.801  0.00  0.00    +0.167 HD
BRANCH  16  19
ATOM     19  C   UNL     1     -10.813   1.720   5.264  0.00  0.00    +0.157 C 
ATOM     20  C   UNL     1     -11.766   2.657   6.037  0.00  0.00    +0.037 C 
ATOM     21  C   UNL     1     -13.100   1.864   6.012  0.00  0.00    +0.031 C 
ATOM     22  C   UNL     1     -12.578   0.407   6.088  0.00  0.00    +0.160 C 
ATOM     23  O   UNL     1     -11.368   0.401   5.312  0.00  0.00    -0.373 OA
ENDBRANCH  16  19
ENDBRANCH   4   8
BRANCH   1  24
ATOM     24  C   UNL     1      -6.044   0.545   0.061  0.00  0.00    -0.025 C 
BRANCH  24  30
ATOM     25  C   UNL     1      -0.017   1.384   0.010  0.00  0.00    +0.001 A 
ATOM     26  C   UNL     1       0.002  -0.004   0.002  0.00  0.00    +0.002 A 
ATOM     27  C   UNL     1      -1.173  -0.723   0.009  0.00  0.00    +0.026 A 
ATOM     28  C   UNL     1      -2.392  -0.053   0.024  0.00  0.00    +0.047 A 
ATOM     29  N   UNL     1      -3.704  -0.472   0.034  0.00  0.00    -0.360 N 
ATOM     30  C   UNL     1      -4.539   0.612   0.047  0.00  0.00    +0.000 A 
ATOM     31  H   UNL     1      -3.993  -1.398   0.030  0.00  0.00    +0.166 HD
ATOM     32  C   UNL     1      -3.818   1.744   0.047  0.00  0.00    +0.029 A 
ATOM     33  C   UNL     1      -2.406   1.353   0.032  0.00  0.00    -0.000 A 
ATOM     34  C   UNL     1      -1.203   2.062   0.030  0.00  0.00    +0.010 A 
ENDBRANCH  24  30
ENDBRANCH   1  24
TORSDOF 4
