REMARK  Name = ZINC36302364
REMARK  17 active torsions:
REMARK  status: ('A' for Active; 'I' for Inactive)
REMARK    1  A    between atoms: C_1  and  C_2
REMARK    2  A    between atoms: C_3  and  C_22
REMARK    3  A    between atoms: C_4  and  O_13
REMARK    4  A    between atoms: N_5  and  C_7
REMARK    5  A    between atoms: O_13  and  C_14
REMARK    6  A    between atoms: C_17  and  O_20
REMARK    7  A    between atoms: O_20  and  C_21
REMARK    8  A    between atoms: C_22  and  N_23
REMARK    9  A    between atoms: N_23  and  C_24
REMARK   10  A    between atoms: N_23  and  C_35
REMARK   11  A    between atoms: C_24  and  C_25
REMARK   12  A    between atoms: C_25  and  C_27
REMARK   13  A    between atoms: C_25  and  O_34
REMARK   14  A    between atoms: C_27  and  C_28
REMARK   15  A    between atoms: C_35  and  C_36
REMARK   16  A    between atoms: C_36  and  C_37
REMARK   17  A    between atoms: C_36  and  C_38
REMARK                            x       y       z     vdW  Elec       q    Type
REMARK                         _______ _______ _______ _____ _____    ______ ____
ROOT
ATOM      1  C   UNL     1      -1.176   2.042  -0.004  0.00  0.00    +0.068 C 
ATOM      2  C   UNL     1      -0.458   0.743   0.256  0.00  0.00    +0.065 A 
ATOM      3  C   UNL     1       0.021  -0.137  -0.721  0.00  0.00    +0.021 A 
ATOM      4  C   UNL     1       0.605  -1.188  -0.086  0.00  0.00    +0.225 A 
ATOM      5  N   UNL     1       0.494  -0.970   1.252  0.00  0.00    -0.200 N 
ATOM      6  N   UNL     1      -0.171   0.249   1.433  0.00  0.00    -0.168 NA
ENDROOT
BRANCH   5   7
ATOM      7  C   UNL     1       0.965  -1.813   2.268  0.00  0.00    +0.069 A 
ATOM      8  C   UNL     1       0.791  -3.187   2.169  0.00  0.00    +0.028 A 
ATOM      9  C   UNL     1       1.256  -4.015   3.171  0.00  0.00    +0.002 A 
ATOM     10  C   UNL     1       1.896  -3.477   4.273  0.00  0.00    +0.000 A 
ATOM     11  C   UNL     1       2.071  -2.109   4.375  0.00  0.00    +0.002 A 
ATOM     12  C   UNL     1       1.613  -1.276   3.373  0.00  0.00    +0.028 A 
ENDBRANCH   5   7
BRANCH   4  13
ATOM     13  O   UNL     1       1.191  -2.259  -0.679  0.00  0.00    -0.438 OA
BRANCH  13  14
ATOM     14  C   UNL     1       0.399  -3.307  -1.030  0.00  0.00    +0.131 A 
ATOM     15  C   UNL     1      -0.977  -3.218  -0.877  0.00  0.00    +0.050 A 
ATOM     16  C   UNL     1      -1.782  -4.282  -1.234  0.00  0.00    +0.049 A 
ATOM     17  C   UNL     1      -1.214  -5.441  -1.744  0.00  0.00    +0.120 A 
ATOM     18  C   UNL     1       0.162  -5.530  -1.896  0.00  0.00    +0.049 A 
ATOM     19  C   UNL     1       0.966  -4.463  -1.545  0.00  0.00    +0.050 A 
BRANCH  17  20
ATOM     20  O   UNL     1      -2.006  -6.489  -2.094  0.00  0.00    -0.495 OA
ATOM     21  C   UNL     1      -1.354  -7.650  -2.612  0.00  0.00    +0.277 C 
ENDBRANCH  17  20
ENDBRANCH  13  14
ENDBRANCH   4  13
BRANCH   3  22
ATOM     22  C   UNL     1      -0.092   0.048  -2.212  0.00  0.00    -0.036 C 
BRANCH  22  23
ATOM     23  N   UNL     1       1.084   0.776  -2.706  0.00  0.00    +0.384 N 
ATOM     24  H   UNL     1       1.179   1.644  -2.199  0.00  0.00    -0.081 HD
BRANCH  23  25
ATOM     25  C   UNL     1       0.918   1.061  -4.137  0.00  0.00    -0.046 C 
BRANCH  25  26
ATOM     26  C   UNL     1      -0.251   2.028  -4.333  0.00  0.00    +0.102 C 
BRANCH  26  27
ATOM     27  O   UNL     1       0.025   3.253  -3.651  0.00  0.00    -0.393 OA
ATOM     28  H   UNL     1       0.779   3.741  -4.008  0.00  0.00    +0.210 HD
ENDBRANCH  26  27
BRANCH  26  29
ATOM     29  C   UNL     1      -0.438   2.306  -5.826  0.00  0.00    +0.064 C 
BRANCH  29  30
ATOM     30  C   UNL     1      -1.663   3.160  -6.028  0.00  0.00    -0.045 A 
ATOM     31  C   UNL     1      -2.897   2.565  -6.215  0.00  0.00    +0.004 A 
ATOM     32  C   UNL     1      -4.021   3.348  -6.401  0.00  0.00    +0.000 A 
ATOM     33  C   UNL     1      -3.911   4.726  -6.399  0.00  0.00    +0.000 A 
ATOM     34  C   UNL     1      -2.678   5.321  -6.211  0.00  0.00    +0.000 A 
ATOM     35  C   UNL     1      -1.554   4.538  -6.021  0.00  0.00    +0.004 A 
ENDBRANCH  29  30
ENDBRANCH  26  29
ENDBRANCH  25  26
ENDBRANCH  23  25
BRANCH  23  36
ATOM     36  C   UNL     1       2.287  -0.042  -2.505  0.00  0.00    -0.075 C 
BRANCH  36  37
ATOM     37  C   UNL     1       3.526   0.770  -2.887  0.00  0.00    -0.034 C 
ATOM     38  C   UNL     1       3.653   1.976  -1.954  0.00  0.00    +0.005 C 
ATOM     39  C   UNL     1       4.772  -0.109  -2.756  0.00  0.00    +0.005 C 
ENDBRANCH  36  37
ENDBRANCH  23  36
ENDBRANCH  22  23
ENDBRANCH   3  22
TORSDOF 13
