REMARK  Name = ZINC06321077
REMARK  9 active torsions:
REMARK  status: ('A' for Active; 'I' for Inactive)
REMARK    1  A    between atoms: C_1  and  C_2
REMARK    2  A    between atoms: C_6  and  C_15
REMARK    3  A    between atoms: C_13  and  C_14
REMARK    4  A    between atoms: C_15  and  C_17
REMARK    5  A    between atoms: C_15  and  N_61
REMARK    6  A    between atoms: N_21  and  C_22
REMARK    7  A    between atoms: C_22  and  C_23
REMARK    8  A    between atoms: C_23  and  O_24
REMARK    9  A    between atoms: O_24  and  C_25
REMARK                            x       y       z     vdW  Elec       q    Type
REMARK                         _______ _______ _______ _____ _____    ______ ____
ROOT
ATOM      1  C   UNL     1      -1.237   2.190   0.020  0.00  0.00    +0.039 C 
ENDROOT
BRANCH   1   7
ATOM      2  C   UNL     1      -3.170   5.570   6.380  0.00  0.00    +0.044 C 
ATOM      3  C   UNL     1      -3.110   4.340   5.511  0.00  0.00    -0.047 A 
ATOM      4  C   UNL     1      -2.538   4.414   4.272  0.00  0.00    +0.013 A 
ATOM      5  C   UNL     1      -2.483   3.273   3.466  0.00  0.00    -0.001 A 
ATOM      6  C   UNL     1      -1.873   3.316   2.135  0.00  0.00    +0.017 A 
ATOM      7  C   UNL     1      -1.852   2.179   1.396  0.00  0.00    +0.011 A 
ATOM      8  C   UNL     1      -2.399   0.985   1.912  0.00  0.00    +0.251 A 
ATOM      9  O   UNL     1      -2.365  -0.026   1.233  0.00  0.00    -0.268 OA
ATOM     10  N   UNL     1      -2.956   0.935   3.135  0.00  0.00    -0.322 N 
ATOM     11  H   UNL     1      -3.323   0.098   3.459  0.00  0.00    +0.169 HD
ATOM     12  C   UNL     1      -3.014   2.057   3.934  0.00  0.00    +0.049 A 
ATOM     13  C   UNL     1      -3.591   2.006   5.199  0.00  0.00    +0.030 A 
ATOM     14  C   UNL     1      -3.635   3.143   5.976  0.00  0.00    -0.046 A 
ATOM     15  C   UNL     1      -4.261   3.085   7.346  0.00  0.00    +0.044 C 
ENDBRANCH   1   7
BRANCH   1  25
ATOM     16  C   UNL     1      -1.653   1.705  -2.318  0.00  0.00    -0.072 C 
ATOM     17  C   UNL     1      -2.544   0.851  -3.220  0.00  0.00    +0.017 C 
ATOM     18  C   UNL     1      -3.985   1.263  -3.058  0.00  0.00    -0.048 A 
ATOM     19  C   UNL     1      -4.897   0.868  -4.025  0.00  0.00    +0.004 A 
ATOM     20  C   UNL     1      -6.228   1.217  -3.911  0.00  0.00    +0.000 A 
ATOM     21  C   UNL     1      -6.653   1.964  -2.828  0.00  0.00    +0.000 A 
ATOM     22  C   UNL     1      -5.745   2.359  -1.866  0.00  0.00    +0.002 A 
ATOM     23  C   UNL     1      -4.407   2.010  -1.980  0.00  0.00    -0.061 A 
ATOM     24  C   UNL     1      -3.453   2.468  -0.908  0.00  0.00    -0.041 C 
ATOM     25  N   UNL     1      -2.220   1.665  -0.955  0.00  0.00    +0.392 N 
ATOM     26  H   UNL     1      -2.443   0.693  -0.713  0.00  0.00    -0.080 HD
ENDBRANCH   1  25
BRANCH   1  27
ATOM     27  C   UNL     1      -0.016   1.306   0.009  0.00  0.00    +0.143 A 
ATOM     28  N   UNL     1       0.002  -0.004   0.002  0.00  0.00    -0.115 NA
ATOM     29  N   UNL     1       1.233  -0.385  -0.012  0.00  0.00    -0.023 NA
ATOM     30  N   UNL     1       2.000   0.648  -0.014  0.00  0.00    -0.044 NA
ATOM     31  N   UNL     1       1.268   1.710  -0.001  0.00  0.00    -0.228 N 
BRANCH  31  32
ATOM     32  C   UNL     1       1.745   3.096   0.002  0.00  0.00    +0.175 C 
BRANCH  32  33
ATOM     33  C   UNL     1       1.924   3.571   1.445  0.00  0.00    +0.183 C 
BRANCH  33  34
ATOM     34  O   UNL     1       2.389   4.922   1.447  0.00  0.00    -0.381 OA
ATOM     35  C   UNL     1       2.590   5.465   2.754  0.00  0.00    +0.194 C 
ENDBRANCH  33  34
ENDBRANCH  32  33
ENDBRANCH  31  32
ENDBRANCH   1  27
TORSDOF 6
