REMARK  Name = ZINC02917251
REMARK  6 active torsions:
REMARK  status: ('A' for Active; 'I' for Inactive)
REMARK    1  A    between atoms: C_1  and  C_2
REMARK    2  A    between atoms: C_14  and  C_17
REMARK    3  A    between atoms: N_15  and  C_16
REMARK    4  A    between atoms: C_24  and  C_25
REMARK    5  A    between atoms: C_24  and  C_31
REMARK    6  A    between atoms: C_24  and  N_66
REMARK                            x       y       z     vdW  Elec       q    Type
REMARK                         _______ _______ _______ _____ _____    ______ ____
ROOT
ATOM      1  C   UNL     1       3.633  -3.382  -0.453  0.00  0.00    +0.263 C 
ATOM      2  O   UNL     1       4.845  -3.454  -0.528  0.00  0.00    -0.268 OA
ATOM      3  N   UNL     1       2.903  -4.496  -0.250  0.00  0.00    -0.300 N 
ATOM      4  C   UNL     1       1.434  -4.460  -0.321  0.00  0.00    +0.089 C 
ATOM      5  C   UNL     1       0.970  -5.576  -1.270  0.00  0.00    -0.058 C 
ATOM      6  C   UNL     1       3.005  -6.842  -0.905  0.00  0.00    -0.058 C 
ATOM      7  C   UNL     1       3.553  -5.780   0.053  0.00  0.00    +0.089 C 
ATOM      8  N   UNL     1       1.530  -6.861  -0.800  0.00  0.00    +0.389 N 
ATOM      9  H   UNL     1       1.268  -6.998   0.183  0.00  0.00    -0.080 HD
ENDROOT
BRANCH   1  23
ATOM     10  C   UNL     1       2.756   3.874  -2.728  0.00  0.00    +0.047 C 
ATOM     11  C   UNL     1       1.577   3.418  -1.909  0.00  0.00    -0.007 A 
ATOM     12  C   UNL     1       0.540   4.267  -1.667  0.00  0.00    +0.008 A 
ATOM     13  C   UNL     1      -0.549   3.830  -0.897  0.00  0.00    +0.019 A 
ATOM     14  C   UNL     1      -0.571   2.573  -0.405  0.00  0.00    +0.096 A 
ATOM     15  N   UNL     1       0.459   1.711  -0.645  0.00  0.00    -0.267 N 
ATOM     16  C   UNL     1       1.536   2.107  -1.392  0.00  0.00    +0.145 A 
ATOM     17  N   UNL     1       2.551   1.284  -1.640  0.00  0.00    -0.211 NA
ATOM     18  C   UNL     1       2.567   0.039  -1.172  0.00  0.00    +0.149 A 
ATOM     19  C   UNL     1       1.482  -0.422  -0.396  0.00  0.00    +0.084 A 
ATOM     20  C   UNL     1       0.405   0.458  -0.139  0.00  0.00    +0.268 A 
ATOM     21  O   UNL     1      -0.549   0.096   0.526  0.00  0.00    -0.267 OA
ATOM     22  C   UNL     1       1.759  -1.755  -0.040  0.00  0.00    +0.048 A 
ATOM     23  C   UNL     1       2.966  -2.083  -0.582  0.00  0.00    +0.107 A 
ATOM     24  N   UNL     1       3.462  -0.988  -1.274  0.00  0.00    -0.324 N 
ATOM     25  C   UNL     1       4.736  -0.941  -1.996  0.00  0.00    +0.151 C 
ENDBRANCH   1  23
BRANCH   8  26
ATOM     26  C   UNL     1       0.981  -7.974  -1.602  0.00  0.00    -0.007 C 
BRANCH  26  27
ATOM     27  C   UNL     1       1.513  -9.275  -1.058  0.00  0.00    -0.057 A 
ATOM     28  C   UNL     1       1.548  -9.491   0.307  0.00  0.00    +0.002 A 
ATOM     29  C   UNL     1       2.031 -10.686   0.805  0.00  0.00    +0.000 A 
ATOM     30  C   UNL     1       2.489 -11.662  -0.061  0.00  0.00    +0.000 A 
ATOM     31  C   UNL     1       2.459 -11.444  -1.426  0.00  0.00    +0.000 A 
ATOM     32  C   UNL     1       1.971 -10.250  -1.924  0.00  0.00    +0.002 A 
ENDBRANCH  26  27
BRANCH  26  33
ATOM     33  C   UNL     1      -0.522  -7.961  -1.493  0.00  0.00    -0.057 A 
ATOM     34  C   UNL     1      -1.124  -7.668  -0.283  0.00  0.00    +0.002 A 
ATOM     35  C   UNL     1      -2.503  -7.652  -0.184  0.00  0.00    +0.000 A 
ATOM     36  C   UNL     1      -3.279  -7.937  -1.292  0.00  0.00    +0.000 A 
ATOM     37  C   UNL     1      -2.677  -8.236  -2.500  0.00  0.00    +0.000 A 
ATOM     38  C   UNL     1      -1.298  -8.247  -2.600  0.00  0.00    +0.002 A 
ENDBRANCH  26  33
ENDBRANCH   8  26
TORSDOF 4
