REMARK  Name = ZINC67299018
REMARK  6 active torsions:
REMARK  status: ('A' for Active; 'I' for Inactive)
REMARK    1  A    between atoms: C_1  and  O_2
REMARK    2  A    between atoms: O_2  and  C_3
REMARK    3  A    between atoms: N_11  and  C_12
REMARK    4  A    between atoms: C_20  and  C_22
REMARK    5  A    between atoms: N_24  and  C_25
REMARK    6  A    between atoms: C_25  and  C_26
REMARK                            x       y       z     vdW  Elec       q    Type
REMARK                         _______ _______ _______ _____ _____    ______ ____
ROOT
ATOM      1  C   UNL     1      -1.221  -0.683   0.104  0.00  0.00    +0.163 A 
ATOM      2  C   UNL     1      -2.391   0.056   0.128  0.00  0.00    +0.049 A 
ATOM      3  C   UNL     1      -3.626  -0.576   0.112  0.00  0.00    +0.004 A 
ATOM      4  C   UNL     1      -3.706  -1.949   0.074  0.00  0.00    +0.012 A 
ATOM      5  C   UNL     1      -2.532  -2.713   0.052  0.00  0.00    +0.022 A 
ATOM      6  C   UNL     1      -1.280  -2.072   0.059  0.00  0.00    +0.179 A 
ATOM      7  O   UNL     1      -0.143  -2.811   0.024  0.00  0.00    -0.435 OA
ATOM      8  C   UNL     1      -0.207  -4.065   0.539  0.00  0.00    +0.212 A 
ATOM      9  N   UNL     1       0.775  -4.549   1.268  0.00  0.00    -0.325 N 
ATOM     10  C   UNL     1      -1.414  -4.869   0.258  0.00  0.00    +0.097 A 
ATOM     11  C   UNL     1      -2.591  -4.176   0.020  0.00  0.00    +0.030 A 
ATOM     12  H   UNL     1       0.678  -5.411   1.701  0.00  0.00    +0.169 HD
ENDROOT
BRANCH   9  13
ATOM     13  C   UNL     1       1.934  -3.837   1.413  0.00  0.00    +0.045 A 
ATOM     14  C   UNL     1       2.529  -3.231   0.304  0.00  0.00    +0.028 A 
ATOM     15  C   UNL     1       3.697  -2.513   0.456  0.00  0.00    +0.043 A 
ATOM     16  C   UNL     1       4.282  -2.393   1.706  0.00  0.00    +0.159 A 
ATOM     17  C   UNL     1       3.697  -2.992   2.812  0.00  0.00    +0.160 A 
ATOM     18  C   UNL     1       2.523  -3.708   2.673  0.00  0.00    +0.067 A 
ATOM     19  F   UNL     1       4.272  -2.871   4.029  0.00  0.00    -0.202 F 
ATOM     20  F   UNL     1       5.426  -1.689   1.849  0.00  0.00    -0.202 F 
ENDBRANCH   9  13
BRANCH  10  21
ATOM     21  C   UNL     1      -1.370  -6.341   0.242  0.00  0.00    +0.250 C 
ATOM     22  O   UNL     1      -0.344  -6.922   0.540  0.00  0.00    -0.270 OA
ATOM     23  N   UNL     1      -2.467  -7.044  -0.101  0.00  0.00    -0.304 N 
ATOM     24  H   UNL     1      -3.262  -6.582  -0.410  0.00  0.00    +0.149 HD
BRANCH  23  25
ATOM     25  C   UNL     1      -2.459  -8.506  -0.009  0.00  0.00    +0.179 C 
BRANCH  25  26
ATOM     26  C   UNL     1      -3.797  -9.044  -0.448  0.00  0.00    +0.122 A 
ATOM     27  C   UNL     1      -4.131  -9.393  -1.703  0.00  0.00    +0.046 A 
ATOM     28  C   UNL     1      -5.471  -9.843  -1.661  0.00  0.00    +0.041 A 
ATOM     29  C   UNL     1      -5.875  -9.741  -0.382  0.00  0.00    +0.195 A 
ATOM     30  O   UNL     1      -4.855  -9.263   0.349  0.00  0.00    -0.466 OA
ENDBRANCH  25  26
ENDBRANCH  23  25
ENDBRANCH  10  21
BRANCH   1  32
ATOM     31  C   UNL     1      -0.032   1.376   0.166  0.00  0.00    +0.277 C 
ATOM     32  O   UNL     1      -0.016  -0.052   0.119  0.00  0.00    -0.491 OA
ENDBRANCH   1  32
TORSDOF 5
