REMARK  Name = ZINC66779550
REMARK  7 active torsions:
REMARK  status: ('A' for Active; 'I' for Inactive)
REMARK    1  A    between atoms: C_1  and  C_2
REMARK    2  A    between atoms: C_4  and  C_7
REMARK    3  A    between atoms: C_7  and  O_8
REMARK    4  A    between atoms: O_8  and  C_9
REMARK    5  A    between atoms: C_9  and  C_11
REMARK    6  A    between atoms: C_13  and  C_23
REMARK    7  A    between atoms: N_14  and  C_16
REMARK                            x       y       z     vdW  Elec       q    Type
REMARK                         _______ _______ _______ _____ _____    ______ ____
ROOT
ATOM      1  C   UNL     1      -2.996  -5.254  -2.881  0.00  0.00    +0.170 A 
ATOM      2  C   UNL     1      -3.726  -6.373  -3.335  0.00  0.00    +0.068 A 
ATOM      3  C   UNL     1      -3.904  -6.173  -4.678  0.00  0.00    +0.110 A 
ATOM      4  N   UNL     1      -3.299  -4.984  -4.982  0.00  0.00    -0.228 N 
ATOM      5  N   UNL     1      -2.785  -4.471  -3.922  0.00  0.00    -0.159 NA
ENDROOT
BRANCH   4   6
ATOM      6  C   UNL     1      -3.251  -4.409  -6.258  0.00  0.00    +0.066 A 
ATOM      7  C   UNL     1      -4.391  -4.379  -7.051  0.00  0.00    +0.029 A 
ATOM      8  C   UNL     1      -4.341  -3.811  -8.308  0.00  0.00    +0.022 A 
ATOM      9  C   UNL     1      -3.156  -3.272  -8.779  0.00  0.00    +0.041 A 
ATOM     10  C   UNL     1      -2.019  -3.301  -7.991  0.00  0.00    +0.022 A 
ATOM     11  C   UNL     1      -2.065  -3.862  -6.730  0.00  0.00    +0.029 A 
ATOM     12 CL   UNL     1      -3.097  -2.559 -10.361  0.00  0.00    -0.084 Cl
ENDBRANCH   4   6
BRANCH   3  13
ATOM     13  C   UNL     1      -4.610  -7.064  -5.614  0.00  0.00    +0.153 A 
ATOM     14  C   UNL     1      -5.431  -8.095  -5.271  0.00  0.00    +0.051 A 
ATOM     15  C   UNL     1      -5.885  -8.670  -6.474  0.00  0.00    +0.042 A 
ATOM     16  C   UNL     1      -5.325  -7.971  -7.482  0.00  0.00    +0.196 A 
ATOM     17  O   UNL     1      -4.561  -6.998  -6.959  0.00  0.00    -0.461 OA
ENDBRANCH   3  13
BRANCH   1  18
ATOM     18  C   UNL     1      -2.554  -5.003  -1.495  0.00  0.00    +0.360 C 
ATOM     19  O   UNL     1      -2.812  -5.805  -0.620  0.00  0.00    -0.243 OA
BRANCH  18  20
ATOM     20  O   UNL     1      -1.865  -3.883  -1.201  0.00  0.00    -0.452 OA
BRANCH  20  21
ATOM     21  C   UNL     1      -1.468  -3.704   0.161  0.00  0.00    +0.312 C 
BRANCH  21  25
ATOM     22  C   UNL     1      -0.549   1.163   0.905  0.00  0.00    +0.112 C 
ATOM     23  C   UNL     1      -0.331  -0.301   0.622  0.00  0.00    +0.224 A 
ATOM     24  N   UNL     1      -1.258  -1.216   0.572  0.00  0.00    -0.193 NA
ATOM     25  C   UNL     1      -0.714  -2.407   0.298  0.00  0.00    +0.209 A 
ATOM     26  N   UNL     1       0.574  -2.263   0.170  0.00  0.00    -0.058 NA
ATOM     27  O   UNL     1       0.848  -0.884   0.373  0.00  0.00    -0.338 OA
ENDBRANCH  21  25
ENDBRANCH  20  21
ENDBRANCH  18  20
ENDBRANCH   1  18
TORSDOF 6
