REMARK  Name = ZINC23360669
REMARK  10 active torsions:
REMARK  status: ('A' for Active; 'I' for Inactive)
REMARK    1  A    between atoms: C_1  and  C_2
REMARK    2  A    between atoms: C_2  and  N_3
REMARK    3  A    between atoms: N_6  and  C_9
REMARK    4  A    between atoms: C_15  and  C_17
REMARK    5  A    between atoms: C_20  and  C_35
REMARK    6  A    between atoms: C_22  and  N_23
REMARK    7  A    between atoms: C_27  and  C_30
REMARK    8  A    between atoms: C_30  and  O_32
REMARK    9  A    between atoms: O_32  and  C_33
REMARK   10  A    between atoms: C_33  and  C_34
REMARK                            x       y       z     vdW  Elec       q    Type
REMARK                         _______ _______ _______ _____ _____    ______ ____
ROOT
ATOM      1  C   UNL     1      -7.627  -6.367   0.541  0.00  0.00    +0.077 A 
ATOM      2  C   UNL     1      -6.827  -6.876  -0.494  0.00  0.00    +0.018 A 
ATOM      3  C   UNL     1      -6.795  -8.229  -0.692  0.00  0.00    +0.030 A 
ATOM      4  C   UNL     1      -7.553  -9.065   0.135  0.00  0.00    +0.080 A 
ATOM      5  N   UNL     1      -8.305  -8.563   1.111  0.00  0.00    -0.231 NA
ATOM      6  C   UNL     1      -8.360  -7.262   1.341  0.00  0.00    +0.134 A 
ENDROOT
BRANCH   1  13
ATOM      7  C   UNL     1      -4.475  -2.943   2.410  0.00  0.00    +0.059 C 
ATOM      8  C   UNL     1      -5.885  -2.348   2.399  0.00  0.00    +0.038 C 
ATOM      9  C   UNL     1      -6.596  -2.752   1.104  0.00  0.00    +0.109 C 
ATOM     10  N   UNL     1      -6.558  -4.215   0.980  0.00  0.00    -0.297 N 
ATOM     11  C   UNL     1      -5.260  -4.898   1.068  0.00  0.00    +0.109 C 
ATOM     12  C   UNL     1      -4.564  -4.470   2.364  0.00  0.00    +0.038 C 
ATOM     13  C   UNL     1      -7.692  -4.918   0.790  0.00  0.00    +0.250 C 
ATOM     14  O   UNL     1      -8.769  -4.355   0.824  0.00  0.00    -0.270 OA
BRANCH   7  18
ATOM     15  N   UNL     1      -3.546  -1.117   6.108  0.00  0.00    +0.381 N 
ATOM     16  C   UNL     1      -2.792  -0.695   4.920  0.00  0.00    -0.063 C 
ATOM     17  C   UNL     1      -3.570  -1.076   3.659  0.00  0.00    +0.066 C 
ATOM     18  N   UNL     1      -3.780  -2.530   3.636  0.00  0.00    -0.303 NA
ATOM     19  C   UNL     1      -4.513  -2.971   4.832  0.00  0.00    +0.066 C 
ATOM     20  C   UNL     1      -3.726  -2.574   6.083  0.00  0.00    -0.063 C 
ATOM     21  H   UNL     1      -4.450  -0.666   6.109  0.00  0.00    -0.082 HD
BRANCH  15  23
ATOM     22  C   UNL     1      -2.728   0.791   7.408  0.00  0.00    -0.017 C 
ATOM     23  C   UNL     1      -2.808  -0.735   7.319  0.00  0.00    -0.082 C 
ENDBRANCH  15  23
ENDBRANCH   7  18
ENDBRANCH   1  13
BRANCH   6  24
ATOM     24  N   UNL     1      -9.148  -6.778   2.369  0.00  0.00    -0.314 N 
ATOM     25  C   UNL     1      -8.568  -6.499   3.689  0.00  0.00    +0.106 C 
ATOM     26  C   UNL     1      -9.380  -7.245   4.752  0.00  0.00    +0.020 C 
ATOM     27  C   UNL     1     -10.856  -6.864   4.621  0.00  0.00    +0.018 C 
ATOM     28  C   UNL     1     -11.371  -7.279   3.241  0.00  0.00    +0.115 C 
ATOM     29  C   UNL     1     -10.581  -6.528   2.159  0.00  0.00    +0.121 C 
BRANCH  28  30
ATOM     30  C   UNL     1     -12.834  -6.934   3.126  0.00  0.00    +0.312 C 
ATOM     31  O   UNL     1     -13.208  -6.172   2.266  0.00  0.00    -0.250 OA
BRANCH  30  32
ATOM     32  O   UNL     1     -13.720  -7.473   3.977  0.00  0.00    -0.465 OA
BRANCH  32  33
ATOM     33  C   UNL     1     -15.089  -7.101   3.810  0.00  0.00    +0.229 C 
ATOM     34  C   UNL     1     -15.943  -7.810   4.863  0.00  0.00    +0.048 C 
ENDBRANCH  32  33
ENDBRANCH  30  32
ENDBRANCH  28  30
ENDBRANCH   6  24
BRANCH   4  35
ATOM     35  C   UNL     1      -7.518 -10.523  -0.078  0.00  0.00    +0.038 A 
ATOM     36  C   UNL     1      -8.179 -11.513   0.605  0.00  0.00    +0.017 A 
ATOM     37  C   UNL     1      -7.989 -12.820   0.222  0.00  0.00    +0.008 A 
ATOM     38  C   UNL     1      -7.155 -13.092  -0.817  0.00  0.00    +0.046 A 
ATOM     39  S   UNL     1      -6.610 -11.461  -1.296  0.00  0.00    -0.095 S 
ENDBRANCH   4  35
TORSDOF 8
