REMARK  Name = ZINC09109373
REMARK  6 active torsions:
REMARK  status: ('A' for Active; 'I' for Inactive)
REMARK    1  A    between atoms: C_1  and  C_2
REMARK    2  A    between atoms: C_4  and  C_38
REMARK    3  A    between atoms: C_9  and  C_27
REMARK    4  A    between atoms: C_11  and  C_18
REMARK    5  A    between atoms: C_21  and  N_24
REMARK    6  A    between atoms: C_27  and  C_29
REMARK                            x       y       z     vdW  Elec       q    Type
REMARK                         _______ _______ _______ _____ _____    ______ ____
ROOT
ATOM      1  C   UNL     1      -2.937   6.309   0.756  0.00  0.00    +0.044 C 
ATOM      2  C   UNL     1      -2.883   4.957   1.418  0.00  0.00    -0.050 A 
ATOM      3  C   UNL     1      -3.899   4.560   2.269  0.00  0.00    +0.008 A 
ATOM      4  C   UNL     1      -3.855   3.323   2.878  0.00  0.00    -0.029 A 
ATOM      5  C   UNL     1      -2.785   2.463   2.641  0.00  0.00    +0.039 A 
ATOM      6  C   UNL     1      -1.770   2.872   1.782  0.00  0.00    -0.027 A 
ATOM      7  C   UNL     1      -1.817   4.108   1.176  0.00  0.00    +0.008 A 
ATOM      8  C   UNL     1      -0.785   1.736   1.736  0.00  0.00    +0.052 C 
ATOM      9  C   UNL     1       0.601   2.183   2.211  0.00  0.00    +0.069 C 
ATOM     10  C   UNL     1       1.441   2.336   0.927  0.00  0.00    +0.016 C 
ATOM     11  C   UNL     1       0.487   1.985  -0.229  0.00  0.00    -0.047 C 
ATOM     12  C   UNL     1      -0.337  -0.241   0.420  0.00  0.00    -0.005 C 
ATOM     13  S   UNL     1       0.479  -0.456  -1.224  0.00  0.00    -0.181 S 
ATOM     14  C   UNL     1       1.264   1.210  -1.313  0.00  0.00    +0.052 C 
ATOM     15  C   UNL     1      -1.362   0.687   2.650  0.00  0.00    +0.212 C 
ATOM     16  O   UNL     1      -0.878  -0.396   2.903  0.00  0.00    -0.277 OA
ATOM     17  N   UNL     1      -2.517   1.183   3.130  0.00  0.00    -0.286 N 
ATOM     18  C   UNL     1      -4.968   2.901   3.803  0.00  0.00    +0.045 C 
ATOM     19  H   UNL     1      -3.097   0.707   3.745  0.00  0.00    +0.155 HD
ATOM     20  N   UNL     1      -0.624   1.239   0.380  0.00  0.00    +0.401 N 
ATOM     21  H   UNL     1      -1.483   1.401  -0.158  0.00  0.00    -0.078 HD
ENDROOT
BRANCH  10  22
ATOM     22  C   UNL     1       1.930   3.755   0.788  0.00  0.00    -0.045 A 
ATOM     23  C   UNL     1       1.211   4.663   0.033  0.00  0.00    +0.006 A 
ATOM     24  C   UNL     1       1.656   5.966  -0.090  0.00  0.00    +0.033 A 
ATOM     25  C   UNL     1       2.826   6.358   0.533  0.00  0.00    +0.126 A 
ATOM     26  C   UNL     1       3.548   5.449   1.284  0.00  0.00    +0.033 A 
ATOM     27  C   UNL     1       3.099   4.147   1.411  0.00  0.00    +0.006 A 
BRANCH  25  28
ATOM     28  N   UNL     1       3.306   7.751   0.396  0.00  0.00    +0.056 N 
ATOM     29  O   UNL     1       4.337   8.097   0.945  0.00  0.00    -0.126 OA
ATOM     30  O   UNL     1       2.670   8.552  -0.266  0.00  0.00    -0.126 OA
ENDBRANCH  25  28
ENDBRANCH  10  22
BRANCH   9  31
ATOM     31  C   UNL     1       0.507   3.502   2.934  0.00  0.00    +0.168 C 
ATOM     32  O   UNL     1       0.323   4.525   2.309  0.00  0.00    -0.292 OA
BRANCH  31  33
ATOM     33  C   UNL     1       0.639   3.550   4.399  0.00  0.00    +0.036 A 
ATOM     34  C   UNL     1       0.554   4.771   5.085  0.00  0.00    +0.014 A 
ATOM     35  C   UNL     1       0.685   4.759   6.461  0.00  0.00    +0.020 A 
ATOM     36  C   UNL     1       0.894   3.556   7.113  0.00  0.00    +0.111 A 
ATOM     37  N   UNL     1       0.970   2.422   6.443  0.00  0.00    -0.263 NA
ATOM     38  C   UNL     1       0.846   2.378   5.133  0.00  0.00    +0.122 A 
ENDBRANCH  31  33
ENDBRANCH   9  31
TORSDOF 4
