REMARK  Name = ZINC01002284
REMARK  13 active torsions:
REMARK  status: ('A' for Active; 'I' for Inactive)
REMARK    1  A    between atoms: C_1  and  C_2
REMARK    2  A    between atoms: C_3  and  C_27
REMARK    3  A    between atoms: C_4  and  N_12
REMARK    4  A    between atoms: C_6  and  C_7
REMARK    5  A    between atoms: N_9  and  C_10
REMARK    6  A    between atoms: N_9  and  C_11
REMARK    7  A    between atoms: C_13  and  C_15
REMARK    8  A    between atoms: C_16  and  C_26
REMARK    9  A    between atoms: C_19  and  C_20
REMARK   10  A    between atoms: C_27  and  O_29
REMARK   11  A    between atoms: O_29  and  C_30
REMARK   12  A    between atoms: C_30  and  C_31
REMARK   13  A    between atoms: C_30  and  C_32
REMARK                            x       y       z     vdW  Elec       q    Type
REMARK                         _______ _______ _______ _____ _____    ______ ____
ROOT
ATOM      1  C   UNL     1      -1.263   2.187  -0.643  0.00  0.00    +0.046 C 
ATOM      2  C   UNL     1       0.050   1.454  -0.743  0.00  0.00    -0.015 A 
ATOM      3  C   UNL     1       0.095   0.101  -1.045  0.00  0.00    +0.091 A 
ATOM      4  C   UNL     1       1.353  -0.506  -1.125  0.00  0.00    +0.087 A 
ATOM      5  S   UNL     1       2.437   0.803  -0.783  0.00  0.00    -0.068 S 
ATOM      6  C   UNL     1       1.239   2.101  -0.545  0.00  0.00    +0.079 A 
ENDROOT
BRANCH   6   7
ATOM      7  C   UNL     1       1.470   3.510  -0.219  0.00  0.00    +0.253 C 
ATOM      8  O   UNL     1       0.543   4.298  -0.236  0.00  0.00    -0.269 OA
ATOM      9  N   UNL     1       2.709   3.933   0.099  0.00  0.00    -0.303 N 
ATOM     10  C   UNL     1       2.934   5.335   0.461  0.00  0.00    +0.132 C 
ATOM     11  C   UNL     1       3.832   2.992   0.084  0.00  0.00    +0.132 C 
ENDBRANCH   6   7
BRANCH   4  12
ATOM     12  N   UNL     1       1.657  -1.823  -1.407  0.00  0.00    -0.275 N 
ATOM     13  C   UNL     1       2.942  -2.226  -1.440  0.00  0.00    +0.254 C 
ATOM     14  O   UNL     1       3.835  -1.429  -1.222  0.00  0.00    -0.270 OA
ATOM     15  H   UNL     1       0.944  -2.458  -1.581  0.00  0.00    +0.156 HD
BRANCH  13  16
ATOM     16  C   UNL     1       3.266  -3.630  -1.741  0.00  0.00    +0.106 A 
ATOM     17  C   UNL     1       3.494  -4.213  -2.962  0.00  0.00    +0.147 A 
ATOM     18  O   UNL     1       3.750  -5.502  -2.726  0.00  0.00    -0.359 OA
ATOM     19  N   UNL     1       3.704  -5.793  -1.556  0.00  0.00    -0.077 NA
ATOM     20  C   UNL     1       3.418  -4.762  -0.802  0.00  0.00    +0.126 A 
ATOM     21  C   UNL     1       3.465  -3.532  -4.306  0.00  0.00    +0.090 C 
BRANCH  20  22
ATOM     22  C   UNL     1       3.278  -4.735   0.674  0.00  0.00    +0.004 A 
ATOM     23  C   UNL     1       3.692  -3.616   1.395  0.00  0.00    +0.010 A 
ATOM     24  C   UNL     1       3.555  -3.595   2.768  0.00  0.00    +0.001 A 
ATOM     25  C   UNL     1       3.018  -4.685   3.430  0.00  0.00    +0.000 A 
ATOM     26  C   UNL     1       2.611  -5.800   2.719  0.00  0.00    +0.001 A 
ATOM     27  C   UNL     1       2.738  -5.830   1.345  0.00  0.00    +0.010 A 
ENDBRANCH  20  22
ENDBRANCH  13  16
ENDBRANCH   4  12
BRANCH   3  28
ATOM     28  C   UNL     1      -1.134  -0.667  -1.271  0.00  0.00    +0.342 C 
ATOM     29  O   UNL     1      -1.598  -0.756  -2.391  0.00  0.00    -0.245 OA
BRANCH  28  30
ATOM     30  O   UNL     1      -1.749  -1.276  -0.236  0.00  0.00    -0.458 OA
BRANCH  30  31
ATOM     31  C   UNL     1      -2.960  -2.019  -0.534  0.00  0.00    +0.171 C 
ATOM     32  C   UNL     1      -2.601  -3.467  -0.871  0.00  0.00    +0.052 C 
ATOM     33  C   UNL     1      -3.887  -1.993   0.683  0.00  0.00    +0.052 C 
ENDBRANCH  30  31
ENDBRANCH  28  30
ENDBRANCH   3  28
TORSDOF 7
