REMARK  Name = ZINC12832917
REMARK  13 active torsions:
REMARK  status: ('A' for Active; 'I' for Inactive)
REMARK    1  A    between atoms: C_1  and  C_2
REMARK    2  A    between atoms: C_2  and  C_3
REMARK    3  A    between atoms: C_3  and  C_4
REMARK    4  A    between atoms: C_3  and  C_5
REMARK    5  A    between atoms: C_3  and  N_6
REMARK    6  A    between atoms: C_7  and  C_11
REMARK    7  A    between atoms: C_11  and  N_64
REMARK    8  A    between atoms: C_12  and  C_13
REMARK    9  A    between atoms: C_12  and  N_64
REMARK   10  A    between atoms: C_19  and  C_20
REMARK   11  A    between atoms: C_19  and  N_64
REMARK   12  A    between atoms: C_25  and  C_33
REMARK   13  A    between atoms: C_26  and  C_32
REMARK                            x       y       z     vdW  Elec       q    Type
REMARK                         _______ _______ _______ _____ _____    ______ ____
ROOT
ATOM      1  N   UNL     1       2.519   4.164  -1.815  0.00  0.00    +0.390 N 
ATOM      2  H   UNL     1       2.009   4.826  -2.412  0.00  0.00    -0.080 HD
ENDROOT
BRANCH   1   3
ATOM      3  C   UNL     1       3.876   4.693  -1.562  0.00  0.00    +0.001 C 
BRANCH   3   5
ATOM      4  N   UNL     1       3.849   7.233  -1.794  0.00  0.00    -0.226 N 
ATOM      5  C   UNL     1       3.759   6.109  -1.059  0.00  0.00    +0.136 A 
ATOM      6  N   UNL     1       3.557   6.485   0.180  0.00  0.00    -0.115 NA
ATOM      7  N   UNL     1       3.518   7.772   0.205  0.00  0.00    -0.023 NA
ATOM      8  N   UNL     1       3.692   8.228  -0.987  0.00  0.00    -0.043 NA
BRANCH   4   9
ATOM      9  C   UNL     1       4.079   7.312  -3.238  0.00  0.00    +0.061 C 
ATOM     10  C   UNL     1       5.482   6.795  -3.561  0.00  0.00    +0.036 C 
ATOM     11  C   UNL     1       3.040   6.457  -3.967  0.00  0.00    +0.036 C 
BRANCH   9  13
ATOM     12  C   UNL     1       4.194   8.849  -5.205  0.00  0.00    +0.006 C 
ATOM     13  C   UNL     1       3.954   8.767  -3.696  0.00  0.00    +0.026 C 
ENDBRANCH   9  13
ENDBRANCH   4   9
ENDBRANCH   3   5
ENDBRANCH   1   3
BRANCH   1  14
ATOM     14  C   UNL     1       1.791   4.009  -0.538  0.00  0.00    -0.040 C 
BRANCH  14  15
ATOM     15  C   UNL     1       0.323   3.841  -0.836  0.00  0.00    -0.046 A 
ATOM     16  C   UNL     1      -0.241   2.576  -0.900  0.00  0.00    +0.005 A 
ATOM     17  C   UNL     1      -1.595   2.470  -1.177  0.00  0.00    +0.020 A 
ATOM     18  C   UNL     1      -2.332   3.621  -1.384  0.00  0.00    +0.111 A 
ATOM     19  N   UNL     1      -1.764   4.809  -1.310  0.00  0.00    -0.263 NA
ATOM     20  C   UNL     1      -0.478   4.947  -1.049  0.00  0.00    +0.112 A 
ENDBRANCH  14  15
ENDBRANCH   1  14
BRANCH   1  21
ATOM     21  C   UNL     1       2.606   2.862  -2.509  0.00  0.00    -0.036 C 
BRANCH  21  22
ATOM     22  C   UNL     1       3.011   3.102  -3.940  0.00  0.00    +0.001 A 
ATOM     23  C   UNL     1       4.313   2.983  -4.303  0.00  0.00    +0.017 A 
ATOM     24  C   UNL     1       4.673   3.219  -5.702  0.00  0.00    -0.001 A 
ATOM     25  C   UNL     1       5.998   3.106  -6.137  0.00  0.00    +0.010 A 
ATOM     26  C   UNL     1       6.302   3.337  -7.449  0.00  0.00    +0.004 A 
ATOM     27  C   UNL     1       5.308   3.683  -8.354  0.00  0.00    -0.046 A 
ATOM     28  C   UNL     1       3.996   3.800  -7.948  0.00  0.00    -0.024 A 
ATOM     29  C   UNL     1       3.663   3.569  -6.617  0.00  0.00    +0.052 A 
ATOM     30  N   UNL     1       2.358   3.679  -6.184  0.00  0.00    -0.322 N 
ATOM     31  H   UNL     1       1.663   3.920  -6.816  0.00  0.00    +0.169 HD
ATOM     32  C   UNL     1       2.036   3.456  -4.897  0.00  0.00    +0.251 A 
ATOM     33  O   UNL     1       0.873   3.561  -4.550  0.00  0.00    -0.268 OA
ATOM     34  C   UNL     1       2.927   4.175  -8.942  0.00  0.00    +0.046 C 
ATOM     35  C   UNL     1       5.667   3.933  -9.796  0.00  0.00    +0.044 C 
ENDBRANCH  21  22
ENDBRANCH   1  21
TORSDOF 8
