REMARK  Name = ZINC11214612
REMARK  12 active torsions:
REMARK  status: ('A' for Active; 'I' for Inactive)
REMARK    1  A    between atoms: C_1  and  C_2
REMARK    2  A    between atoms: C_2  and  C_3
REMARK    3  A    between atoms: C_3  and  C_5
REMARK    4  A    between atoms: C_3  and  C_6
REMARK    5  A    between atoms: C_11  and  N_12
REMARK    6  A    between atoms: C_13  and  C_15
REMARK    7  A    between atoms: C_15  and  S_16
REMARK    8  A    between atoms: S_16  and  C_17
REMARK    9  A    between atoms: C_20  and  C_28
REMARK   10  A    between atoms: N_21  and  C_22
REMARK   11  A    between atoms: C_28  and  C_30
REMARK   12  A    between atoms: C_28  and  N_69
REMARK                            x       y       z     vdW  Elec       q    Type
REMARK                         _______ _______ _______ _____ _____    ______ ____
ROOT
ATOM      1  C   UNL     1      -0.833   1.616   0.172  0.00  0.00    +0.197 A 
ATOM      2  N   UNL     1      -0.830   0.306   0.256  0.00  0.00    -0.122 NA
ATOM      3  N   UNL     1       0.379  -0.130   0.258  0.00  0.00    -0.135 NA
ATOM      4  C   UNL     1       1.215   0.866   0.175  0.00  0.00    +0.125 A 
ATOM      5  N   UNL     1       0.474   2.016   0.117  0.00  0.00    -0.275 N 
ENDROOT
BRANCH   5   6
ATOM      6  C   UNL     1       0.954   3.330   0.022  0.00  0.00    +0.050 A 
ATOM      7  C   UNL     1       1.650   3.736  -1.108  0.00  0.00    +0.026 A 
ATOM      8  C   UNL     1       2.119   5.032  -1.201  0.00  0.00    +0.002 A 
ATOM      9  C   UNL     1       1.903   5.922  -0.165  0.00  0.00    +0.000 A 
ATOM     10  C   UNL     1       1.215   5.519   0.964  0.00  0.00    +0.002 A 
ATOM     11  C   UNL     1       0.740   4.226   1.061  0.00  0.00    +0.026 A 
ENDBRANCH   5   6
BRANCH   4  12
ATOM     12  C   UNL     1       2.719   0.770   0.148  0.00  0.00    -0.002 C 
ATOM     13  C   UNL     1       3.243   0.573   1.572  0.00  0.00    -0.005 C 
BRANCH  12  19
ATOM     14  C   UNL     1       4.563  -0.625  -0.569  0.00  0.00    -0.078 C 
ATOM     15  C   UNL     1       4.921  -1.903  -1.331  0.00  0.00    -0.019 C 
ATOM     16  C   UNL     1       4.527  -1.742  -2.802  0.00  0.00    -0.004 C 
ATOM     17  C   UNL     1       3.030  -1.433  -2.890  0.00  0.00    -0.019 C 
ATOM     18  C   UNL     1       2.728  -0.168  -2.084  0.00  0.00    -0.078 C 
ATOM     19  N   UNL     1       3.106  -0.396  -0.673  0.00  0.00    +0.386 N 
ATOM     20  H   UNL     1       2.613  -1.227  -0.327  0.00  0.00    -0.081 HD
ENDBRANCH  12  19
ENDBRANCH   4  12
BRANCH   1  21
ATOM     21  S   UNL     1      -2.252   2.660   0.129  0.00  0.00    -0.076 S 
BRANCH  21  22
ATOM     22  C   UNL     1      -3.562   1.415   0.233  0.00  0.00    +0.173 C 
BRANCH  22  24
ATOM     23  N   UNL     1      -6.034   1.364   0.279  0.00  0.00    -0.285 N 
ATOM     24  C   UNL     1      -4.906   2.097   0.212  0.00  0.00    +0.227 C 
ATOM     25  O   UNL     1      -4.971   3.306   0.135  0.00  0.00    -0.275 OA
ATOM     26  H   UNL     1      -5.982   0.404   0.404  0.00  0.00    +0.155 HD
BRANCH  23  32
ATOM     27  C   UNL     1      -8.331   1.339  -0.468  0.00  0.00    -0.023 A 
ATOM     28  C   UNL     1      -9.563   1.956  -0.570  0.00  0.00    +0.006 A 
ATOM     29  C   UNL     1      -9.748   3.223  -0.049  0.00  0.00    +0.000 A 
ATOM     30  C   UNL     1      -8.704   3.875   0.581  0.00  0.00    +0.002 A 
ATOM     31  C   UNL     1      -7.472   3.261   0.691  0.00  0.00    +0.023 A 
ATOM     32  C   UNL     1      -7.282   1.988   0.169  0.00  0.00    +0.037 A 
BRANCH  27  33
ATOM     33  C   UNL     1      -8.128  -0.040  -1.041  0.00  0.00    +0.017 C 
ATOM     34  C   UNL     1      -8.277   0.014  -2.563  0.00  0.00    +0.012 C 
BRANCH  33  36
ATOM     35  C   UNL     1      -8.891  -2.417  -0.944  0.00  0.00    +0.004 C 
ATOM     36  C   UNL     1      -9.173  -0.993  -0.459  0.00  0.00    +0.004 C 
ENDBRANCH  33  36
ENDBRANCH  27  33
ENDBRANCH  23  32
ENDBRANCH  22  24
ENDBRANCH  21  22
ENDBRANCH   1  21
TORSDOF 9
