REMARK  Name = ZINC39188264
REMARK  7 active torsions:
REMARK  status: ('A' for Active; 'I' for Inactive)
REMARK    1  A    between atoms: C_1  and  C_2
REMARK    2  A    between atoms: C_2  and  O_3
REMARK    3  A    between atoms: O_3  and  C_4
REMARK    4  A    between atoms: C_4  and  C_6
REMARK    5  A    between atoms: C_10  and  N_11
REMARK    6  A    between atoms: C_12  and  C_14
REMARK    7  A    between atoms: C_14  and  N_15
REMARK                            x       y       z     vdW  Elec       q    Type
REMARK                         _______ _______ _______ _____ _____    ______ ____
ROOT
ATOM      1  N   UNL     1      -0.603  -2.454  -3.921  0.00  0.00    -0.278 N 
ATOM      2  C   UNL     1      -1.118  -2.781  -5.122  0.00  0.00    +0.236 C 
ATOM      3  O   UNL     1      -0.397  -3.224  -5.991  0.00  0.00    -0.274 OA
ATOM      4  H   UNL     1      -1.180  -2.100  -3.226  0.00  0.00    +0.155 HD
ENDROOT
BRANCH   1   9
ATOM      5  C   UNL     1       1.449  -2.344  -2.516  0.00  0.00    +0.091 A 
ATOM      6  C   UNL     1       2.885  -2.621  -2.515  0.00  0.00    -0.021 A 
ATOM      7  C   UNL     1       3.349  -3.116  -3.676  0.00  0.00    -0.004 A 
ATOM      8  S   UNL     1       1.922  -3.210  -4.726  0.00  0.00    -0.077 S 
ATOM      9  C   UNL     1       0.751  -2.623  -3.678  0.00  0.00    +0.086 A 
ATOM     10  C   UNL     1       4.830  -3.378  -3.621  0.00  0.00    +0.043 C 
ATOM     11  C   UNL     1       5.324  -2.577  -2.396  0.00  0.00    +0.010 C 
ATOM     12  C   UNL     1       4.048  -2.505  -1.532  0.00  0.00    +0.037 C 
BRANCH   5  13
ATOM     13  C   UNL     1       0.776  -1.800  -1.335  0.00  0.00    +0.342 C 
ATOM     14  O   UNL     1       0.312  -2.552  -0.499  0.00  0.00    -0.245 OA
BRANCH  13  15
ATOM     15  O   UNL     1       0.671  -0.465  -1.174  0.00  0.00    -0.461 OA
BRANCH  15  17
ATOM     16  C   UNL     1      -0.019   1.526   0.010  0.00  0.00    +0.048 C 
ATOM     17  C   UNL     1       0.002  -0.004   0.002  0.00  0.00    +0.229 C 
ENDBRANCH  15  17
ENDBRANCH  13  15
ENDBRANCH   5  13
ENDBRANCH   1   9
BRANCH   2  18
ATOM     18  C   UNL     1      -2.590  -2.597  -5.387  0.00  0.00    +0.214 C 
BRANCH  18  19
ATOM     19  N   UNL     1      -2.898  -3.022  -6.754  0.00  0.00    -0.215 N 
ATOM     20  C   UNL     1      -2.857  -2.208  -7.827  0.00  0.00    +0.247 C 
ATOM     21  O   UNL     1      -2.571  -1.030  -7.839  0.00  0.00    -0.273 OA
ATOM     22  C   UNL     1      -3.242  -3.071  -9.017  0.00  0.00    +0.113 C 
ATOM     23  C   UNL     1      -2.005  -3.188  -9.935  0.00  0.00    +0.035 C 
ATOM     24  C   UNL     1      -2.131  -4.436 -10.764  0.00  0.00    +0.003 C 
ATOM     25  C   UNL     1      -2.772  -4.173 -12.141  0.00  0.00    +0.000 C 
ATOM     26  C   UNL     1      -3.966  -3.202 -12.069  0.00  0.00    +0.000 C 
ATOM     27  C   UNL     1      -4.851  -3.473 -10.882  0.00  0.00    +0.003 C 
ATOM     28  C   UNL     1      -4.407  -2.558  -9.725  0.00  0.00    +0.035 C 
ATOM     29  N   UNL     1      -3.482  -4.396  -8.410  0.00  0.00    -0.285 N 
ATOM     30  C   UNL     1      -3.248  -4.268  -7.093  0.00  0.00    +0.310 C 
ATOM     31  O   UNL     1      -3.349  -5.181  -6.297  0.00  0.00    -0.252 OA
ATOM     32  H   UNL     1      -3.752  -5.204  -8.874  0.00  0.00    +0.151 HD
ENDBRANCH  18  19
ENDBRANCH   2  18
TORSDOF 6
