REMARK  Name = ZINC12033646
REMARK  8 active torsions:
REMARK  status: ('A' for Active; 'I' for Inactive)
REMARK    1  A    between atoms: C_3  and  N_10
REMARK    2  A    between atoms: C_5  and  N_7
REMARK    3  A    between atoms: C_11  and  C_13
REMARK    4  A    between atoms: C_13  and  S_14
REMARK    5  A    between atoms: S_14  and  C_15
REMARK    6  A    between atoms: C_20  and  N_24
REMARK    7  A    between atoms: C_21  and  N_23
REMARK    8  A    between atoms: C_25  and  C_27
REMARK                            x       y       z     vdW  Elec       q    Type
REMARK                         _______ _______ _______ _____ _____    ______ ____
ROOT
ATOM      1  C   UNL     1     -10.086   1.084   0.523  0.00  0.00    +0.171 A 
ATOM      2  N   UNL     1     -11.364   1.551   0.457  0.00  0.00    -0.300 N 
ATOM      3  H   UNL     1     -11.527   2.501   0.349  0.00  0.00    +0.171 HD
ATOM      4  C   UNL     1     -12.404   0.695   0.541  0.00  0.00    +0.275 A 
ATOM      5  O   UNL     1     -13.553   1.105   0.482  0.00  0.00    -0.266 OA
ATOM      6  C   UNL     1     -12.142  -0.674   0.696  0.00  0.00    +0.139 A 
ATOM      7  C   UNL     1     -10.818  -1.097   0.757  0.00  0.00    +0.146 A 
ATOM      8  N   UNL     1      -9.830  -0.200   0.663  0.00  0.00    -0.207 NA
ENDROOT
BRANCH   6   9
ATOM      9  N   UNL     1     -13.198  -1.602   0.787  0.00  0.00    -0.272 N 
ATOM     10  C   UNL     1     -14.113  -1.487   1.771  0.00  0.00    +0.284 C 
ATOM     11  O   UNL     1     -13.978  -0.636   2.631  0.00  0.00    -0.266 OA
ATOM     12  H   UNL     1     -13.267  -2.324   0.143  0.00  0.00    +0.155 HD
BRANCH  10  13
ATOM     13  C   UNL     1     -15.269  -2.387   1.804  0.00  0.00    +0.191 A 
ATOM     14  C   UNL     1     -16.262  -2.383   2.742  0.00  0.00    +0.056 A 
ATOM     15  C   UNL     1     -17.158  -3.402   2.386  0.00  0.00    +0.058 A 
ATOM     16  C   UNL     1     -16.674  -3.983   1.264  0.00  0.00    +0.171 A 
ATOM     17  O   UNL     1     -15.536  -3.369   0.917  0.00  0.00    -0.444 OA
ATOM     18 BR   UNL     1     -17.474  -5.425   0.339  0.00  0.00    -0.008 Br
ENDBRANCH  10  13
ENDBRANCH   6   9
BRANCH   7  19
ATOM     19  N   UNL     1     -10.524  -2.440   0.911  0.00  0.00    -0.341 N 
ATOM     20  H   UNL     1     -11.242  -3.089   0.976  0.00  0.00    +0.144 HD
ATOM     21  H   UNL     1      -9.601  -2.733   0.953  0.00  0.00    +0.144 HD
ENDBRANCH   7  19
BRANCH   1  22
ATOM     22  S   UNL     1      -8.746   2.222   0.411  0.00  0.00    -0.078 S 
BRANCH  22  23
ATOM     23  C   UNL     1      -7.350   1.079   0.554  0.00  0.00    +0.173 C 
BRANCH  23  25
ATOM     24  N   UNL     1      -4.879   1.204   0.568  0.00  0.00    -0.285 N 
ATOM     25  C   UNL     1      -6.058   1.852   0.483  0.00  0.00    +0.227 C 
ATOM     26  O   UNL     1      -6.079   3.057   0.348  0.00  0.00    -0.275 OA
ATOM     27  H   UNL     1      -4.860   0.235   0.605  0.00  0.00    +0.155 HD
BRANCH  24  30
ATOM     28  C   UNL     1      -1.346   2.107   0.100  0.00  0.00    +0.004 A 
ATOM     29  C   UNL     1      -2.525   1.388   0.063  0.00  0.00    +0.023 A 
ATOM     30  C   UNL     1      -3.683   1.930   0.604  0.00  0.00    +0.036 A 
ATOM     31  C   UNL     1      -3.653   3.193   1.179  0.00  0.00    +0.056 A 
ATOM     32  C   UNL     1      -2.471   3.907   1.212  0.00  0.00    +0.128 A 
ATOM     33  C   UNL     1      -1.320   3.367   0.668  0.00  0.00    +0.033 A 
BRANCH  32  34
ATOM     34  N   UNL     1      -2.437   5.254   1.825  0.00  0.00    +0.056 N 
ATOM     35  O   UNL     1      -3.452   5.732   2.300  0.00  0.00    -0.126 OA
ATOM     36  O   UNL     1      -1.394   5.881   1.860  0.00  0.00    -0.126 OA
ENDBRANCH  32  34
ENDBRANCH  24  30
ENDBRANCH  23  25
ENDBRANCH  22  23
ENDBRANCH   1  22
TORSDOF 8
