REMARK  Name = ZINC07047629
REMARK  9 active torsions:
REMARK  status: ('A' for Active; 'I' for Inactive)
REMARK    1  A    between atoms: C_1  and  C_2
REMARK    2  A    between atoms: C_4  and  C_31
REMARK    3  A    between atoms: C_6  and  O_8
REMARK    4  A    between atoms: O_8  and  C_9
REMARK    5  A    between atoms: C_9  and  C_10
REMARK    6  A    between atoms: C_10  and  N_11
REMARK    7  A    between atoms: C_14  and  C_18
REMARK    8  A    between atoms: C_14  and  C_25
REMARK    9  A    between atoms: C_18  and  C_19
REMARK                            x       y       z     vdW  Elec       q    Type
REMARK                         _______ _______ _______ _____ _____    ______ ____
ROOT
ATOM      1  N   UNL     1       1.048   2.037   0.003  0.00  0.00    -0.221 N 
ATOM      2  C   UNL     1      -0.014   1.208   0.009  0.00  0.00    +0.251 C 
ATOM      3  O   UNL     1       0.002  -0.004   0.002  0.00  0.00    -0.272 OA
ATOM      4  C   UNL     1      -1.235   2.107   0.018  0.00  0.00    +0.142 C 
ATOM      5  N   UNL     1      -0.664   3.465   0.026  0.00  0.00    -0.281 N 
ATOM      6  C   UNL     1       0.673   3.321   0.013  0.00  0.00    +0.310 C 
ATOM      7  O   UNL     1       1.453   4.253   0.010  0.00  0.00    -0.252 OA
ATOM      8  H   UNL     1      -1.157   4.301   0.035  0.00  0.00    +0.152 HD
ENDROOT
BRANCH   4   9
ATOM      9  C   UNL     1      -2.067   1.885  -1.218  0.00  0.00    -0.015 A 
ATOM     10  C   UNL     1      -3.075   0.940  -1.213  0.00  0.00    +0.006 A 
ATOM     11  C   UNL     1      -3.841   0.740  -2.346  0.00  0.00    +0.000 A 
ATOM     12  C   UNL     1      -3.593   1.478  -3.488  0.00  0.00    +0.000 A 
ATOM     13  C   UNL     1      -2.580   2.420  -3.495  0.00  0.00    +0.000 A 
ATOM     14  C   UNL     1      -1.817   2.623  -2.361  0.00  0.00    +0.006 A 
ENDBRANCH   4   9
BRANCH   1  15
ATOM     15  C   UNL     1       2.443   1.587  -0.013  0.00  0.00    +0.159 C 
BRANCH  15  16
ATOM     16  C   UNL     1       2.914   1.438  -1.461  0.00  0.00    +0.248 C 
BRANCH  16  17
ATOM     17  O   UNL     1       2.923   2.719  -2.093  0.00  0.00    -0.490 OA
BRANCH  17  23
ATOM     18  C   UNL     1       4.503   0.380  -6.074  0.00  0.00    +0.044 C 
ATOM     19  C   UNL     1       4.097   1.646  -5.365  0.00  0.00    -0.047 A 
ATOM     20  C   UNL     1       4.129   2.854  -6.036  0.00  0.00    +0.007 A 
ATOM     21  C   UNL     1       3.757   4.018  -5.388  0.00  0.00    -0.047 A 
ATOM     22  C   UNL     1       3.353   3.975  -4.067  0.00  0.00    +0.049 A 
ATOM     23  C   UNL     1       3.320   2.764  -3.392  0.00  0.00    +0.121 A 
ATOM     24  C   UNL     1       3.699   1.599  -4.043  0.00  0.00    +0.049 A 
ATOM     25  C   UNL     1       3.794   5.333  -6.122  0.00  0.00    +0.044 C 
ENDBRANCH  17  23
ENDBRANCH  16  17
ENDBRANCH  15  16
ENDBRANCH   1  15
BRANCH   4  26
ATOM     26  C   UNL     1      -2.068   1.870   1.279  0.00  0.00    +0.075 C 
BRANCH  26  27
ATOM     27  C   UNL     1      -1.268   2.268   2.493  0.00  0.00    -0.045 A 
ATOM     28  C   UNL     1      -0.470   1.337   3.131  0.00  0.00    +0.004 A 
ATOM     29  C   UNL     1       0.267   1.703   4.241  0.00  0.00    +0.000 A 
ATOM     30  C   UNL     1       0.199   2.998   4.719  0.00  0.00    +0.000 A 
ATOM     31  C   UNL     1      -0.603   3.928   4.084  0.00  0.00    +0.000 A 
ATOM     32  C   UNL     1      -1.337   3.563   2.971  0.00  0.00    +0.004 A 
ENDBRANCH  26  27
ENDBRANCH   4  26
TORSDOF 7
