REMARK  Name = ZINC58960843
REMARK  9 active torsions:
REMARK  status: ('A' for Active; 'I' for Inactive)
REMARK    1  A    between atoms: C_1  and  C_2
REMARK    2  A    between atoms: C_2  and  C_4
REMARK    3  A    between atoms: C_2  and  S_16
REMARK    4  A    between atoms: N_6  and  C_7
REMARK    5  A    between atoms: C_10  and  C_13
REMARK    6  A    between atoms: C_13  and  C_15
REMARK    7  A    between atoms: S_16  and  C_17
REMARK    8  A    between atoms: C_19  and  C_27
REMARK    9  A    between atoms: C_21  and  C_23
REMARK                            x       y       z     vdW  Elec       q    Type
REMARK                         _______ _______ _______ _____ _____    ______ ____
ROOT
ATOM      1  C   UNL     1      -0.135  -0.100   2.817  0.00  0.00    +0.190 A 
ATOM      2  N   UNL     1       0.243  -0.385   4.054  0.00  0.00    -0.222 NA
ATOM      3  C   UNL     1      -0.504  -0.016   5.092  0.00  0.00    +0.076 A 
ATOM      4  C   UNL     1      -1.695   0.678   4.857  0.00  0.00    +0.060 A 
ATOM      5  C   UNL     1      -2.050   0.954   3.549  0.00  0.00    +0.148 A 
ATOM      6  N   UNL     1      -1.256   0.560   2.565  0.00  0.00    -0.218 NA
ENDROOT
BRANCH   3   7
ATOM      7  C   UNL     1      -0.080  -0.336   6.476  0.00  0.00    +0.001 A 
ATOM      8  C   UNL     1      -0.872   0.049   7.557  0.00  0.00    +0.011 A 
ATOM      9  C   UNL     1      -0.473  -0.252   8.843  0.00  0.00    +0.020 A 
ATOM     10  C   UNL     1       0.712  -0.935   9.061  0.00  0.00    +0.041 A 
ATOM     11  C   UNL     1       1.502  -1.320   7.991  0.00  0.00    +0.020 A 
ATOM     12  C   UNL     1       1.109  -1.029   6.701  0.00  0.00    +0.011 A 
ATOM     13 CL   UNL     1       1.209  -1.309  10.682  0.00  0.00    -0.084 Cl
ENDBRANCH   3   7
BRANCH   5  14
ATOM     14  C   UNL     1      -3.325   1.698   3.247  0.00  0.00    +0.434 C 
ATOM     15  F   UNL     1      -3.066   3.073   3.217  0.00  0.00    -0.164 F 
ATOM     16  F   UNL     1      -3.820   1.290   2.004  0.00  0.00    -0.164 F 
ATOM     17  F   UNL     1      -4.272   1.423   4.239  0.00  0.00    -0.164 F 
ENDBRANCH   5  14
BRANCH   1  18
ATOM     18  S   UNL     1       0.884  -0.606   1.471  0.00  0.00    -0.074 S 
BRANCH  18  20
ATOM     19  C   UNL     1      -0.034   1.520   0.015  0.00  0.00    +0.029 C 
ATOM     20  C   UNL     1      -0.000  -0.010   0.003  0.00  0.00    +0.137 C 
BRANCH  20  21
ATOM     21  C   UNL     1       0.708  -0.487  -1.238  0.00  0.00    +0.230 C 
ATOM     22  O   UNL     1       1.868  -0.836  -1.179  0.00  0.00    -0.274 OA
ATOM     23  N   UNL     1       0.053  -0.526  -2.415  0.00  0.00    -0.285 N 
ATOM     24  H   UNL     1      -0.892  -0.311  -2.451  0.00  0.00    +0.155 HD
BRANCH  23  25
ATOM     25  C   UNL     1       0.733  -0.875  -3.580  0.00  0.00    +0.033 A 
ATOM     26  C   UNL     1       0.399  -0.267  -4.787  0.00  0.00    +0.024 A 
ATOM     27  C   UNL     1       1.066  -0.608  -5.936  0.00  0.00    +0.013 A 
ATOM     28  C   UNL     1       2.083  -1.569  -5.893  0.00  0.00    +0.017 A 
ATOM     29  C   UNL     1       2.415  -2.178  -4.677  0.00  0.00    +0.013 A 
ATOM     30  C   UNL     1       1.747  -1.828  -3.532  0.00  0.00    +0.024 A 
BRANCH  28  31
ATOM     31  C   UNL     1       2.800  -1.937  -7.121  0.00  0.00    +0.160 C 
ATOM     32  O   UNL     1       2.511  -1.409  -8.174  0.00  0.00    -0.292 OA
ATOM     33  C   UNL     1       3.895  -2.972  -7.073  0.00  0.00    +0.091 C 
ENDBRANCH  28  31
ENDBRANCH  23  25
ENDBRANCH  20  21
ENDBRANCH  18  20
ENDBRANCH   1  18
TORSDOF 7
