REMARK  Name = ZINC01376681
REMARK  10 active torsions:
REMARK  status: ('A' for Active; 'I' for Inactive)
REMARK    1  A    between atoms: C_1  and  C_2
REMARK    2  A    between atoms: C_7  and  N_8
REMARK    3  A    between atoms: N_8  and  C_9
REMARK    4  A    between atoms: C_9  and  C_11
REMARK    5  A    between atoms: C_9  and  C_17
REMARK    6  A    between atoms: C_14  and  C_16
REMARK    7  A    between atoms: N_19  and  C_20
REMARK    8  A    between atoms: C_20  and  C_21
REMARK    9  A    between atoms: C_26  and  C_28
REMARK   10  A    between atoms: C_28  and  C_29
REMARK                            x       y       z     vdW  Elec       q    Type
REMARK                         _______ _______ _______ _____ _____    ______ ____
ROOT
ATOM      1  C   UNL     1      -2.971   4.289  -3.082  0.00  0.00    +0.233 C 
ENDROOT
BRANCH   1   2
ATOM      2  C   UNL     1      -4.439   4.101  -3.368  0.00  0.00    +0.135 A 
ATOM      3  C   UNL     1      -4.971   3.749  -4.552  0.00  0.00    +0.047 A 
ATOM      4  C   UNL     1      -6.372   3.687  -4.369  0.00  0.00    +0.045 A 
ATOM      5  C   UNL     1      -6.612   4.013  -3.087  0.00  0.00    +0.102 A 
ATOM      6  O   UNL     1      -5.438   4.263  -2.485  0.00  0.00    -0.462 OA
ATOM      7  C   UNL     1      -7.970   4.086  -2.436  0.00  0.00    +0.086 C 
ENDBRANCH   1   2
BRANCH   1   8
ATOM      8  C   UNL     1      -2.681   5.755  -2.890  0.00  0.00    +0.242 C 
ATOM      9  O   UNL     1      -2.220   6.150  -1.840  0.00  0.00    -0.273 OA
ATOM     10  N   UNL     1      -2.933   6.628  -3.885  0.00  0.00    -0.306 N 
ATOM     11  H   UNL     1      -3.301   6.313  -4.725  0.00  0.00    +0.149 HD
BRANCH  10  12
ATOM     12  C   UNL     1      -2.650   8.053  -3.699  0.00  0.00    +0.178 C 
BRANCH  12  13
ATOM     13  C   UNL     1      -3.018   8.807  -4.952  0.00  0.00    +0.122 A 
ATOM     14  C   UNL     1      -4.220   9.349  -5.218  0.00  0.00    +0.046 A 
ATOM     15  C   UNL     1      -4.122   9.954  -6.492  0.00  0.00    +0.041 A 
ATOM     16  C   UNL     1      -2.866   9.745  -6.928  0.00  0.00    +0.195 A 
ATOM     17  O   UNL     1      -2.201   9.055  -5.988  0.00  0.00    -0.466 OA
ENDBRANCH  12  13
ENDBRANCH  10  12
ENDBRANCH   1   8
BRANCH   1  18
ATOM     18  N   UNL     1      -2.614   3.557  -1.864  0.00  0.00    -0.252 N 
ATOM     19  C   UNL     1      -1.592   2.678  -1.882  0.00  0.00    +0.226 C 
ATOM     20  O   UNL     1      -0.969   2.493  -2.906  0.00  0.00    -0.275 OA
BRANCH  18  27
ATOM     21  C   UNL     1      -4.853   1.884  -1.333  0.00  0.00    +0.045 C 
ATOM     22  C   UNL     1      -4.432   2.977  -0.384  0.00  0.00    -0.029 A 
ATOM     23  C   UNL     1      -5.136   3.186   0.785  0.00  0.00    +0.005 A 
ATOM     24  C   UNL     1      -4.753   4.192   1.654  0.00  0.00    +0.000 A 
ATOM     25  C   UNL     1      -3.662   4.988   1.356  0.00  0.00    +0.002 A 
ATOM     26  C   UNL     1      -2.951   4.780   0.191  0.00  0.00    +0.024 A 
ATOM     27  C   UNL     1      -3.332   3.770  -0.683  0.00  0.00    +0.040 A 
ENDBRANCH  18  27
BRANCH  19  28
ATOM     28  C   UNL     1      -1.224   1.925  -0.630  0.00  0.00    +0.138 C 
BRANCH  28  29
ATOM     29  C   UNL     1      -0.058   1.014  -0.916  0.00  0.00    -0.001 A 
ATOM     30  C   UNL     1       1.270   1.270  -0.816  0.00  0.00    +0.011 A 
ATOM     31  C   UNL     1       2.171   0.273  -1.140  0.00  0.00    +0.008 A 
ATOM     32  C   UNL     1       1.700  -0.932  -1.547  0.00  0.00    +0.045 A 
ATOM     33  S   UNL     1      -0.066  -0.679  -1.481  0.00  0.00    -0.101 S 
ENDBRANCH  28  29
ENDBRANCH  19  28
ENDBRANCH   1  18
TORSDOF 8
