REMARK  Name = ZINC01178650
REMARK  4 active torsions:
REMARK  status: ('A' for Active; 'I' for Inactive)
REMARK    1  A    between atoms: C_4  and  N_7
REMARK    2  A    between atoms: C_9  and  C_27
REMARK    3  A    between atoms: C_10  and  C_12
REMARK    4  A    between atoms: N_28  and  O_29
REMARK                            x       y       z     vdW  Elec       q    Type
REMARK                         _______ _______ _______ _____ _____    ______ ____
ROOT
ATOM      1  N   UNL     1       3.674  -1.536  -0.512  0.00  0.00    -0.239 N 
ATOM      2  C   UNL     1       3.708  -0.894   0.673  0.00  0.00    +0.124 A 
ATOM      3  C   UNL     1       5.008  -0.566   0.940  0.00  0.00    +0.042 A 
ATOM      4  C   UNL     1       5.805  -1.059  -0.188  0.00  0.00    +0.109 A 
ATOM      5  N   UNL     1       4.970  -1.634  -1.027  0.00  0.00    -0.165 NA
ENDROOT
BRANCH   4   6
ATOM      6  C   UNL     1       7.271  -0.937  -0.350  0.00  0.00    +0.088 A 
ATOM      7  C   UNL     1       7.904   0.297  -0.303  0.00  0.00    +0.029 A 
ATOM      8  C   UNL     1       9.302   0.334  -0.497  0.00  0.00    +0.026 A 
ATOM      9  C   UNL     1      10.062   1.560  -0.247  0.00  0.00    -0.007 A 
ATOM     10  C   UNL     1       9.437   2.737   0.173  0.00  0.00    +0.009 A 
ATOM     11  C   UNL     1      10.186   3.856   0.395  0.00  0.00    +0.001 A 
ATOM     12  C   UNL     1      11.565   3.841   0.209  0.00  0.00    +0.001 A 
ATOM     13  C   UNL     1      12.204   2.709  -0.200  0.00  0.00    +0.008 A 
ATOM     14  C   UNL     1      11.464   1.540  -0.436  0.00  0.00    -0.017 A 
ATOM     15  C   UNL     1      12.092   0.351  -0.858  0.00  0.00    +0.012 A 
ATOM     16  C   UNL     1      11.373  -0.775  -1.096  0.00  0.00    +0.047 A 
ATOM     17  C   UNL     1       9.985  -0.809  -0.932  0.00  0.00    +0.140 A 
ATOM     18  O   UNL     1       9.294  -1.940  -1.214  0.00  0.00    -0.422 OA
ATOM     19  C   UNL     1       8.121  -2.120  -0.562  0.00  0.00    +0.347 A 
ATOM     20  O   UNL     1       7.778  -3.220  -0.168  0.00  0.00    -0.244 OA
ENDBRANCH   4   6
BRANCH   1  24
ATOM     21  C   UNL     1       0.237  -3.015  -2.348  0.00  0.00    +0.000 A 
ATOM     22  C   UNL     1       1.468  -3.173  -2.958  0.00  0.00    +0.002 A 
ATOM     23  C   UNL     1       2.609  -2.684  -2.353  0.00  0.00    +0.028 A 
ATOM     24  C   UNL     1       2.519  -2.033  -1.129  0.00  0.00    +0.065 A 
ATOM     25  C   UNL     1       1.281  -1.875  -0.519  0.00  0.00    +0.028 A 
ATOM     26  C   UNL     1       0.144  -2.367  -1.130  0.00  0.00    +0.002 A 
ENDBRANCH   1  24
BRANCH   3  27
ATOM     27  C   UNL     1       5.511   0.145   2.129  0.00  0.00    +0.164 C 
ATOM     28  N   UNL     1       6.785   0.299   2.301  0.00  0.00    -0.095 NA
BRANCH  28  29
ATOM     29  O   UNL     1       7.272   0.887   3.493  0.00  0.00    -0.409 OA
ATOM     30  H   UNL     1       8.235   0.959   3.531  0.00  0.00    +0.328 HD
ENDBRANCH  28  29
ENDBRANCH   3  27
TORSDOF 4
