REMARK  Name = ZINC35566791
REMARK  15 active torsions:
REMARK  status: ('A' for Active; 'I' for Inactive)
REMARK    1  A    between atoms: C_1  and  C_2
REMARK    2  A    between atoms: C_5  and  O_34
REMARK    3  A    between atoms: C_7  and  C_24
REMARK    4  A    between atoms: C_7  and  C_25
REMARK    5  A    between atoms: C_14  and  C_16
REMARK    6  A    between atoms: C_17  and  C_18
REMARK    7  A    between atoms: C_25  and  O_26
REMARK    8  A    between atoms: O_26  and  C_27
REMARK    9  A    between atoms: C_27  and  C_29
REMARK   10  A    between atoms: C_29  and  C_30
REMARK   11  A    between atoms: C_30  and  C_31
REMARK   12  A    between atoms: O_34  and  C_35
REMARK   13  A    between atoms: C_35  and  C_37
REMARK   14  A    between atoms: C_37  and  C_38
REMARK   15  A    between atoms: C_38  and  C_39
REMARK                            x       y       z     vdW  Elec       q    Type
REMARK                         _______ _______ _______ _____ _____    ______ ____
ROOT
ATOM      1  C   UNL     1       0.068   1.521   0.002  0.00  0.00    +0.012 C 
ATOM      2  C   UNL     1       0.072  -0.007  -0.003  0.00  0.00    -0.018 C 
ATOM      3  C   UNL     1      -1.369  -0.523   0.010  0.00  0.00    +0.011 C 
ATOM      4  C   UNL     1      -2.026  -0.216   1.354  0.00  0.00    +0.046 C 
ATOM      5  C   UNL     1      -1.274  -0.940   2.465  0.00  0.00    +0.186 C 
ATOM      6  C   UNL     1       0.191  -0.507   2.515  0.00  0.00    +0.042 C 
ATOM      7  C   UNL     1       0.860  -0.596   1.157  0.00  0.00    +0.009 C 
ATOM      8  C   UNL     1       2.281  -0.035   1.192  0.00  0.00    +0.009 C 
ATOM      9  C   UNL     1       3.023  -0.493  -0.073  0.00  0.00    +0.031 C 
ATOM     10  C   UNL     1       2.199  -0.105  -1.279  0.00  0.00    -0.069 C 
ATOM     11  C   UNL     1       2.749   0.539  -2.283  0.00  0.00    +0.008 C 
ATOM     12  C   UNL     1       0.734  -0.476  -1.315  0.00  0.00    +0.043 C 
ATOM     13  C   UNL     1       0.297   0.889   3.127  0.00  0.00    +0.018 C 
ENDROOT
BRANCH  12  14
ATOM     14  C   UNL     1       0.081   0.212  -2.486  0.00  0.00    -0.018 C 
ATOM     15  C   UNL     1      -0.515  -0.506  -3.428  0.00  0.00    +0.011 C 
BRANCH  15  16
ATOM     16  C   UNL     1      -1.156   0.169  -4.577  0.00  0.00    +0.058 C 
ATOM     17  C   UNL     1      -1.795  -0.444  -5.590  0.00  0.00    +0.028 C 
ATOM     18  C   UNL     1      -2.280   0.644  -6.518  0.00  0.00    +0.261 C 
ATOM     19  O   UNL     1      -1.865   1.887  -5.943  0.00  0.00    -0.457 OA
ATOM     20  C   UNL     1      -1.208   1.625  -4.799  0.00  0.00    +0.339 C 
ATOM     21  O   UNL     1      -0.727   2.462  -4.062  0.00  0.00    -0.245 OA
ENDBRANCH  15  16
ENDBRANCH  12  14
BRANCH   6  22
ATOM     22  C   UNL     1       0.906  -1.486   3.475  0.00  0.00    +0.242 C 
BRANCH  22  23
ATOM     23  O   UNL     1       0.306  -1.407   4.770  0.00  0.00    -0.464 OA
BRANCH  23  24
ATOM     24  C   UNL     1       0.814  -2.199   5.727  0.00  0.00    +0.308 C 
ATOM     25  O   UNL     1       1.738  -2.935   5.474  0.00  0.00    -0.251 OA
BRANCH  24  26
ATOM     26  C   UNL     1       0.232  -2.170   7.117  0.00  0.00    +0.132 C 
BRANCH  26  27
ATOM     27  C   UNL     1       0.987  -3.159   8.006  0.00  0.00    +0.136 C 
BRANCH  27  28
ATOM     28  C   UNL     1       0.405  -3.131   9.396  0.00  0.00    +0.357 C 
ATOM     29  O   UNL     1      -0.527  -2.387   9.651  0.00  0.00    -0.246 OA
ATOM     30  O   UNL     1       0.867  -3.850  10.265  0.00  0.00    -0.246 OA
ENDBRANCH  27  28
ENDBRANCH  26  27
ENDBRANCH  24  26
ENDBRANCH  23  24
ENDBRANCH  22  23
ENDBRANCH   6  22
BRANCH   5  31
ATOM     31  O   UNL     1      -1.891  -0.654   3.725  0.00  0.00    -0.461 OA
BRANCH  31  32
ATOM     32  C   UNL     1      -2.869  -1.482   4.126  0.00  0.00    +0.308 C 
ATOM     33  O   UNL     1      -3.190  -2.418   3.433  0.00  0.00    -0.251 OA
BRANCH  32  34
ATOM     34  C   UNL     1      -3.565  -1.244   5.441  0.00  0.00    +0.132 C 
BRANCH  34  35
ATOM     35  C   UNL     1      -4.628  -2.322   5.658  0.00  0.00    +0.136 C 
BRANCH  35  36
ATOM     36  C   UNL     1      -5.325  -2.084   6.973  0.00  0.00    +0.357 C 
ATOM     37  O   UNL     1      -5.000  -1.140   7.672  0.00  0.00    -0.246 OA
ATOM     38  O   UNL     1      -6.213  -2.836   7.338  0.00  0.00    -0.246 OA
ENDBRANCH  35  36
ENDBRANCH  34  35
ENDBRANCH  32  34
ENDBRANCH  31  32
ENDBRANCH   5  31
TORSDOF 13
