REMARK  Name = ZINC20558418
REMARK  6 active torsions:
REMARK  status: ('A' for Active; 'I' for Inactive)
REMARK    1  A    between atoms: C_1  and  C_2
REMARK    2  A    between atoms: C_2  and  N_3
REMARK    3  A    between atoms: C_15  and  C_23
REMARK    4  A    between atoms: C_17  and  C_21
REMARK    5  A    between atoms: C_18  and  N_20
REMARK    6  A    between atoms: C_27  and  C_29
REMARK                            x       y       z     vdW  Elec       q    Type
REMARK                         _______ _______ _______ _____ _____    ______ ____
ROOT
ATOM      1  N   UNL     1      -2.460   3.760   0.049  0.00  0.00    -0.203 N 
ATOM      2  C   UNL     1      -1.213   3.142  -0.100  0.00  0.00    +0.062 A 
ATOM      3  C   UNL     1      -1.165   1.760  -0.239  0.00  0.00    +0.025 A 
ATOM      4  C   UNL     1       0.050   1.118  -0.369  0.00  0.00    +0.002 A 
ATOM      5  C   UNL     1       1.224   1.851  -0.374  0.00  0.00    +0.001 A 
ATOM      6  C   UNL     1       1.191   3.222  -0.247  0.00  0.00    +0.013 A 
ATOM      7  C   UNL     1      -0.034   3.889  -0.111  0.00  0.00    +0.042 A 
ATOM      8  C   UNL     1      -0.008   5.366   0.003  0.00  0.00    +0.162 C 
ATOM      9  C   UNL     1      -1.052   6.050   0.461  0.00  0.00    +0.141 C 
ATOM     10  S   UNL     1      -2.506   5.164   0.943  0.00  0.00    +0.075 S 
ATOM     11  O   UNL     1      -3.622   5.914   0.482  0.00  0.00    -0.150 OA
ATOM     12  O   UNL     1      -2.336   4.795   2.305  0.00  0.00    -0.150 OA
ATOM     13  C   UNL     1      -1.028   7.548   0.580  0.00  0.00    +0.118 C 
ATOM     14  C   UNL     1       0.390   8.050   0.536  0.00  0.00    +0.099 C 
ATOM     15  C   UNL     1       1.381   7.254   0.062  0.00  0.00    +0.199 C 
ATOM     16  O   UNL     1       1.126   6.012  -0.381  0.00  0.00    -0.439 OA
ENDROOT
BRANCH  13  17
ATOM     17  C   UNL     1      -1.806   8.152  -0.561  0.00  0.00    -0.033 A 
ATOM     18  C   UNL     1      -1.415   7.917  -1.866  0.00  0.00    +0.004 A 
ATOM     19  C   UNL     1      -2.131   8.468  -2.912  0.00  0.00    +0.001 A 
ATOM     20  C   UNL     1      -3.233   9.261  -2.654  0.00  0.00    +0.003 A 
ATOM     21  C   UNL     1      -3.621   9.500  -1.349  0.00  0.00    -0.050 A 
ATOM     22  C   UNL     1      -2.908   8.946  -0.302  0.00  0.00    +0.008 A 
ATOM     23  C   UNL     1      -4.823  10.365  -1.067  0.00  0.00    +0.044 C 
ENDBRANCH  13  17
BRANCH  15  24
ATOM     24  N   UNL     1       2.669   7.727   0.033  0.00  0.00    -0.328 N 
ATOM     25  H   UNL     1       3.481   7.091  -0.349  0.00  0.00    +0.145 HD
ATOM     26  H   UNL     1       2.890   8.743   0.394  0.00  0.00    +0.145 HD
ENDBRANCH  15  24
BRANCH   1  28
ATOM     27  C   UNL     1      -3.769   3.646  -2.014  0.00  0.00    +0.026 C 
ATOM     28  C   UNL     1      -3.671   3.197  -0.555  0.00  0.00    +0.128 C 
ENDBRANCH   1  28
BRANCH  14  29
ATOM     29  C   UNL     1       0.694   9.370   0.998  0.00  0.00    +0.101 C 
ATOM     30  N   UNL     1       0.936  10.418   1.365  0.00  0.00    -0.191 NA
ENDBRANCH  14  29
TORSDOF 4
