REMARK  Name = ZINC00940721
REMARK  5 active torsions:
REMARK  status: ('A' for Active; 'I' for Inactive)
REMARK    1  A    between atoms: C_1  and  C_2
REMARK    2  A    between atoms: C_3  and  C_27
REMARK    3  A    between atoms: C_4  and  C_19
REMARK    4  A    between atoms: C_10  and  C_12
REMARK    5  A    between atoms: C_22  and  C_25
REMARK                            x       y       z     vdW  Elec       q    Type
REMARK                         _______ _______ _______ _____ _____    ______ ____
ROOT
ATOM      1  C   UNL     1       0.641   1.234   0.151  0.00  0.00    +0.066 C 
ATOM      2  C   UNL     1       0.389  -0.248   0.058  0.00  0.00    +0.052 C 
ATOM      3  C   UNL     1      -0.882  -0.691  -0.181  0.00  0.00    +0.061 C 
ATOM      4  C   UNL     1      -1.089  -2.193  -0.267  0.00  0.00    +0.164 C 
ATOM      5  N   UNL     1       0.109  -3.021  -0.083  0.00  0.00    -0.207 N 
ATOM      6  C   UNL     1       1.315  -2.403   0.150  0.00  0.00    +0.237 C 
ATOM      7  N   UNL     1       1.407  -1.083   0.204  0.00  0.00    -0.218 NA
ATOM      8  N   UNL     1       2.240  -3.366   0.282  0.00  0.00    -0.196 NA
ATOM      9  C   UNL     1       1.687  -4.555   0.146  0.00  0.00    +0.147 C 
ATOM     10  N   UNL     1       0.347  -4.397  -0.086  0.00  0.00    -0.244 N 
ATOM     11  H   UNL     1      -0.307  -5.101  -0.224  0.00  0.00    +0.172 HD
ENDROOT
BRANCH   9  12
ATOM     12  C   UNL     1       2.397  -5.846   0.228  0.00  0.00    +0.035 A 
ATOM     13  C   UNL     1       1.698  -7.044   0.059  0.00  0.00    +0.013 A 
ATOM     14  C   UNL     1       2.368  -8.246   0.138  0.00  0.00    +0.001 A 
ATOM     15  C   UNL     1       3.730  -8.270   0.384  0.00  0.00    +0.001 A 
ATOM     16  C   UNL     1       4.430  -7.089   0.552  0.00  0.00    +0.021 A 
ATOM     17  C   UNL     1       3.774  -5.876   0.471  0.00  0.00    +0.051 A 
ATOM     18 CL   UNL     1       4.655  -4.394   0.675  0.00  0.00    -0.083 Cl
ENDBRANCH   9  12
BRANCH   4  19
ATOM     19  C   UNL     1      -1.670  -2.510  -1.621  0.00  0.00    -0.021 A 
ATOM     20  C   UNL     1      -0.883  -2.397  -2.752  0.00  0.00    +0.007 A 
ATOM     21  C   UNL     1      -1.409  -2.686  -3.995  0.00  0.00    +0.019 A 
ATOM     22  C   UNL     1      -2.739  -3.094  -4.108  0.00  0.00    +0.052 A 
ATOM     23  C   UNL     1      -3.528  -3.207  -2.962  0.00  0.00    +0.019 A 
ATOM     24  C   UNL     1      -2.988  -2.919  -1.725  0.00  0.00    +0.007 A 
BRANCH  22  25
ATOM     25  C   UNL     1      -3.292  -3.395  -5.394  0.00  0.00    +0.099 C 
ATOM     26  N   UNL     1      -3.730  -3.634  -6.415  0.00  0.00    -0.191 NA
ENDBRANCH  22  25
ENDBRANCH   4  19
BRANCH   3  27
ATOM     27  C   UNL     1      -1.953   0.207  -0.341  0.00  0.00    +0.241 C 
ATOM     28  O   UNL     1      -1.742   1.407  -0.382  0.00  0.00    -0.271 OA
ATOM     29  N   UNL     1      -3.213  -0.259  -0.448  0.00  0.00    -0.325 N 
ATOM     30  H   UNL     1      -3.390  -1.206  -0.339  0.00  0.00    +0.145 HD
ATOM     31  H   UNL     1      -3.942   0.353  -0.634  0.00  0.00    +0.145 HD
ENDBRANCH   3  27
TORSDOF 4
