REMARK  Name = ZINC44854496
REMARK  13 active torsions:
REMARK  status: ('A' for Active; 'I' for Inactive)
REMARK    1  A    between atoms: C_1  and  C_2
REMARK    2  A    between atoms: C_2  and  C_4
REMARK    3  A    between atoms: C_2  and  C_10
REMARK    4  A    between atoms: C_4  and  C_5
REMARK    5  A    between atoms: C_5  and  C_6
REMARK    6  A    between atoms: C_6  and  C_7
REMARK    7  A    between atoms: C_7  and  C_8
REMARK    8  A    between atoms: C_7  and  C_9
REMARK    9  A    between atoms: C_16  and  C_40
REMARK   10  A    between atoms: C_27  and  C_39
REMARK   11  A    between atoms: N_32  and  O_38
REMARK   12  A    between atoms: C_33  and  C_36
REMARK   13  A    between atoms: C_33  and  C_37
REMARK                            x       y       z     vdW  Elec       q    Type
REMARK                         _______ _______ _______ _____ _____    ______ ____
ROOT
ATOM      1  C   UNL     1       0.718  -0.497  -1.257  0.00  0.00    -0.002 C 
ATOM      2  C   UNL     1      -0.054  -0.051  -2.523  0.00  0.00    +0.004 C 
ATOM      3  C   UNL     1      -0.399  -1.348  -3.305  0.00  0.00    +0.004 C 
ATOM      4  C   UNL     1       0.669  -2.335  -2.821  0.00  0.00    -0.001 C 
ATOM      5  C   UNL     1       0.721  -2.022  -1.300  0.00  0.00    -0.026 C 
ATOM      6  C   UNL     1       1.947  -2.713  -0.735  0.00  0.00    +0.007 C 
ATOM      7  C   UNL     1       1.732  -4.228  -0.894  0.00  0.00    +0.005 C 
ATOM      8  C   UNL     1       1.492  -4.606  -2.351  0.00  0.00    -0.001 C 
ATOM      9  C   UNL     1       0.331  -3.806  -2.977  0.00  0.00    -0.004 C 
ATOM     10  C   UNL     1       0.193  -4.167  -4.457  0.00  0.00    +0.004 C 
ATOM     11  C   UNL     1      -0.104  -5.662  -4.588  0.00  0.00    +0.004 C 
ATOM     12  C   UNL     1       1.042  -6.468  -3.975  0.00  0.00    -0.001 C 
ATOM     13  C   UNL     1       1.188  -6.101  -2.460  0.00  0.00    -0.026 C 
ATOM     14  C   UNL     1       2.345  -6.900  -1.855  0.00  0.00    +0.011 C 
ATOM     15  C   UNL     1       2.040  -8.396  -1.956  0.00  0.00    +0.054 C 
ATOM     16  C   UNL     1       1.847  -8.782  -3.419  0.00  0.00    +0.146 C 
ATOM     17  C   UNL     1       0.736  -7.963  -4.100  0.00  0.00    +0.057 C 
ATOM     18  N   UNL     1       3.095  -8.555  -4.174  0.00  0.00    -0.152 NA
ATOM     19  C   UNL     1       3.179  -9.662  -5.154  0.00  0.00    +0.068 C 
ATOM     20  C   UNL     1       1.922 -10.519  -4.887  0.00  0.00    +0.186 C 
ATOM     21  O   UNL     1       1.567 -10.190  -3.523  0.00  0.00    -0.355 OA
ATOM     22  C   UNL     1       3.156  -9.113  -6.582  0.00  0.00    +0.032 C 
ATOM     23  C   UNL     1       4.446 -10.488  -4.920  0.00  0.00    +0.032 C 
ATOM     24  C   UNL     1      -0.102  -6.416  -1.700  0.00  0.00    +0.012 C 
ATOM     25  C   UNL     1      -0.537  -2.561  -0.618  0.00  0.00    +0.012 C 
ENDROOT
BRANCH   1  27
ATOM     26  C   UNL     1      -0.019   1.526   0.010  0.00  0.00    +0.008 C 
ATOM     27  C   UNL     1       0.002  -0.004   0.002  0.00  0.00    -0.010 C 
BRANCH  27  28
ATOM     28  C   UNL     1       0.742  -0.511   1.242  0.00  0.00    +0.003 C 
BRANCH  28  29
ATOM     29  C   UNL     1      -0.042  -0.124   2.497  0.00  0.00    +0.001 C 
BRANCH  29  30
ATOM     30  C   UNL     1       0.698  -0.630   3.737  0.00  0.00    +0.003 C 
BRANCH  30  31
ATOM     31  C   UNL     1      -0.085  -0.243   4.992  0.00  0.00    -0.017 C 
ATOM     32  C   UNL     1       0.587  -0.856   6.223  0.00  0.00    +0.007 C 
ATOM     33  C   UNL     1      -0.108   1.280   5.130  0.00  0.00    +0.007 C 
ENDBRANCH  30  31
ENDBRANCH  29  30
ENDBRANCH  28  29
ENDBRANCH  27  28
ENDBRANCH   1  27
BRANCH  18  34
ATOM     34  O   UNL     1       4.255  -8.556  -3.281  0.00  0.00    -0.309 OA
ATOM     35  H   UNL     1       5.098  -8.410  -3.732  0.00  0.00    +0.237 HD
ENDBRANCH  18  34
TORSDOF 6
