REMARK  Name = ZINC12453975
REMARK  7 active torsions:
REMARK  status: ('A' for Active; 'I' for Inactive)
REMARK    1  A    between atoms: C_1  and  N_2
REMARK    2  A    between atoms: C_4  and  C_7
REMARK    3  A    between atoms: C_7  and  N_8
REMARK    4  A    between atoms: C_19  and  N_54
REMARK    5  A    between atoms: C_23  and  C_24
REMARK    6  A    between atoms: C_23  and  N_54
REMARK    7  A    between atoms: C_24  and  C_25
REMARK                            x       y       z     vdW  Elec       q    Type
REMARK                         _______ _______ _______ _____ _____    ______ ____
ROOT
ATOM      1  N   UNL     1       4.047   0.755  -1.414  0.00  0.00    -0.294 N 
ATOM      2  C   UNL     1       4.292  -0.420  -2.047  0.00  0.00    +0.203 A 
ATOM      3  N   UNL     1       4.711  -0.447  -3.284  0.00  0.00    -0.230 NA
ATOM      4  C   UNL     1       4.922   0.680  -3.959  0.00  0.00    +0.116 A 
ATOM      5  C   UNL     1       4.702   1.943  -3.387  0.00  0.00    +0.076 A 
ATOM      6  C   UNL     1       4.237   1.937  -2.031  0.00  0.00    +0.263 A 
ATOM      7  O   UNL     1       4.019   2.983  -1.446  0.00  0.00    -0.267 OA
ATOM      8  C   UNL     1       4.976   3.092  -4.248  0.00  0.00    -0.023 A 
ATOM      9  C   UNL     1       5.411   2.830  -5.499  0.00  0.00    -0.006 A 
ATOM     10  S   UNL     1       5.479   1.062  -5.600  0.00  0.00    -0.073 S 
ATOM     11  C   UNL     1       5.757   3.822  -6.566  0.00  0.00    +0.027 C 
ATOM     12  C   UNL     1       5.192   5.190  -6.157  0.00  0.00    -0.067 C 
ATOM     13  C   UNL     1       5.572   5.462  -4.699  0.00  0.00    -0.011 C 
ATOM     14  C   UNL     1       4.787   4.531  -3.775  0.00  0.00    +0.035 C 
ENDROOT
BRANCH  12  15
ATOM     15  N   UNL     1       5.770   6.242  -7.015  0.00  0.00    +0.381 N 
ATOM     16  H   UNL     1       6.742   5.999  -7.241  0.00  0.00    -0.086 HD
ATOM     17  H   UNL     1       5.749   7.138  -6.514  0.00  0.00    -0.086 HD
BRANCH  15  18
ATOM     18  C   UNL     1       4.997   6.365  -8.265  0.00  0.00    -0.078 C 
BRANCH  18  19
ATOM     19  C   UNL     1       5.619   7.461  -9.133  0.00  0.00    +0.016 C 
BRANCH  19  20
ATOM     20  C   UNL     1       4.834   7.594 -10.413  0.00  0.00    -0.049 A 
ATOM     21  C   UNL     1       5.188   6.845 -11.521  0.00  0.00    +0.006 A 
ATOM     22  C   UNL     1       4.466   6.962 -12.694  0.00  0.00    +0.038 A 
ATOM     23  C   UNL     1       3.395   7.837 -12.762  0.00  0.00    +0.123 A 
ATOM     24  C   UNL     1       3.045   8.590 -11.654  0.00  0.00    +0.038 A 
ATOM     25  C   UNL     1       3.765   8.468 -10.481  0.00  0.00    +0.006 A 
ATOM     26  F   UNL     1       2.692   7.956 -13.910  0.00  0.00    -0.205 F 
ENDBRANCH  19  20
ENDBRANCH  18  19
ENDBRANCH  15  18
ENDBRANCH  12  15
BRANCH   1  27
ATOM     27  C   UNL     1       3.572   0.738  -0.028  0.00  0.00    +0.164 C 
BRANCH  27  31
ATOM     28  C   UNL     1      -1.171  -0.882   0.008  0.00  0.00    +0.172 C 
ATOM     29  N   UNL     1       0.002  -0.004   0.002  0.00  0.00    -0.274 N 
ATOM     30  C   UNL     1       1.292  -0.402  -0.012  0.00  0.00    +0.113 A 
ATOM     31  C   UNL     1       2.066   0.708  -0.014  0.00  0.00    +0.010 A 
ATOM     32  C   UNL     1       1.220   1.822   0.000  0.00  0.00    +0.139 A 
ATOM     33  N   UNL     1      -0.017   1.397   0.010  0.00  0.00    -0.180 NA
ENDBRANCH  27  31
ENDBRANCH   1  27
TORSDOF 6
