REMARK  Name = ZINC35442694
REMARK  10 active torsions:
REMARK  status: ('A' for Active; 'I' for Inactive)
REMARK    1  A    between atoms: C_1  and  C_2
REMARK    2  A    between atoms: C_4  and  C_29
REMARK    3  A    between atoms: C_6  and  C_26
REMARK    4  A    between atoms: C_9  and  C_11
REMARK    5  A    between atoms: C_11  and  C_12
REMARK    6  A    between atoms: C_15  and  C_17
REMARK    7  A    between atoms: C_20  and  N_23
REMARK    8  A    between atoms: C_26  and  C_27
REMARK    9  A    between atoms: C_26  and  C_28
REMARK   10  A    between atoms: C_29  and  N_30
REMARK                            x       y       z     vdW  Elec       q    Type
REMARK                         _______ _______ _______ _____ _____    ______ ____
ROOT
ATOM      1  C   UNL     1      -0.177   1.194  -0.005  0.00  0.00    +0.039 C 
ATOM      2  C   UNL     1      -0.139  -0.311  -0.064  0.00  0.00    -0.073 C 
ATOM      3  C   UNL     1       0.114  -0.868  -1.205  0.00  0.00    -0.026 C 
ATOM      4  C   UNL     1       0.174  -2.352  -1.421  0.00  0.00    -0.002 C 
ATOM      5  C   UNL     1       0.322  -3.075  -0.081  0.00  0.00    -0.003 C 
ATOM      6  C   UNL     1      -0.738  -2.529   0.884  0.00  0.00    +0.012 C 
ATOM      7  C   UNL     1      -0.392  -1.071   1.205  0.00  0.00    +0.024 C 
ENDROOT
BRANCH   5   8
ATOM      8  C   UNL     1       0.116  -4.577  -0.281  0.00  0.00    -0.014 C 
ATOM      9  C   UNL     1       0.400  -5.310   1.031  0.00  0.00    +0.007 C 
ATOM     10  C   UNL     1      -1.328  -4.841  -0.712  0.00  0.00    +0.007 C 
ENDBRANCH   5   8
BRANCH   7  11
ATOM     11  C   UNL     1       0.861  -1.024   2.082  0.00  0.00    +0.105 C 
BRANCH  11  12
ATOM     12  C   UNL     1       1.119   0.397   2.512  0.00  0.00    +0.218 A 
ATOM     13  N   UNL     1       0.662   0.971   3.590  0.00  0.00    -0.112 NA
ATOM     14  N   UNL     1       1.081   2.186   3.641  0.00  0.00    -0.107 NA
ATOM     15  C   UNL     1       1.825   2.432   2.588  0.00  0.00    +0.248 A 
ATOM     16  O   UNL     1       1.868   1.301   1.856  0.00  0.00    -0.420 OA
BRANCH  15  17
ATOM     17  C   UNL     1       2.497   3.710   2.268  0.00  0.00    +0.039 A 
ATOM     18  C   UNL     1       3.257   3.829   1.104  0.00  0.00    +0.015 A 
ATOM     19  C   UNL     1       3.881   5.024   0.811  0.00  0.00    +0.033 A 
ATOM     20  C   UNL     1       3.755   6.103   1.669  0.00  0.00    +0.126 A 
ATOM     21  C   UNL     1       3.003   5.990   2.825  0.00  0.00    +0.033 A 
ATOM     22  C   UNL     1       2.369   4.803   3.126  0.00  0.00    +0.015 A 
BRANCH  20  23
ATOM     23  N   UNL     1       4.428   7.381   1.349  0.00  0.00    +0.056 N 
ATOM     24  O   UNL     1       5.086   7.482   0.339  0.00  0.00    -0.126 OA
ATOM     25  O   UNL     1       4.320   8.325   2.096  0.00  0.00    -0.126 OA
ENDBRANCH  20  23
ENDBRANCH  15  17
ENDBRANCH  11  12
ENDBRANCH   7  11
BRANCH   4  26
ATOM     26  C   UNL     1       1.373  -2.687  -2.310  0.00  0.00    -0.071 C 
BRANCH  26  27
ATOM     27  N   UNL     1       1.051  -2.369  -3.708  0.00  0.00    +0.380 N 
ATOM     28  C   UNL     1       0.956  -0.898  -3.890  0.00  0.00    -0.079 C 
ATOM     29  C   UNL     1       1.183  -0.714  -5.412  0.00  0.00    -0.020 C 
ATOM     30  C   UNL     1       2.255  -1.781  -5.733  0.00  0.00    -0.020 C 
ATOM     31  C   UNL     1       2.145  -2.816  -4.598  0.00  0.00    -0.079 C 
ATOM     32  H   UNL     1       0.184  -2.811  -3.974  0.00  0.00    -0.082 HD
ENDBRANCH  26  27
ENDBRANCH   4  26
TORSDOF 7
