REMARK  Name = ZINC09162806
REMARK  11 active torsions:
REMARK  status: ('A' for Active; 'I' for Inactive)
REMARK    1  A    between atoms: C_4  and  N_31
REMARK    2  A    between atoms: C_5  and  C_7
REMARK    3  A    between atoms: C_7  and  O_9
REMARK    4  A    between atoms: O_9  and  C_10
REMARK    5  A    between atoms: C_10  and  C_11
REMARK    6  A    between atoms: N_13  and  C_14
REMARK    7  A    between atoms: C_17  and  S_20
REMARK    8  A    between atoms: S_20  and  N_23
REMARK    9  A    between atoms: N_31  and  C_32
REMARK   10  A    between atoms: C_32  and  C_33
REMARK   11  A    between atoms: C_33  and  O_34
REMARK                            x       y       z     vdW  Elec       q    Type
REMARK                         _______ _______ _______ _____ _____    ______ ____
ROOT
ATOM      1  C   UNL     1      -0.376  -6.412  -0.143  0.00  0.00    +0.255 C 
ATOM      2  O   UNL     1      -0.716  -7.444  -0.681  0.00  0.00    -0.272 OA
ATOM      3  N   UNL     1      -1.240  -5.749   0.651  0.00  0.00    -0.283 N 
ATOM      4  H   UNL     1      -0.995  -4.887   1.021  0.00  0.00    +0.155 HD
ENDROOT
BRANCH   3   5
ATOM      5  C   UNL     1      -2.491  -6.305   0.941  0.00  0.00    +0.034 A 
ATOM      6  C   UNL     1      -3.594  -5.481   1.118  0.00  0.00    +0.025 A 
ATOM      7  C   UNL     1      -4.828  -6.033   1.405  0.00  0.00    +0.031 A 
ATOM      8  C   UNL     1      -4.964  -7.405   1.515  0.00  0.00    +0.113 A 
ATOM      9  C   UNL     1      -3.867  -8.228   1.339  0.00  0.00    +0.031 A 
ATOM     10  C   UNL     1      -2.632  -7.683   1.046  0.00  0.00    +0.025 A 
BRANCH   8  11
ATOM     11  S   UNL     1      -6.539  -8.105   1.880  0.00  0.00    +0.100 S 
ATOM     12  O   UNL     1      -6.293  -9.374   2.469  0.00  0.00    -0.146 OA
ATOM     13  O   UNL     1      -7.291  -7.093   2.537  0.00  0.00    -0.146 OA
BRANCH  11  14
ATOM     14  N   UNL     1      -7.295  -8.392   0.435  0.00  0.00    -0.118 NA
ATOM     15  C   UNL     1      -8.479  -8.910   0.416  0.00  0.00    +0.117 C 
ATOM     16  N   UNL     1      -9.150  -9.232   1.606  0.00  0.00    -0.331 N 
ATOM     17  C   UNL     1     -10.306  -8.452   1.938  0.00  0.00    +0.102 C 
ATOM     18  C   UNL     1     -11.642  -8.961   1.373  0.00  0.00    +0.019 C 
ATOM     19  C   UNL     1     -11.464  -9.439  -0.090  0.00  0.00    +0.002 C 
ATOM     20  C   UNL     1     -10.560  -8.546  -0.893  0.00  0.00    +0.008 C 
ATOM     21  C   UNL     1      -9.163  -9.171  -0.833  0.00  0.00    +0.073 C 
ATOM     22  H   UNL     1      -8.844  -9.953   2.179  0.00  0.00    +0.147 HD
ENDBRANCH  11  14
ENDBRANCH   8  11
ENDBRANCH   3   5
BRANCH   1  23
ATOM     23  C   UNL     1       1.014  -5.870  -0.361  0.00  0.00    +0.328 C 
BRANCH  23  24
ATOM     24  O   UNL     1       1.734  -6.744  -1.234  0.00  0.00    -0.452 OA
BRANCH  24  25
ATOM     25  C   UNL     1       3.002  -6.401  -1.533  0.00  0.00    +0.341 C 
ATOM     26  O   UNL     1       3.484  -5.388  -1.066  0.00  0.00    -0.245 OA
BRANCH  25  31
ATOM     27  C   UNL     1       3.977  -9.148  -3.894  0.00  0.00    +0.001 A 
ATOM     28  C   UNL     1       5.316  -8.862  -4.109  0.00  0.00    +0.002 A 
ATOM     29  C   UNL     1       5.908  -7.780  -3.490  0.00  0.00    +0.024 A 
ATOM     30  C   UNL     1       5.162  -6.967  -2.646  0.00  0.00    +0.041 A 
ATOM     31  C   UNL     1       3.805  -7.254  -2.426  0.00  0.00    +0.080 A 
ATOM     32  C   UNL     1       3.220  -8.354  -3.061  0.00  0.00    +0.017 A 
BRANCH  30  33
ATOM     33  N   UNL     1       5.755  -5.878  -2.022  0.00  0.00    -0.341 N 
ATOM     34  H   UNL     1       5.213  -5.260  -1.506  0.00  0.00    +0.146 HD
BRANCH  33  35
ATOM     35  C   UNL     1       7.199  -5.662  -2.142  0.00  0.00    +0.129 C 
BRANCH  35  36
ATOM     36  C   UNL     1       7.592  -4.403  -1.367  0.00  0.00    +0.174 C 
BRANCH  36  37
ATOM     37  O   UNL     1       7.355  -4.608   0.028  0.00  0.00    -0.393 OA
ATOM     38  H   UNL     1       7.582  -3.849   0.581  0.00  0.00    +0.209 HD
ENDBRANCH  36  37
ENDBRANCH  35  36
ENDBRANCH  33  35
ENDBRANCH  30  33
ENDBRANCH  25  31
ENDBRANCH  24  25
ENDBRANCH  23  24
ENDBRANCH   1  23
TORSDOF 11
