REMARK  Name = ZINC59170733
REMARK  8 active torsions:
REMARK  status: ('A' for Active; 'I' for Inactive)
REMARK    1  A    between atoms: C_1  and  O_2
REMARK    2  A    between atoms: O_2  and  C_3
REMARK    3  A    between atoms: C_8  and  N_9
REMARK    4  A    between atoms: C_10  and  C_12
REMARK    5  A    between atoms: C_16  and  N_33
REMARK    6  A    between atoms: N_22  and  C_23
REMARK    7  A    between atoms: C_26  and  S_29
REMARK    8  A    between atoms: S_29  and  N_32
REMARK                            x       y       z     vdW  Elec       q    Type
REMARK                         _______ _______ _______ _____ _____    ______ ____
ROOT
ATOM      1  C   UNL     1      -0.219  -4.888  -1.051  0.00  0.00    +0.098 A 
ATOM      2  C   UNL     1      -0.180  -6.275  -1.000  0.00  0.00    +0.030 A 
ATOM      3  C   UNL     1      -0.776  -7.007  -2.120  0.00  0.00    +0.020 A 
ATOM      4  C   UNL     1      -1.019  -8.383  -2.029  0.00  0.00    +0.044 A 
ATOM      5  C   UNL     1      -1.579  -9.043  -3.087  0.00  0.00    +0.127 A 
ATOM      6  C   UNL     1      -1.909  -8.360  -4.249  0.00  0.00    +0.036 A 
ATOM      7  C   UNL     1      -1.677  -7.004  -4.359  0.00  0.00    +0.049 A 
ATOM      8  C   UNL     1      -1.107  -6.314  -3.299  0.00  0.00    +0.138 A 
ATOM      9  O   UNL     1      -0.865  -4.984  -3.391  0.00  0.00    -0.439 OA
ATOM     10  C   UNL     1      -0.864  -4.276  -2.230  0.00  0.00    +0.212 A 
ATOM     11  N   UNL     1      -1.416  -3.084  -2.158  0.00  0.00    -0.325 N 
ATOM     12  H   UNL     1      -1.508  -2.644  -1.299  0.00  0.00    +0.169 HD
ENDROOT
BRANCH  11  13
ATOM     13  C   UNL     1      -1.859  -2.467  -3.295  0.00  0.00    +0.042 A 
ATOM     14  C   UNL     1      -1.068  -2.465  -4.447  0.00  0.00    +0.027 A 
ATOM     15  C   UNL     1      -1.521  -1.840  -5.590  0.00  0.00    +0.030 A 
ATOM     16  C   UNL     1      -2.757  -1.217  -5.598  0.00  0.00    +0.105 A 
ATOM     17  C   UNL     1      -3.546  -1.215  -4.461  0.00  0.00    +0.030 A 
ATOM     18  C   UNL     1      -3.107  -1.840  -3.312  0.00  0.00    +0.027 A 
BRANCH  16  19
ATOM     19  S   UNL     1      -3.328  -0.420  -7.062  0.00  0.00    +0.056 S 
ATOM     20  O   UNL     1      -4.273   0.557  -6.651  0.00  0.00    -0.153 OA
ATOM     21  O   UNL     1      -2.173  -0.091  -7.822  0.00  0.00    -0.153 OA
BRANCH  19  22
ATOM     22  N   UNL     1      -4.164  -1.549  -7.939  0.00  0.00    -0.204 NA
ATOM     23  H   UNL     1      -4.897  -1.273  -8.512  0.00  0.00    +0.144 HD
ATOM     24  H   UNL     1      -3.922  -2.487  -7.879  0.00  0.00    +0.144 HD
ENDBRANCH  19  22
ENDBRANCH  16  19
ENDBRANCH  11  13
BRANCH   1  26
ATOM     25  N   UNL     1       0.396  -2.722  -0.102  0.00  0.00    -0.278 N 
ATOM     26  C   UNL     1       0.353  -4.063   0.027  0.00  0.00    +0.253 C 
ATOM     27  O   UNL     1       0.786  -4.592   1.033  0.00  0.00    -0.270 OA
ATOM     28  H   UNL     1       0.008  -2.297  -0.883  0.00  0.00    +0.155 HD
BRANCH  25  34
ATOM     29  C   UNL     1       1.447  -0.656   0.595  0.00  0.00    +0.141 A 
ATOM     30  C   UNL     1       2.041   0.113   1.583  0.00  0.00    +0.047 A 
ATOM     31  C   UNL     1       2.195  -0.399   2.858  0.00  0.00    +0.004 A 
ATOM     32  C   UNL     1       1.758  -1.678   3.152  0.00  0.00    +0.002 A 
ATOM     33  C   UNL     1       1.165  -2.451   2.172  0.00  0.00    +0.027 A 
ATOM     34  C   UNL     1       1.002  -1.942   0.891  0.00  0.00    +0.076 A 
BRANCH  29  36
ATOM     35  C   UNL     1       1.776   1.172  -0.891  0.00  0.00    +0.277 C 
ATOM     36  O   UNL     1       1.295  -0.154  -0.660  0.00  0.00    -0.493 OA
ENDBRANCH  29  36
ENDBRANCH  25  34
ENDBRANCH   1  26
BRANCH   5  37
ATOM     37  N   UNL     1      -1.835 -10.497  -2.992  0.00  0.00    +0.056 N 
ATOM     38  O   UNL     1      -1.550 -11.097  -1.981  0.00  0.00    -0.126 OA
ATOM     39  O   UNL     1      -2.331 -11.086  -3.924  0.00  0.00    -0.126 OA
ENDBRANCH   5  37
TORSDOF 7
