REMARK  Name = ZINC08838302
REMARK  11 active torsions:
REMARK  status: ('A' for Active; 'I' for Inactive)
REMARK    1  A    between atoms: C_1  and  C_2
REMARK    2  A    between atoms: C_2  and  C_30
REMARK    3  A    between atoms: N_3  and  N_4
REMARK    4  A    between atoms: C_5  and  C_7
REMARK    5  A    between atoms: C_7  and  C_9
REMARK    6  A    between atoms: C_7  and  N_21
REMARK    7  A    between atoms: C_22  and  C_24
REMARK    8  A    between atoms: C_33  and  O_38
REMARK    9  A    between atoms: C_35  and  O_36
REMARK   10  A    between atoms: O_36  and  C_37
REMARK   11  A    between atoms: O_38  and  C_39
REMARK                            x       y       z     vdW  Elec       q    Type
REMARK                         _______ _______ _______ _____ _____    ______ ____
ROOT
ATOM      1  C   UNL     1      -1.143   7.779   0.055  0.00  0.00    +0.212 C 
ENDROOT
BRANCH   1   2
ATOM      2  C   UNL     1      -0.448   8.294  -1.180  0.00  0.00    +0.099 A 
ATOM      3  C   UNL     1       1.007   8.444  -1.191  0.00  0.00    +0.013 A 
ATOM      4  C   UNL     1       1.790   8.123  -0.080  0.00  0.00    +0.010 A 
ATOM      5  C   UNL     1       3.146   8.281  -0.139  0.00  0.00    +0.001 A 
ATOM      6  C   UNL     1       3.760   8.756  -1.291  0.00  0.00    +0.001 A 
ATOM      7  C   UNL     1       3.013   9.081  -2.402  0.00  0.00    +0.014 A 
ATOM      8  C   UNL     1       1.628   8.929  -2.365  0.00  0.00    +0.050 A 
ATOM      9  C   UNL     1       0.777   9.257  -3.515  0.00  0.00    +0.272 A 
ATOM     10  O   UNL     1       1.266   9.677  -4.549  0.00  0.00    -0.266 OA
ATOM     11  N   UNL     1      -0.557   9.083  -3.407  0.00  0.00    -0.242 N 
ATOM     12  H   UNL     1      -1.124   9.298  -4.163  0.00  0.00    +0.192 HD
ATOM     13  N   UNL     1      -1.141   8.598  -2.236  0.00  0.00    -0.173 NA
ENDBRANCH   1   2
BRANCH   1  15
ATOM     14  N   UNL     1       0.041   5.607   0.032  0.00  0.00    -0.205 N 
ATOM     15  C   UNL     1      -1.132   6.272   0.046  0.00  0.00    +0.259 C 
ATOM     16  O   UNL     1      -2.178   5.658   0.053  0.00  0.00    -0.272 OA
ATOM     17  H   UNL     1       0.877   6.098   0.026  0.00  0.00    +0.177 HD
BRANCH  14  20
ATOM     18  C   UNL     1       2.479   4.329   0.002  0.00  0.00    +0.068 C 
ATOM     19  C   UNL     1       1.180   3.566   0.010  0.00  0.00    +0.067 C 
ATOM     20  N   UNL     1       0.051   4.206   0.024  0.00  0.00    -0.184 NA
BRANCH  19  21
ATOM     21  C   UNL     1       1.191   2.093   0.002  0.00  0.00    +0.039 A 
ATOM     22  C   UNL     1       2.404   1.400  -0.014  0.00  0.00    +0.017 A 
ATOM     23  C   UNL     1       2.410   0.022  -0.021  0.00  0.00    +0.046 A 
ATOM     24  C   UNL     1       1.212  -0.682  -0.013  0.00  0.00    +0.124 A 
ATOM     25  C   UNL     1       0.002  -0.004   0.002  0.00  0.00    +0.091 A 
ATOM     26  C   UNL     1      -0.017   1.380   0.010  0.00  0.00    +0.132 A 
BRANCH  26  27
ATOM     27  O   UNL     1      -1.200   2.045   0.019  0.00  0.00    -0.494 OA
ATOM     28  C   UNL     1      -2.390   1.253   0.020  0.00  0.00    +0.277 C 
ENDBRANCH  26  27
BRANCH  24  29
ATOM     29  O   UNL     1       1.226  -2.041  -0.021  0.00  0.00    -0.495 OA
ATOM     30  C   UNL     1       2.506  -2.676  -0.036  0.00  0.00    +0.277 C 
ENDBRANCH  24  29
ENDBRANCH  19  21
ENDBRANCH  14  20
ENDBRANCH   1  15
BRANCH   1  31
ATOM     31  N   UNL     1      -2.527   8.258   0.070  0.00  0.00    -0.295 N 
ATOM     32  C   UNL     1      -2.814   9.475   0.573  0.00  0.00    +0.245 C 
ATOM     33  O   UNL     1      -1.924  10.176   1.013  0.00  0.00    -0.270 OA
ATOM     34  H   UNL     1      -3.238   7.698  -0.281  0.00  0.00    +0.150 HD
BRANCH  32  35
ATOM     35  C   UNL     1      -4.212   9.957   0.589  0.00  0.00    +0.037 A 
ATOM     36  C   UNL     1      -5.236   9.157   0.079  0.00  0.00    +0.013 A 
ATOM     37  C   UNL     1      -6.538   9.611   0.102  0.00  0.00    +0.001 A 
ATOM     38  C   UNL     1      -6.829  10.861   0.618  0.00  0.00    +0.000 A 
ATOM     39  C   UNL     1      -5.819  11.661   1.120  0.00  0.00    +0.001 A 
ATOM     40  C   UNL     1      -4.513  11.217   1.109  0.00  0.00    +0.013 A 
ENDBRANCH  32  35
ENDBRANCH   1  31
TORSDOF 8
