REMARK  Name = ZINC03281666
REMARK  14 active torsions:
REMARK  status: ('A' for Active; 'I' for Inactive)
REMARK    1  A    between atoms: C_1  and  C_2
REMARK    2  A    between atoms: C_5  and  C_35
REMARK    3  A    between atoms: C_6  and  S_8
REMARK    4  A    between atoms: S_8  and  O_11
REMARK    5  A    between atoms: O_11  and  C_12
REMARK    6  A    between atoms: C_15  and  C_20
REMARK    7  A    between atoms: C_17  and  O_18
REMARK    8  A    between atoms: O_18  and  C_19
REMARK    9  A    between atoms: N_21  and  N_22
REMARK   10  A    between atoms: C_23  and  C_25
REMARK   11  A    between atoms: C_25  and  O_26
REMARK   12  A    between atoms: O_26  and  C_27
REMARK   13  A    between atoms: C_32  and  O_33
REMARK   14  A    between atoms: O_33  and  C_34
REMARK                            x       y       z     vdW  Elec       q    Type
REMARK                         _______ _______ _______ _____ _____    ______ ____
ROOT
ATOM      1  C   UNL     1      -8.173   8.747   0.088  0.00  0.00    +0.198 A 
ATOM      2  C   UNL     1      -7.973   7.374   0.080  0.00  0.00    +0.053 A 
ATOM      3  C   UNL     1      -6.693   6.861   0.065  0.00  0.00    +0.013 A 
ATOM      4  C   UNL     1      -5.594   7.724   0.070  0.00  0.00    -0.002 A 
ATOM      5  C   UNL     1      -5.796   9.106   0.079  0.00  0.00    +0.059 A 
ATOM      6  C   UNL     1      -7.082   9.614   0.088  0.00  0.00    +0.165 A 
ENDROOT
BRANCH   6   7
ATOM      7  O   UNL     1      -7.282  10.959   0.096  0.00  0.00    -0.491 OA
ATOM      8  C   UNL     1      -6.119  11.788   0.094  0.00  0.00    +0.277 C 
ENDBRANCH   6   7
BRANCH   4   9
ATOM      9  C   UNL     1      -4.225   7.177   0.061  0.00  0.00    +0.138 C 
ATOM     10  N   UNL     1      -4.039   5.893   0.053  0.00  0.00    -0.188 NA
BRANCH  10  11
ATOM     11  N   UNL     1      -2.738   5.373   0.044  0.00  0.00    -0.204 N 
ATOM     12  C   UNL     1      -2.545   4.039   0.036  0.00  0.00    +0.270 C 
ATOM     13  O   UNL     1      -3.498   3.289   0.036  0.00  0.00    -0.270 OA
ATOM     14  H   UNL     1      -1.976   5.973   0.044  0.00  0.00    +0.177 HD
BRANCH  12  15
ATOM     15  C   UNL     1      -1.146   3.481   0.026  0.00  0.00    +0.326 C 
BRANCH  15  16
ATOM     16  O   UNL     1      -1.203   2.053   0.019  0.00  0.00    -0.479 OA
BRANCH  16  17
ATOM     17  C   UNL     1      -0.017   1.387   0.010  0.00  0.00    +0.163 A 
ATOM     18  C   UNL     1       1.175   2.093   0.002  0.00  0.00    +0.049 A 
ATOM     19  C   UNL     1       2.380   1.415  -0.013  0.00  0.00    +0.004 A 
ATOM     20  C   UNL     1       2.399   0.033  -0.021  0.00  0.00    +0.004 A 
ATOM     21  C   UNL     1       1.213  -0.677  -0.013  0.00  0.00    +0.049 A 
ATOM     22  C   UNL     1       0.002  -0.004   0.002  0.00  0.00    +0.162 A 
BRANCH  22  23
ATOM     23  O   UNL     1      -1.165  -0.702   0.009  0.00  0.00    -0.491 OA
ATOM     24  C   UNL     1      -1.069  -2.127   0.000  0.00  0.00    +0.277 C 
ENDBRANCH  22  23
ENDBRANCH  16  17
ENDBRANCH  15  16
ENDBRANCH  12  15
ENDBRANCH  10  11
ENDBRANCH   4   9
BRANCH   1  25
ATOM     25  O   UNL     1      -9.437   9.248   0.097  0.00  0.00    -0.339 OA
BRANCH  25  26
ATOM     26  S   UNL     1     -10.019   9.483  -1.289  0.00  0.00    +0.151 S 
ATOM     27  O   UNL     1     -11.237  10.191  -1.103  0.00  0.00    -0.131 OA
ATOM     28  O   UNL     1      -8.961   9.986  -2.094  0.00  0.00    -0.131 OA
BRANCH  26  34
ATOM     29  C   UNL     1      -8.850   5.172  -4.004  0.00  0.00    +0.044 C 
ATOM     30  C   UNL     1      -9.859   5.953  -3.202  0.00  0.00    -0.049 A 
ATOM     31  C   UNL     1     -11.121   5.434  -2.985  0.00  0.00    +0.004 A 
ATOM     32  C   UNL     1     -12.047   6.150  -2.250  0.00  0.00    +0.005 A 
ATOM     33  C   UNL     1     -11.710   7.387  -1.732  0.00  0.00    -0.022 A 
ATOM     34  C   UNL     1     -10.448   7.907  -1.949  0.00  0.00    +0.131 A 
ATOM     35  C   UNL     1      -9.524   7.192  -2.689  0.00  0.00    +0.034 A 
ATOM     36  C   UNL     1     -12.719   8.169  -0.931  0.00  0.00    +0.046 C 
ENDBRANCH  26  34
ENDBRANCH  25  26
ENDBRANCH   1  25
TORSDOF 10
