REMARK  Name = ZINC36491079
REMARK  7 active torsions:
REMARK  status: ('A' for Active; 'I' for Inactive)
REMARK    1  A    between atoms: C_3  and  C_10
REMARK    2  A    between atoms: C_5  and  N_7
REMARK    3  A    between atoms: N_12  and  C_13
REMARK    4  A    between atoms: N_12  and  C_19
REMARK    5  A    between atoms: C_19  and  C_21
REMARK    6  A    between atoms: C_19  and  C_26
REMARK    7  A    between atoms: N_28  and  C_29
REMARK                            x       y       z     vdW  Elec       q    Type
REMARK                         _______ _______ _______ _____ _____    ______ ____
ROOT
ATOM      1  C   UNL     1       3.744   2.303   0.485  0.00  0.00    +0.248 C 
ATOM      2  O   UNL     1       4.753   2.012   1.097  0.00  0.00    -0.270 OA
ATOM      3  N   UNL     1       3.643   3.505  -0.117  0.00  0.00    -0.276 N 
ENDROOT
BRANCH   1   6
ATOM      4  C   UNL     1       0.273   0.890   0.236  0.00  0.00    +0.003 A 
ATOM      5  C   UNL     1       1.311   1.795   0.315  0.00  0.00    +0.013 A 
ATOM      6  C   UNL     1       2.627   1.338   0.401  0.00  0.00    +0.039 A 
ATOM      7  C   UNL     1       2.883  -0.034   0.407  0.00  0.00    +0.045 A 
ATOM      8  C   UNL     1       1.837  -0.929   0.328  0.00  0.00    +0.127 A 
ATOM      9  C   UNL     1       0.534  -0.469   0.243  0.00  0.00    +0.033 A 
BRANCH   8  10
ATOM     10  N   UNL     1       2.107  -2.384   0.334  0.00  0.00    +0.056 N 
ATOM     11  O   UNL     1       3.244  -2.787   0.409  0.00  0.00    -0.126 OA
ATOM     12  O   UNL     1       1.190  -3.169   0.265  0.00  0.00    -0.126 OA
ENDBRANCH   8  10
ENDBRANCH   1   6
BRANCH   3  13
ATOM     13  C   UNL     1       2.369   4.227  -0.101  0.00  0.00    +0.078 C 
ATOM     14  C   UNL     1       1.458   3.678  -1.200  0.00  0.00    +0.022 C 
ATOM     15  C   UNL     1       0.127   4.433  -1.183  0.00  0.00    +0.002 C 
ATOM     16  C   UNL     1      -0.547   4.248   0.178  0.00  0.00    +0.000 C 
ATOM     17  C   UNL     1       0.364   4.798   1.277  0.00  0.00    +0.002 C 
ATOM     18  C   UNL     1       1.695   4.043   1.260  0.00  0.00    +0.022 C 
ENDBRANCH   3  13
BRANCH   3  19
ATOM     19  C   UNL     1       4.808   4.088  -0.786  0.00  0.00    +0.229 C 
BRANCH  19  20
ATOM     20  C   UNL     1       5.147   5.409  -0.145  0.00  0.00    +0.134 A 
ATOM     21  C   UNL     1       6.386   5.867   0.106  0.00  0.00    +0.047 A 
ATOM     22  C   UNL     1       6.240   7.137   0.710  0.00  0.00    +0.041 A 
ATOM     23  C   UNL     1       4.919   7.379   0.793  0.00  0.00    +0.195 A 
ATOM     24  O   UNL     1       4.262   6.332   0.268  0.00  0.00    -0.465 OA
ENDBRANCH  19  20
BRANCH  19  25
ATOM     25  C   UNL     1       4.494   4.304  -2.244  0.00  0.00    +0.241 C 
ATOM     26  O   UNL     1       3.404   3.999  -2.681  0.00  0.00    -0.273 OA
ATOM     27  N   UNL     1       5.424   4.834  -3.063  0.00  0.00    -0.311 N 
ATOM     28  H   UNL     1       6.295   5.078  -2.714  0.00  0.00    +0.149 HD
BRANCH  27  29
ATOM     29  C   UNL     1       5.118   5.044  -4.481  0.00  0.00    +0.073 C 
ATOM     30  C   UNL     1       5.384   3.752  -5.256  0.00  0.00    +0.022 C 
ATOM     31  C   UNL     1       5.065   3.970  -6.736  0.00  0.00    +0.002 C 
ATOM     32  C   UNL     1       5.950   5.089  -7.289  0.00  0.00    +0.000 C 
ATOM     33  C   UNL     1       5.684   6.381  -6.514  0.00  0.00    +0.002 C 
ATOM     34  C   UNL     1       6.003   6.162  -5.033  0.00  0.00    +0.022 C 
ENDBRANCH  27  29
ENDBRANCH  19  25
ENDBRANCH   3  19
TORSDOF 7
