REMARK  Name = ZINC65227620
REMARK  8 active torsions:
REMARK  status: ('A' for Active; 'I' for Inactive)
REMARK    1  A    between atoms: C_1  and  C_2
REMARK    2  A    between atoms: C_5  and  C_9
REMARK    3  A    between atoms: C_6  and  C_8
REMARK    4  A    between atoms: C_9  and  C_11
REMARK    5  A    between atoms: C_9  and  N_12
REMARK    6  A    between atoms: C_13  and  C_15
REMARK    7  A    between atoms: C_22  and  C_27
REMARK    8  A    between atoms: C_29  and  C_32
REMARK                            x       y       z     vdW  Elec       q    Type
REMARK                         _______ _______ _______ _____ _____    ______ ____
ROOT
ATOM      1  C   UNL     1       1.795  -6.432  -2.648  0.00  0.00    +0.078 C 
ATOM      2  C   UNL     1       0.704  -6.506  -3.720  0.00  0.00    +0.031 C 
ATOM      3  C   UNL     1       1.324  -6.968  -5.042  0.00  0.00    +0.107 C 
ATOM      4  N   UNL     1       2.035  -8.234  -4.816  0.00  0.00    -0.316 N 
ATOM      5  C   UNL     1       3.041  -8.297  -3.747  0.00  0.00    +0.107 C 
ATOM      6  C   UNL     1       2.402  -7.821  -2.439  0.00  0.00    +0.031 C 
ATOM      7  C   UNL     1       1.760  -9.347  -5.595  0.00  0.00    +0.110 A 
ATOM      8  C   UNL     1       2.424  -9.523  -6.818  0.00  0.00    +0.060 A 
ATOM      9  C   UNL     1       2.133 -10.650  -7.586  0.00  0.00    +0.016 A 
ATOM     10  C   UNL     1       1.196 -11.552  -7.105  0.00  0.00    +0.018 A 
ATOM     11  C   UNL     1       0.583 -11.311  -5.891  0.00  0.00    +0.084 A 
ATOM     12  N   UNL     1       0.878 -10.241  -5.178  0.00  0.00    -0.349 N 
ATOM     13  H   UNL     1       0.433 -10.103  -4.327  0.00  0.00    +0.167 HD
ENDROOT
BRANCH   8  14
ATOM     14  C   UNL     1       3.417  -8.527  -7.287  0.00  0.00    +0.205 A 
ATOM     15  N   UNL     1       4.029  -8.532  -8.485  0.00  0.00    -0.191 NA
ATOM     16  C   UNL     1       4.841  -7.518  -8.575  0.00  0.00    +0.225 A 
ATOM     17  O   UNL     1       4.780  -6.822  -7.433  0.00  0.00    -0.338 OA
ATOM     18  N   UNL     1       3.842  -7.491  -6.604  0.00  0.00    -0.056 NA
ATOM     19  C   UNL     1       5.705  -7.185  -9.765  0.00  0.00    +0.112 C 
ENDBRANCH   8  14
BRANCH   1  21
ATOM     20  N   UNL     1       0.600  -4.738  -1.299  0.00  0.00    -0.309 N 
ATOM     21  C   UNL     1       1.195  -5.946  -1.354  0.00  0.00    +0.217 C 
ATOM     22  O   UNL     1       1.248  -6.641  -0.362  0.00  0.00    -0.275 OA
ATOM     23  H   UNL     1       0.557  -4.181  -2.093  0.00  0.00    +0.149 HD
BRANCH  20  24
ATOM     24  C   UNL     1       0.017  -4.265  -0.041  0.00  0.00    +0.100 C 
ATOM     25  C   UNL     1      -1.406  -4.810   0.098  0.00  0.00    +0.033 C 
BRANCH  24  30
ATOM     26  C   UNL     1      -0.126   1.512  -0.033  0.00  0.00    +0.044 C 
ATOM     27  C   UNL     1      -0.088   0.005  -0.035  0.00  0.00    -0.050 A 
ATOM     28  C   UNL     1      -0.082  -0.684  -1.233  0.00  0.00    +0.004 A 
ATOM     29  C   UNL     1      -0.048  -2.066  -1.235  0.00  0.00    +0.006 A 
ATOM     30  C   UNL     1      -0.019  -2.759  -0.039  0.00  0.00    -0.025 A 
ATOM     31  C   UNL     1      -0.025  -2.069   1.159  0.00  0.00    -0.045 A 
ATOM     32  C   UNL     1      -0.055  -0.687   1.161  0.00  0.00    +0.007 A 
ATOM     33  C   UNL     1       0.006  -2.824   2.463  0.00  0.00    +0.044 C 
ENDBRANCH  24  30
ENDBRANCH  20  24
ENDBRANCH   1  21
TORSDOF 4
