REMARK  Name = ZINC34830214
REMARK  6 active torsions:
REMARK  status: ('A' for Active; 'I' for Inactive)
REMARK    1  A    between atoms: C_1  and  C_2
REMARK    2  A    between atoms: C_7  and  C_8
REMARK    3  A    between atoms: N_17  and  C_18
REMARK    4  A    between atoms: C_18  and  C_19
REMARK    5  A    between atoms: C_19  and  C_20
REMARK    6  A    between atoms: C_28  and  C_30
REMARK                            x       y       z     vdW  Elec       q    Type
REMARK                         _______ _______ _______ _____ _____    ______ ____
ROOT
ATOM      1  C   UNL     1      -1.438  -3.774   3.953  0.00  0.00    +0.077 C 
ENDROOT
BRANCH   1   2
ATOM      2  C   UNL     1      -2.925  -3.993   4.070  0.00  0.00    +0.214 C 
ATOM      3  O   UNL     1      -3.673  -3.536   3.231  0.00  0.00    -0.276 OA
ATOM      4  N   UNL     1      -3.423  -4.697   5.106  0.00  0.00    -0.299 N 
ATOM      5  C   UNL     1      -2.529  -5.251   6.132  0.00  0.00    +0.126 C 
ATOM      6  C   UNL     1      -2.988  -4.747   7.506  0.00  0.00    +0.127 C 
ATOM      7  N   UNL     1      -4.435  -4.973   7.630  0.00  0.00    -0.295 N 
ATOM      8  C   UNL     1      -5.329  -4.418   6.603  0.00  0.00    +0.127 C 
ATOM      9  C   UNL     1      -4.870  -4.918   5.232  0.00  0.00    +0.126 C 
ATOM     10  C   UNL     1      -4.933  -5.676   8.666  0.00  0.00    +0.247 C 
ATOM     11  O   UNL     1      -6.119  -5.942   8.706  0.00  0.00    -0.270 OA
BRANCH  10  12
ATOM     12  C   UNL     1      -4.039  -6.124   9.752  0.00  0.00    +0.041 A 
ATOM     13  C   UNL     1      -3.033  -5.278  10.224  0.00  0.00    +0.017 A 
ATOM     14  C   UNL     1      -2.200  -5.698  11.238  0.00  0.00    +0.050 A 
ATOM     15  C   UNL     1      -2.357  -6.961  11.794  0.00  0.00    +0.166 A 
ATOM     16  C   UNL     1      -3.360  -7.811  11.326  0.00  0.00    +0.167 A 
ATOM     17  C   UNL     1      -4.202  -7.393  10.313  0.00  0.00    +0.062 A 
ATOM     18  O   UNL     1      -3.303  -8.979  12.030  0.00  0.00    -0.453 OA
ATOM     19  C   UNL     1      -2.002  -8.993  12.647  0.00  0.00    +0.466 C 
ATOM     20  O   UNL     1      -1.675  -7.598  12.788  0.00  0.00    -0.453 OA
ENDBRANCH  10  12
ENDBRANCH   1   2
BRANCH   1  21
ATOM     21  C   UNL     1      -1.141  -2.952   2.698  0.00  0.00    -0.068 C 
BRANCH  21  30
ATOM     22  C   UNL     1       0.597  -2.054   1.318  0.00  0.00    -0.006 C 
ATOM     23  C   UNL     1       2.090  -1.744   1.255  0.00  0.00    -0.047 A 
ATOM     24  C   UNL     1       2.778  -1.464   0.077  0.00  0.00    +0.010 A 
ATOM     25  C   UNL     1       4.106  -1.202   0.116  0.00  0.00    +0.045 A 
ATOM     26  S   UNL     1       4.460  -1.342   1.862  0.00  0.00    -0.101 S 
ATOM     27  C   UNL     1       2.821  -1.734   2.405  0.00  0.00    -0.010 A 
ATOM     28  C   UNL     1       2.310  -1.997   3.784  0.00  0.00    +0.024 C 
ATOM     29  C   UNL     1       0.774  -1.941   3.727  0.00  0.00    -0.072 C 
ATOM     30  N   UNL     1       0.308  -2.739   2.584  0.00  0.00    +0.388 N 
ATOM     31  H   UNL     1       0.776  -3.632   2.592  0.00  0.00    -0.080 HD
BRANCH  22  38
ATOM     32  C   UNL     1      -0.095  -0.892  -1.235  0.00  0.00    +0.044 C 
ATOM     33  C   UNL     1      -0.115  -2.388  -1.058  0.00  0.00    -0.049 A 
ATOM     34  C   UNL     1      -0.458  -3.205  -2.119  0.00  0.00    +0.003 A 
ATOM     35  C   UNL     1      -0.476  -4.577  -1.957  0.00  0.00    +0.000 A 
ATOM     36  C   UNL     1      -0.150  -5.133  -0.734  0.00  0.00    +0.000 A 
ATOM     37  C   UNL     1       0.195  -4.317   0.327  0.00  0.00    +0.002 A 
ATOM     38  C   UNL     1       0.217  -2.944   0.163  0.00  0.00    -0.054 A 
ENDBRANCH  22  38
ENDBRANCH  21  30
ENDBRANCH   1  21
TORSDOF 5
