REMARK  Name = ZINC35861968
REMARK  10 active torsions:
REMARK  status: ('A' for Active; 'I' for Inactive)
REMARK    1  A    between atoms: C_1  and  C_2
REMARK    2  A    between atoms: C_2  and  C_3
REMARK    3  A    between atoms: C_2  and  C_4
REMARK    4  A    between atoms: C_4  and  N_5
REMARK    5  A    between atoms: C_6  and  C_8
REMARK    6  A    between atoms: C_11  and  C_13
REMARK    7  A    between atoms: C_13  and  O_14
REMARK    8  A    between atoms: O_14  and  C_15
REMARK    9  A    between atoms: C_21  and  C_33
REMARK   10  A    between atoms: C_26  and  C_28
REMARK                            x       y       z     vdW  Elec       q    Type
REMARK                         _______ _______ _______ _____ _____    ______ ____
ROOT
ATOM      1  C   UNL     1      -5.108   1.213  -8.891  0.00  0.00    +0.122 A 
ATOM      2  C   UNL     1      -5.661   2.308  -9.540  0.00  0.00    +0.046 A 
ATOM      3  C   UNL     1      -5.254   2.623 -10.818  0.00  0.00    +0.007 A 
ATOM      4  C   UNL     1      -4.292   1.856 -11.466  0.00  0.00    -0.040 A 
ATOM      5  C   UNL     1      -3.736   0.774 -10.819  0.00  0.00    -0.016 A 
ATOM      6  C   UNL     1      -4.144   0.453  -9.532  0.00  0.00    +0.051 A 
ATOM      7  C   UNL     1      -2.668  -0.082 -11.451  0.00  0.00    +0.137 C 
ATOM      8  N   UNL     1      -2.556   0.241 -12.878  0.00  0.00    -0.286 N 
ATOM      9  C   UNL     1      -2.554   1.665 -13.250  0.00  0.00    +0.113 C 
ATOM     10  C   UNL     1      -3.911   2.253 -12.867  0.00  0.00    +0.054 C 
ATOM     11  C   UNL     1      -2.458  -0.728 -13.810  0.00  0.00    +0.254 C 
ATOM     12  O   UNL     1      -2.595  -1.894 -13.492  0.00  0.00    -0.269 OA
ENDROOT
BRANCH   7  13
ATOM     13  C   UNL     1      -3.032  -1.536 -11.294  0.00  0.00    -0.023 A 
ATOM     14  C   UNL     1      -4.202  -2.019 -11.849  0.00  0.00    +0.006 A 
ATOM     15  C   UNL     1      -4.537  -3.353 -11.705  0.00  0.00    +0.000 A 
ATOM     16  C   UNL     1      -3.701  -4.203 -11.006  0.00  0.00    +0.000 A 
ATOM     17  C   UNL     1      -2.530  -3.720 -10.452  0.00  0.00    +0.000 A 
ATOM     18  C   UNL     1      -2.193  -2.388 -10.600  0.00  0.00    +0.006 A 
ENDBRANCH   7  13
BRANCH  11  19
ATOM     19  C   UNL     1      -2.188  -0.376 -15.207  0.00  0.00    +0.074 A 
ATOM     20  C   UNL     1      -2.509  -1.072 -16.362  0.00  0.00    +0.021 A 
ATOM     21  C   UNL     1      -2.120  -0.484 -17.541  0.00  0.00    +0.008 A 
ATOM     22  C   UNL     1      -1.467   0.704 -17.502  0.00  0.00    +0.046 A 
ATOM     23  S   UNL     1      -1.367   1.064 -15.864  0.00  0.00    -0.092 S 
ENDBRANCH  11  19
BRANCH   1  24
ATOM     24  O   UNL     1      -5.506   0.891  -7.632  0.00  0.00    -0.483 OA
BRANCH  24  25
ATOM     25  C   UNL     1      -6.504   1.722  -7.035  0.00  0.00    +0.324 C 
BRANCH  25  29
ATOM     26  C   UNL     1      -6.767   0.916  -3.513  0.00  0.00    +0.164 A 
ATOM     27  C   UNL     1      -7.741   0.113  -4.021  0.00  0.00    +0.230 A 
ATOM     28  O   UNL     1      -7.758   0.311  -5.349  0.00  0.00    -0.444 OA
ATOM     29  C   UNL     1      -6.816   1.216  -5.651  0.00  0.00    +0.234 A 
ATOM     30  N   UNL     1      -6.218   1.591  -4.560  0.00  0.00    -0.206 NA
BRANCH  26  32
ATOM     31  N   UNL     1      -5.397   1.884  -1.734  0.00  0.00    -0.310 N 
ATOM     32  C   UNL     1      -6.383   1.038  -2.095  0.00  0.00    +0.266 C 
ATOM     33  O   UNL     1      -6.955   0.375  -1.251  0.00  0.00    -0.268 OA
ATOM     34  H   UNL     1      -4.941   2.412  -2.407  0.00  0.00    +0.149 HD
BRANCH  31  35
ATOM     35  C   UNL     1      -5.016   2.004  -0.325  0.00  0.00    +0.107 C 
BRANCH  35  37
ATOM     36  C   UNL     1      -4.391   4.409  -0.591  0.00  0.00    +0.009 C 
ATOM     37  C   UNL     1      -3.882   3.023  -0.189  0.00  0.00    -0.000 C 
ATOM     38  C   UNL     1      -3.399   3.058   1.262  0.00  0.00    +0.009 C 
ENDBRANCH  35  37
ENDBRANCH  31  35
ENDBRANCH  26  32
ENDBRANCH  25  29
ENDBRANCH  24  25
ENDBRANCH   1  24
TORSDOF 8
