REMARK  Name = ZINC13409573
REMARK  8 active torsions:
REMARK  status: ('A' for Active; 'I' for Inactive)
REMARK    1  A    between atoms: C_1  and  C_2
REMARK    2  A    between atoms: C_2  and  C_3
REMARK    3  A    between atoms: C_3  and  C_4
REMARK    4  A    between atoms: C_4  and  N_5
REMARK    5  A    between atoms: C_18  and  S_19
REMARK    6  A    between atoms: S_19  and  C_20
REMARK    7  A    between atoms: C_20  and  C_21
REMARK    8  A    between atoms: C_32  and  C_34
REMARK                            x       y       z     vdW  Elec       q    Type
REMARK                         _______ _______ _______ _____ _____    ______ ____
ROOT
ATOM      1  N   UNL     1      -0.724   1.577   1.191  0.00  0.00    -0.277 N 
ATOM      2  C   UNL     1      -1.696   0.820   1.741  0.00  0.00    +0.263 A 
ATOM      3  O   UNL     1      -2.012  -0.242   1.240  0.00  0.00    -0.267 OA
ATOM      4  C   UNL     1      -2.369   1.304   2.960  0.00  0.00    +0.064 A 
ATOM      5  C   UNL     1      -3.380   0.564   3.571  0.00  0.00    +0.015 A 
ATOM      6  C   UNL     1      -3.987   1.050   4.710  0.00  0.00    +0.001 A 
ATOM      7  C   UNL     1      -3.596   2.265   5.248  0.00  0.00    +0.002 A 
ATOM      8  C   UNL     1      -2.595   3.008   4.652  0.00  0.00    +0.027 A 
ATOM      9  C   UNL     1      -1.975   2.535   3.506  0.00  0.00    +0.064 A 
ATOM     10  N   UNL     1      -0.963   3.264   2.885  0.00  0.00    -0.256 N 
ATOM     11  C   UNL     1      -0.353   2.787   1.757  0.00  0.00    +0.240 A 
ATOM     12  N   UNL     1       0.549   3.667   1.385  0.00  0.00    -0.109 NA
ATOM     13  N   UNL     1       0.525   4.728   2.298  0.00  0.00    -0.120 NA
ATOM     14  C   UNL     1      -0.393   4.469   3.197  0.00  0.00    +0.198 A 
ENDROOT
BRANCH   1  15
ATOM     15  C   UNL     1      -0.046   1.109  -0.021  0.00  0.00    +0.128 C 
BRANCH  15  16
ATOM     16  C   UNL     1      -0.794   1.621  -1.253  0.00  0.00    +0.021 C 
BRANCH  16  18
ATOM     17  C   UNL     1      -0.833   1.645  -3.751  0.00  0.00    +0.004 C 
ATOM     18  C   UNL     1      -0.086   1.133  -2.519  0.00  0.00    -0.002 C 
ENDBRANCH  16  18
ENDBRANCH  15  16
ENDBRANCH   1  15
BRANCH  14  19
ATOM     19  S   UNL     1      -0.819   5.493   4.567  0.00  0.00    -0.076 S 
BRANCH  19  20
ATOM     20  C   UNL     1       0.289   6.920   4.410  0.00  0.00    +0.173 C 
BRANCH  20  21
ATOM     21  C   UNL     1       0.025   7.887   5.535  0.00  0.00    +0.227 C 
ATOM     22  O   UNL     1      -0.826   7.638   6.362  0.00  0.00    -0.275 OA
ATOM     23  N   UNL     1       0.736   9.029   5.623  0.00  0.00    -0.283 N 
ATOM     24  C   UNL     1       1.855   9.303   4.714  0.00  0.00    +0.144 C 
ATOM     25  C   UNL     1       3.021   9.851   5.489  0.00  0.00    -0.027 A 
ATOM     26  C   UNL     1       4.242   9.955   4.836  0.00  0.00    +0.005 A 
ATOM     27  C   UNL     1       5.344  10.469   5.489  0.00  0.00    +0.000 A 
ATOM     28  C   UNL     1       5.231  10.883   6.803  0.00  0.00    +0.000 A 
ATOM     29  C   UNL     1       4.020  10.774   7.455  0.00  0.00    +0.004 A 
ATOM     30  C   UNL     1       2.909  10.254   6.801  0.00  0.00    -0.040 A 
ATOM     31  C   UNL     1       1.624  10.155   7.579  0.00  0.00    +0.069 C 
ATOM     32  C   UNL     1       0.425  10.048   6.638  0.00  0.00    +0.194 C 
BRANCH  32  33
ATOM     33  C   UNL     1      -0.799   9.637   7.415  0.00  0.00    +0.376 C 
ATOM     34  O   UNL     1      -0.680   9.049   8.464  0.00  0.00    -0.244 OA
ATOM     35  O   UNL     1      -2.022   9.924   6.942  0.00  0.00    -0.244 OA
ENDBRANCH  32  33
ENDBRANCH  20  21
ENDBRANCH  19  20
ENDBRANCH  14  19
TORSDOF 7
