REMARK  Name = ZINC39487841
REMARK  11 active torsions:
REMARK  status: ('A' for Active; 'I' for Inactive)
REMARK    1  A    between atoms: C_1  and  C_2
REMARK    2  A    between atoms: C_2  and  C_3
REMARK    3  A    between atoms: C_2  and  C_4
REMARK    4  A    between atoms: C_4  and  C_5
REMARK    5  A    between atoms: C_5  and  C_35
REMARK    6  A    between atoms: N_10  and  C_11
REMARK    7  A    between atoms: C_11  and  C_12
REMARK    8  A    between atoms: C_12  and  C_28
REMARK    9  A    between atoms: N_15  and  S_18
REMARK   10  A    between atoms: S_18  and  O_21
REMARK   11  A    between atoms: O_21  and  C_22
REMARK                            x       y       z     vdW  Elec       q    Type
REMARK                         _______ _______ _______ _____ _____    ______ ____
ROOT
ATOM      1  C   UNL     1      -4.412  -2.559   0.072  0.00  0.00    -0.008 C 
ATOM      2  C   UNL     1      -3.264  -2.223   1.026  0.00  0.00    +0.026 C 
ATOM      3  C   UNL     1      -2.998  -0.715   0.986  0.00  0.00    +0.113 C 
ATOM      4  N   UNL     1      -4.251  -0.005   1.277  0.00  0.00    -0.147 NA
ATOM      5  C   UNL     1      -5.443  -0.321   0.478  0.00  0.00    +0.113 C 
ATOM      6  C   UNL     1      -5.682  -1.833   0.523  0.00  0.00    +0.026 C 
ENDROOT
BRANCH   1   7
ATOM      7  C   UNL     1      -4.658  -4.069   0.084  0.00  0.00    -0.003 C 
ATOM      8  C   UNL     1      -5.957  -4.381  -0.661  0.00  0.00    +0.004 C 
ATOM      9  C   UNL     1      -6.203  -5.891  -0.650  0.00  0.00    +0.000 C 
ATOM     10  C   UNL     1      -6.315  -6.378   0.796  0.00  0.00    +0.000 C 
ATOM     11  C   UNL     1      -5.016  -6.067   1.541  0.00  0.00    +0.000 C 
ATOM     12  C   UNL     1      -4.770  -4.557   1.530  0.00  0.00    +0.004 C 
ENDBRANCH   1   7
BRANCH   4  13
ATOM     13  S   UNL     1      -4.319   1.127   2.484  0.00  0.00    +0.194 S 
ATOM     14  O   UNL     1      -5.659   1.134   2.959  0.00  0.00    -0.119 OA
ATOM     15  O   UNL     1      -3.210   0.880   3.336  0.00  0.00    -0.119 OA
BRANCH  13  16
ATOM     16  O   UNL     1      -4.080   2.485   1.840  0.00  0.00    -0.333 OA
BRANCH  16  17
ATOM     17  C   UNL     1      -5.152   2.973   1.163  0.00  0.00    +0.158 A 
ATOM     18  C   UNL     1      -5.367   2.604  -0.157  0.00  0.00    +0.048 A 
ATOM     19  C   UNL     1      -6.459   3.102  -0.842  0.00  0.00    +0.004 A 
ATOM     20  C   UNL     1      -7.336   3.966  -0.214  0.00  0.00    +0.000 A 
ATOM     21  C   UNL     1      -7.123   4.336   1.101  0.00  0.00    +0.004 A 
ATOM     22  C   UNL     1      -6.037   3.837   1.793  0.00  0.00    +0.048 A 
ENDBRANCH  16  17
ENDBRANCH  13  16
ENDBRANCH   4  13
BRANCH   1  23
ATOM     23  C   UNL     1      -4.046  -2.113  -1.345  0.00  0.00    +0.117 C 
BRANCH  23  29
ATOM     24  C   UNL     1      -2.790  -3.866  -2.812  0.00  0.00    +0.053 C 
ATOM     25  C   UNL     1      -1.301  -4.255  -2.874  0.00  0.00    +0.154 C 
ATOM     26  N   UNL     1      -0.668  -3.385  -1.871  0.00  0.00    -0.196 N 
ATOM     27  C   UNL     1      -1.604  -2.611  -1.306  0.00  0.00    +0.319 C 
ATOM     28  O   UNL     1      -1.355  -1.795  -0.441  0.00  0.00    -0.251 OA
ATOM     29  N   UNL     1      -2.839  -2.819  -1.782  0.00  0.00    -0.277 N 
ATOM     30 CL   UNL     1       0.999  -3.365  -1.487  0.00  0.00    +0.005 Cl
ATOM     31  C   UNL     1      -3.261  -3.316  -4.160  0.00  0.00    +0.033 C 
BRANCH  24  32
ATOM     32  C   UNL     1      -3.642  -5.068  -2.397  0.00  0.00    +0.030 C 
BRANCH  32  34
ATOM     33  C   UNL     1      -2.298  -6.676  -3.757  0.00  0.00    +0.007 C 
ATOM     34  C   UNL     1      -3.691  -6.079  -3.544  0.00  0.00    -0.015 C 
ATOM     35  C   UNL     1      -4.677  -7.196  -3.198  0.00  0.00    +0.007 C 
ENDBRANCH  32  34
ENDBRANCH  24  32
ENDBRANCH  23  29
ENDBRANCH   1  23
TORSDOF 8
