REMARK  Name = ZINC32558353
REMARK  10 active torsions:
REMARK  status: ('A' for Active; 'I' for Inactive)
REMARK    1  A    between atoms: C_4  and  C_7
REMARK    2  A    between atoms: C_7  and  N_8
REMARK    3  A    between atoms: C_10  and  N_29
REMARK    4  A    between atoms: C_13  and  C_15
REMARK    5  A    between atoms: N_17  and  C_18
REMARK    6  A    between atoms: C_18  and  C_19
REMARK    7  A    between atoms: C_19  and  C_20
REMARK    8  A    between atoms: N_29  and  C_30
REMARK    9  A    between atoms: C_30  and  C_31
REMARK   10  A    between atoms: C_35  and  C_37
REMARK                            x       y       z     vdW  Elec       q    Type
REMARK                         _______ _______ _______ _____ _____    ______ ____
ROOT
ATOM      1  N   UNL     1       4.171  -0.922   1.341  0.00  0.00    +0.391 N 
ATOM      2  C   UNL     1       3.148  -1.736   2.031  0.00  0.00    -0.059 C 
ATOM      3  C   UNL     1       3.954  -2.685   2.953  0.00  0.00    +0.036 C 
ATOM      4  C   UNL     1       5.190  -3.003   2.071  0.00  0.00    +0.010 C 
ATOM      5  C   UNL     1       5.440  -1.673   1.330  0.00  0.00    +0.021 C 
ATOM      6  H   UNL     1       4.297  -0.050   1.833  0.00  0.00    -0.080 HD
ENDROOT
BRANCH   5   7
ATOM      7  C   UNL     1       5.860  -1.948  -0.091  0.00  0.00    +0.200 C 
ATOM      8  O   UNL     1       5.111  -2.537  -0.842  0.00  0.00    -0.278 OA
ATOM      9  N   UNL     1       7.068  -1.540  -0.528  0.00  0.00    -0.316 N 
ATOM     10  H   UNL     1       7.667  -1.070   0.072  0.00  0.00    +0.149 HD
BRANCH   9  11
ATOM     11  C   UNL     1       7.476  -1.808  -1.909  0.00  0.00    +0.109 C 
BRANCH  11  12
ATOM     12  C   UNL     1       8.879  -1.245  -2.145  0.00  0.00    +0.054 C 
BRANCH  12  13
ATOM     13  C   UNL     1       9.299  -1.521  -3.565  0.00  0.00    -0.042 A 
ATOM     14  C   UNL     1       9.963  -2.694  -3.873  0.00  0.00    +0.007 A 
ATOM     15  C   UNL     1      10.350  -2.951  -5.175  0.00  0.00    +0.050 A 
ATOM     16  C   UNL     1      10.073  -2.033  -6.175  0.00  0.00    +0.166 A 
ATOM     17  C   UNL     1       9.405  -0.852  -5.865  0.00  0.00    +0.166 A 
ATOM     18  C   UNL     1       9.015  -0.603  -4.559  0.00  0.00    +0.053 A 
ATOM     19  O   UNL     1       9.254  -0.122  -7.009  0.00  0.00    -0.453 OA
ATOM     20  C   UNL     1      10.194  -0.679  -7.947  0.00  0.00    +0.466 C 
ATOM     21  O   UNL     1      10.341  -2.044  -7.514  0.00  0.00    -0.453 OA
ENDBRANCH  12  13
ENDBRANCH  11  12
ENDBRANCH   9  11
ENDBRANCH   5   7
BRANCH   3  22
ATOM     22  N   UNL     1       3.190  -3.905   3.248  0.00  0.00    -0.311 NA
ATOM     23  H   UNL     1       2.199  -3.716   3.260  0.00  0.00    +0.122 HD
BRANCH  22  24
ATOM     24  C   UNL     1       3.627  -4.505   4.516  0.00  0.00    +0.116 C 
BRANCH  24  25
ATOM     25  C   UNL     1       2.823  -5.751   4.785  0.00  0.00    -0.033 A 
ATOM     26  C   UNL     1       1.638  -5.669   5.493  0.00  0.00    +0.005 A 
ATOM     27  C   UNL     1       0.900  -6.811   5.741  0.00  0.00    +0.001 A 
ATOM     28  C   UNL     1       1.347  -8.036   5.279  0.00  0.00    +0.012 A 
ATOM     29  C   UNL     1       2.531  -8.117   4.571  0.00  0.00    +0.055 A 
ATOM     30  C   UNL     1       3.267  -6.974   4.320  0.00  0.00    +0.017 A 
BRANCH  29  31
ATOM     31  C   UNL     1       3.018  -9.452   4.069  0.00  0.00    +0.417 C 
ATOM     32  F   UNL     1       2.111 -10.450   4.440  0.00  0.00    -0.166 F 
ATOM     33  F   UNL     1       3.125  -9.415   2.674  0.00  0.00    -0.166 F 
ATOM     34  F   UNL     1       4.271  -9.731   4.625  0.00  0.00    -0.166 F 
ENDBRANCH  29  31
ENDBRANCH  24  25
ENDBRANCH  22  24
ENDBRANCH   3  22
BRANCH   1  35
ATOM     35  C   UNL     1       3.742  -0.655  -0.038  0.00  0.00    -0.042 C 
BRANCH  35  39
ATOM     36  C   UNL     1       0.349   1.940  -0.000  0.00  0.00    +0.000 A 
ATOM     37  C   UNL     1       1.625   2.471  -0.048  0.00  0.00    +0.000 A 
ATOM     38  C   UNL     1       2.723   1.631  -0.060  0.00  0.00    +0.002 A 
ATOM     39  C   UNL     1       2.545   0.261  -0.024  0.00  0.00    -0.064 A 
ATOM     40  C   UNL     1       1.270  -0.270   0.024  0.00  0.00    +0.002 A 
ATOM     41  C   UNL     1       0.172   0.569   0.035  0.00  0.00    +0.000 A 
ENDBRANCH  35  39
ENDBRANCH   1  35
TORSDOF 10
