REMARK  Name = ZINC15670234
REMARK  5 active torsions:
REMARK  status: ('A' for Active; 'I' for Inactive)
REMARK    1  A    between atoms: C_1  and  C_2
REMARK    2  A    between atoms: C_9  and  C_13
REMARK    3  A    between atoms: C_16  and  O_19
REMARK    4  A    between atoms: O_19  and  C_20
REMARK    5  A    between atoms: C_25  and  C_27
REMARK                            x       y       z     vdW  Elec       q    Type
REMARK                         _______ _______ _______ _____ _____    ______ ____
ROOT
ATOM      1  C   UNL     1       3.612   0.671  -0.047  0.00  0.00    +0.068 C 
ATOM      2  C   UNL     1       2.106   0.659  -0.024  0.00  0.00    +0.066 A 
ATOM      3  C   UNL     1       1.284   1.777  -0.001  0.00  0.00    +0.023 A 
ATOM      4  C   UNL     1      -0.016   1.346   0.009  0.00  0.00    +0.136 A 
ATOM      5  N   UNL     1       0.002  -0.004   0.002  0.00  0.00    -0.182 N 
ATOM      6  N   UNL     1       1.346  -0.411  -0.023  0.00  0.00    -0.167 NA
ATOM      7  C   UNL     1      -1.112  -0.842   0.016  0.00  0.00    +0.273 A 
ATOM      8  N   UNL     1      -0.942  -2.156   0.001  0.00  0.00    -0.208 NA
ATOM      9  C   UNL     1      -2.010  -2.953   0.018  0.00  0.00    +0.095 A 
ATOM     10  C   UNL     1      -3.281  -2.368   0.042  0.00  0.00    +0.163 A 
ATOM     11  N   UNL     1      -3.382  -1.052   0.051  0.00  0.00    -0.152 NA
ATOM     12  N   UNL     1      -2.328  -0.314   0.038  0.00  0.00    -0.109 NA
ATOM     13  N   UNL     1      -1.086   2.239   0.039  0.00  0.00    -0.270 N 
ATOM     14  C   UNL     1      -0.829   3.547  -0.175  0.00  0.00    +0.219 C 
ATOM     15  O   UNL     1      -1.710   4.358   0.016  0.00  0.00    -0.275 OA
ATOM     16  C   UNL     1       0.516   4.028  -0.642  0.00  0.00    +0.109 C 
ATOM     17  C   UNL     1       1.649   3.239   0.022  0.00  0.00    +0.063 C 
ATOM     18  H   UNL     1      -1.990   1.929   0.209  0.00  0.00    +0.156 HD
ENDROOT
BRANCH  17  19
ATOM     19  C   UNL     1       2.932   3.455  -0.739  0.00  0.00    -0.039 A 
ATOM     20  C   UNL     1       3.008   3.111  -2.076  0.00  0.00    +0.005 A 
ATOM     21  C   UNL     1       4.183   3.313  -2.776  0.00  0.00    +0.015 A 
ATOM     22  C   UNL     1       5.285   3.849  -2.135  0.00  0.00    +0.018 A 
ATOM     23  C   UNL     1       5.210   4.188  -0.796  0.00  0.00    +0.015 A 
ATOM     24  C   UNL     1       4.033   3.991  -0.099  0.00  0.00    +0.005 A 
ATOM     25 BR   UNL     1       6.895   4.119  -3.091  0.00  0.00    -0.050 Br
ENDBRANCH  17  19
BRANCH   9  26
ATOM     26  C   UNL     1      -1.854  -4.427   0.007  0.00  0.00    +0.002 A 
ATOM     27  C   UNL     1      -0.584  -4.996   0.083  0.00  0.00    +0.013 A 
ATOM     28  C   UNL     1      -0.443  -6.367   0.078  0.00  0.00    +0.046 A 
ATOM     29  C   UNL     1      -1.565  -7.181  -0.014  0.00  0.00    +0.120 A 
ATOM     30  C   UNL     1      -2.831  -6.617  -0.095  0.00  0.00    +0.046 A 
ATOM     31  C   UNL     1      -2.979  -5.247  -0.085  0.00  0.00    +0.013 A 
BRANCH  29  32
ATOM     32  O   UNL     1      -1.423  -8.532  -0.025  0.00  0.00    -0.495 OA
ATOM     33  C   UNL     1      -0.092  -9.045   0.062  0.00  0.00    +0.277 C 
ENDBRANCH  29  32
ENDBRANCH   9  26
TORSDOF 3
