REMARK  Name = ZINC35678945
REMARK  3 active torsions:
REMARK  status: ('A' for Active; 'I' for Inactive)
REMARK    1  A    between atoms: C_5  and  S_7
REMARK    2  A    between atoms: S_7  and  N_10
REMARK    3  A    between atoms: N_10  and  C_11
REMARK                            x       y       z     vdW  Elec       q    Type
REMARK                         _______ _______ _______ _____ _____    ______ ____
ROOT
ATOM      1  S   UNL     1       1.141  -2.457  -0.022  0.00  0.00    +0.095 S 
ATOM      2  O   UNL     1       2.042  -2.881   0.993  0.00  0.00    -0.148 OA
ATOM      3  O   UNL     1      -0.226  -2.845  -0.038  0.00  0.00    -0.148 OA
ENDROOT
BRANCH   1   8
ATOM      4  C   UNL     1      -0.017   1.391   0.010  0.00  0.00    +0.004 A 
ATOM      5  C   UNL     1       1.128   2.114   0.003  0.00  0.00    +0.031 A 
ATOM      6  C   UNL     1       2.387   1.455  -0.013  0.00  0.00    +0.102 A 
ATOM      7  C   UNL     1       2.407  -0.003  -0.021  0.00  0.00    +0.126 A 
ATOM      8  C   UNL     1       1.166  -0.696  -0.013  0.00  0.00    +0.138 A 
ATOM      9  C   UNL     1       0.002  -0.004   0.002  0.00  0.00    +0.031 A 
ATOM     10  N   UNL     1       3.640  -0.511  -0.036  0.00  0.00    -0.189 NA
ATOM     11  S   UNL     1       4.631   0.756  -0.038  0.00  0.00    +0.117 S 
ATOM     12  N   UNL     1       3.606   1.996  -0.022  0.00  0.00    -0.191 NA
ENDBRANCH   1   8
BRANCH   1  13
ATOM     13  N   UNL     1       1.790  -2.948  -1.465  0.00  0.00    -0.078 NA
BRANCH  13  14
ATOM     14  C   UNL     1       1.899  -4.304  -1.752  0.00  0.00    +0.164 A 
ATOM     15  C   UNL     1       2.449  -4.710  -2.964  0.00  0.00    +0.047 A 
ATOM     16  C   UNL     1       2.552  -6.062  -3.237  0.00  0.00    +0.006 A 
ATOM     17  C   UNL     1       2.099  -6.967  -2.287  0.00  0.00    +0.035 A 
ATOM     18  C   UNL     1       1.563  -6.494  -1.104  0.00  0.00    +0.108 A 
ATOM     19  N   UNL     1       1.482  -5.198  -0.868  0.00  0.00    -0.222 NA
ATOM     20 BR   UNL     1       0.944  -7.720   0.196  0.00  0.00    -0.029 Br
ENDBRANCH  13  14
ENDBRANCH   1  13
TORSDOF 3
