REMARK  Name = ZINC25025233
REMARK  11 active torsions:
REMARK  status: ('A' for Active; 'I' for Inactive)
REMARK    1  A    between atoms: C_1  and  C_2
REMARK    2  A    between atoms: C_5  and  N_8
REMARK    3  A    between atoms: C_9  and  C_33
REMARK    4  A    between atoms: C_10  and  N_14
REMARK    5  A    between atoms: C_11  and  C_13
REMARK    6  A    between atoms: C_15  and  C_17
REMARK    7  A    between atoms: C_17  and  O_18
REMARK    8  A    between atoms: O_18  and  C_19
REMARK    9  A    between atoms: C_19  and  C_21
REMARK   10  A    between atoms: C_22  and  C_23
REMARK   11  A    between atoms: C_27  and  N_29
REMARK                            x       y       z     vdW  Elec       q    Type
REMARK                         _______ _______ _______ _____ _____    ______ ____
ROOT
ATOM      1  N   UNL     1       4.860   1.477  -0.314  0.00  0.00    -0.280 N 
ATOM      2  C   UNL     1       3.593   1.900  -0.135  0.00  0.00    +0.255 C 
ATOM      3  O   UNL     1       3.375   3.054   0.170  0.00  0.00    -0.272 OA
ATOM      4  H   UNL     1       5.064   0.411  -0.492  0.00  0.00    +0.155 HD
ENDROOT
BRANCH   1   7
ATOM      5  N   UNL     1       7.901   3.297   0.023  0.00  0.00    -0.235 N 
ATOM      6  C   UNL     1       7.190   2.142   0.139  0.00  0.00    +0.063 A 
ATOM      7  C   UNL     1       5.922   2.400  -0.273  0.00  0.00    +0.078 A 
ATOM      8  C   UNL     1       5.860   3.749  -0.655  0.00  0.00    +0.082 A 
ATOM      9  N   UNL     1       7.040   4.284  -0.473  0.00  0.00    -0.170 NA
ATOM     10  C   UNL     1       4.640   4.461  -1.182  0.00  0.00    +0.069 C 
ATOM     11  C   UNL     1       7.714   0.819   0.633  0.00  0.00    +0.068 C 
BRANCH   5  16
ATOM     12  C   UNL     1      13.383   3.987   1.319  0.00  0.00    +0.044 C 
ATOM     13  C   UNL     1      11.927   3.804   0.975  0.00  0.00    -0.050 A 
ATOM     14  C   UNL     1      11.515   2.667   0.305  0.00  0.00    +0.005 A 
ATOM     15  C   UNL     1      10.181   2.495  -0.011  0.00  0.00    +0.028 A 
ATOM     16  C   UNL     1       9.255   3.467   0.343  0.00  0.00    +0.066 A 
ATOM     17  C   UNL     1       9.673   4.611   1.009  0.00  0.00    +0.028 A 
ATOM     18  C   UNL     1      11.007   4.774   1.329  0.00  0.00    +0.005 A 
ENDBRANCH   5  16
ENDBRANCH   1   7
BRANCH   2  19
ATOM     19  C   UNL     1       2.446   0.938  -0.312  0.00  0.00    +0.328 C 
BRANCH  19  20
ATOM     20  O   UNL     1       1.213   1.618  -0.070  0.00  0.00    -0.452 OA
BRANCH  20  21
ATOM     21  C   UNL     1       0.081   0.894  -0.188  0.00  0.00    +0.332 C 
ATOM     22  O   UNL     1       0.140  -0.283  -0.489  0.00  0.00    -0.246 OA
BRANCH  21  23
ATOM     23  C   UNL     1      -1.218   1.526   0.039  0.00  0.00    +0.092 C 
ATOM     24  C   UNL     1      -2.351   0.803  -0.084  0.00  0.00    +0.015 C 
BRANCH  24  25
ATOM     25  C   UNL     1      -3.658   1.438   0.144  0.00  0.00    -0.023 A 
ATOM     26  C   UNL     1      -3.730   2.792   0.491  0.00  0.00    +0.009 A 
ATOM     27  C   UNL     1      -4.958   3.380   0.704  0.00  0.00    +0.023 A 
ATOM     28  C   UNL     1      -6.119   2.635   0.576  0.00  0.00    +0.071 A 
ATOM     29  C   UNL     1      -6.055   1.294   0.234  0.00  0.00    +0.145 A 
ATOM     30  C   UNL     1      -4.834   0.693   0.011  0.00  0.00    +0.042 A 
ATOM     31 CL   UNL     1      -7.662   3.385   0.846  0.00  0.00    -0.081 Cl
BRANCH  29  32
ATOM     32  N   UNL     1      -7.301   0.506   0.099  0.00  0.00    +0.058 N 
ATOM     33  O   UNL     1      -7.246  -0.673  -0.201  0.00  0.00    -0.126 OA
ATOM     34  O   UNL     1      -8.381   1.037   0.289  0.00  0.00    -0.126 OA
ENDBRANCH  29  32
ENDBRANCH  24  25
ENDBRANCH  21  23
ENDBRANCH  20  21
ENDBRANCH  19  20
ENDBRANCH   2  19
TORSDOF 8
