REMARK  Name = ZINC04744575
REMARK  7 active torsions:
REMARK  status: ('A' for Active; 'I' for Inactive)
REMARK    1  A    between atoms: C_1  and  C_2
REMARK    2  A    between atoms: C_3  and  C_4
REMARK    3  A    between atoms: C_4  and  O_5
REMARK    4  A    between atoms: O_5  and  C_6
REMARK    5  A    between atoms: C_6  and  C_8
REMARK    6  A    between atoms: C_9  and  C_24
REMARK    7  A    between atoms: C_14  and  C_16
REMARK                            x       y       z     vdW  Elec       q    Type
REMARK                         _______ _______ _______ _____ _____    ______ ____
ROOT
ATOM      1  C   UNL     1       0.170   0.214  -0.159  0.00  0.00    +0.078 C 
ATOM      2  C   UNL     1       0.382   1.546  -0.221  0.00  0.00    +0.021 C 
ATOM      3  N   UNL     1       1.633   2.069  -0.058  0.00  0.00    -0.273 N 
ATOM      4  C   UNL     1       2.724   1.327   0.169  0.00  0.00    +0.304 C 
ATOM      5  O   UNL     1       3.797   1.883   0.300  0.00  0.00    -0.252 OA
ATOM      6  N   UNL     1       2.671  -0.017   0.257  0.00  0.00    -0.288 N 
ATOM      7  C   UNL     1       1.366  -0.680   0.096  0.00  0.00    +0.145 C 
ATOM      8  C   UNL     1      -0.780   2.471  -0.479  0.00  0.00    +0.061 C 
ATOM      9  H   UNL     1       1.737   3.032  -0.111  0.00  0.00    +0.156 HD
ATOM     10  H   UNL     1       3.474  -0.536   0.422  0.00  0.00    +0.151 HD
ENDROOT
BRANCH   7  11
ATOM     11  C   UNL     1       1.476  -1.649  -1.053  0.00  0.00    -0.004 A 
ATOM     12  C   UNL     1       2.262  -1.338  -2.147  0.00  0.00    +0.008 A 
ATOM     13  C   UNL     1       2.363  -2.226  -3.201  0.00  0.00    +0.020 A 
ATOM     14  C   UNL     1       1.677  -3.428  -3.162  0.00  0.00    +0.042 A 
ATOM     15  C   UNL     1       0.891  -3.740  -2.067  0.00  0.00    +0.040 A 
ATOM     16  C   UNL     1       0.794  -2.852  -1.010  0.00  0.00    +0.048 A 
ATOM     17 CL   UNL     1      -0.187  -3.245   0.366  0.00  0.00    -0.083 Cl
ATOM     18 CL   UNL     1       1.804  -4.543  -4.486  0.00  0.00    -0.083 Cl
ENDBRANCH   7  11
BRANCH   1  19
ATOM     19  C   UNL     1      -1.126  -0.329  -0.327  0.00  0.00    +0.339 C 
ATOM     20  O   UNL     1      -1.783  -0.647   0.647  0.00  0.00    -0.245 OA
BRANCH  19  21
ATOM     21  O   UNL     1      -1.633  -0.494  -1.566  0.00  0.00    -0.457 OA
BRANCH  21  22
ATOM     22  C   UNL     1      -2.902  -1.144  -1.667  0.00  0.00    +0.260 C 
BRANCH  22  25
ATOM     23  C   UNL     1      -4.072  -2.701  -4.977  0.00  0.00    +0.035 C 
ATOM     24  C   UNL     1      -3.725  -2.498  -3.525  0.00  0.00    -0.031 C 
ATOM     25  C   UNL     1      -3.249  -1.347  -3.119  0.00  0.00    +0.009 C 
ENDBRANCH  22  25
ENDBRANCH  21  22
ENDBRANCH  19  21
ENDBRANCH   1  19
TORSDOF 5
