REMARK  Name = ZINC46628374
REMARK  10 active torsions:
REMARK  status: ('A' for Active; 'I' for Inactive)
REMARK    1  A    between atoms: C_1  and  C_2
REMARK    2  A    between atoms: C_5  and  S_11
REMARK    3  A    between atoms: C_7  and  N_8
REMARK    4  A    between atoms: S_11  and  N_14
REMARK    5  A    between atoms: N_14  and  C_15
REMARK    6  A    between atoms: C_15  and  C_16
REMARK    7  A    between atoms: C_19  and  C_22
REMARK    8  A    between atoms: C_22  and  N_23
REMARK    9  A    between atoms: C_25  and  C_32
REMARK   10  A    between atoms: C_28  and  C_31
REMARK                            x       y       z     vdW  Elec       q    Type
REMARK                         _______ _______ _______ _____ _____    ______ ____
ROOT
ATOM      1  C   UNL     1       3.236  -4.177   0.540  0.00  0.00    +0.141 C 
ENDROOT
BRANCH   1   2
ATOM      2  C   UNL     1       4.582  -4.764   0.201  0.00  0.00    -0.032 A 
ATOM      3  C   UNL     1       4.960  -5.981   0.736  0.00  0.00    +0.005 A 
ATOM      4  C   UNL     1       6.195  -6.520   0.424  0.00  0.00    +0.005 A 
ATOM      5  C   UNL     1       7.051  -5.841  -0.422  0.00  0.00    -0.033 A 
ATOM      6  C   UNL     1       6.673  -4.624  -0.958  0.00  0.00    +0.005 A 
ATOM      7  C   UNL     1       5.436  -4.088  -0.650  0.00  0.00    +0.005 A 
BRANCH   5   8
ATOM      8  C   UNL     1       8.398  -6.427  -0.761  0.00  0.00    +0.119 C 
BRANCH   8   9
ATOM      9  N   UNL     1       8.277  -7.270  -1.958  0.00  0.00    -0.293 NA
ATOM     10  C   UNL     1       7.948  -6.462  -3.141  0.00  0.00    +0.116 C 
ATOM     11  C   UNL     1       7.773  -7.384  -4.351  0.00  0.00    +0.130 C 
ATOM     12  O   UNL     1       8.966  -8.151  -4.535  0.00  0.00    -0.371 OA
ATOM     13  C   UNL     1       9.316  -8.951  -3.402  0.00  0.00    +0.130 C 
ATOM     14  C   UNL     1       9.506  -8.045  -2.183  0.00  0.00    +0.116 C 
ATOM     15  C   UNL     1      10.618  -9.701  -3.690  0.00  0.00    +0.039 C 
ATOM     16  C   UNL     1       7.508  -6.542  -5.601  0.00  0.00    +0.039 C 
ENDBRANCH   8   9
ENDBRANCH   5   8
ENDBRANCH   1   2
BRANCH   1  17
ATOM     17  N   UNL     1       2.242  -4.642  -0.430  0.00  0.00    -0.186 NA
ATOM     18  H   UNL     1       2.530  -5.050  -1.262  0.00  0.00    +0.148 HD
BRANCH  17  19
ATOM     19  S   UNL     1       0.627  -4.470  -0.108  0.00  0.00    +0.059 S 
ATOM     20  O   UNL     1       0.420  -4.968   1.207  0.00  0.00    -0.153 OA
ATOM     21  O   UNL     1      -0.069  -4.983  -1.235  0.00  0.00    -0.153 OA
BRANCH  19  26
ATOM     22  C   UNL     1      -0.537   1.447   0.088  0.00  0.00    +0.046 C 
ATOM     23  C   UNL     1      -0.246  -0.031   0.039  0.00  0.00    -0.020 A 
ATOM     24  C   UNL     1      -0.347  -0.716  -1.157  0.00  0.00    +0.007 A 
ATOM     25  C   UNL     1      -0.080  -2.071  -1.202  0.00  0.00    +0.029 A 
ATOM     26  C   UNL     1       0.288  -2.742  -0.051  0.00  0.00    +0.107 A 
ATOM     27  C   UNL     1       0.390  -2.057   1.145  0.00  0.00    +0.061 A 
ATOM     28  C   UNL     1       0.127  -0.700   1.190  0.00  0.00    +0.131 A 
BRANCH  28  29
ATOM     29  N   UNL     1       0.241   0.035   2.470  0.00  0.00    +0.057 N 
ATOM     30  O   UNL     1       0.674   1.163   2.482  0.00  0.00    -0.126 OA
ATOM     31  O   UNL     1      -0.099  -0.494   3.502  0.00  0.00    -0.126 OA
ENDBRANCH  28  29
ENDBRANCH  19  26
ENDBRANCH  17  19
ENDBRANCH   1  17
TORSDOF 7
