REMARK  Name = ZINC40110949
REMARK  11 active torsions:
REMARK  status: ('A' for Active; 'I' for Inactive)
REMARK    1  A    between atoms: C_1  and  C_2
REMARK    2  A    between atoms: C_2  and  C_3
REMARK    3  A    between atoms: C_3  and  C_4
REMARK    4  A    between atoms: C_4  and  N_5
REMARK    5  A    between atoms: C_6  and  C_27
REMARK    6  A    between atoms: C_8  and  C_13
REMARK    7  A    between atoms: C_13  and  C_15
REMARK    8  A    between atoms: C_18  and  S_21
REMARK    9  A    between atoms: S_21  and  N_24
REMARK   10  A    between atoms: N_24  and  C_25
REMARK   11  A    between atoms: N_24  and  C_26
REMARK                            x       y       z     vdW  Elec       q    Type
REMARK                         _______ _______ _______ _____ _____    ______ ____
ROOT
ATOM      1  N   UNL     1      -3.362  -1.955   0.238  0.00  0.00    -0.284 N 
ATOM      2  C   UNL     1      -3.521  -2.213   1.674  0.00  0.00    +0.145 C 
ATOM      3  C   UNL     1      -4.579  -3.286   1.794  0.00  0.00    +0.076 C 
ATOM      4  C   UNL     1      -4.969  -3.592   0.535  0.00  0.00    +0.249 C 
ATOM      5  C   UNL     1      -4.214  -2.758  -0.424  0.00  0.00    +0.288 C 
ATOM      6  O   UNL     1      -4.342  -2.795  -1.632  0.00  0.00    -0.266 OA
ATOM      7  O   UNL     1      -5.905  -4.512   0.206  0.00  0.00    -0.282 OA
ENDROOT
BRANCH   2   8
ATOM      8  C   UNL     1      -3.970  -0.960   2.379  0.00  0.00    -0.015 A 
ATOM      9  C   UNL     1      -4.790  -0.075   1.748  0.00  0.00    +0.006 A 
ATOM     10  C   UNL     1      -5.215   1.089   2.384  0.00  0.00    +0.001 A 
ATOM     11  C   UNL     1      -4.823   1.376   3.656  0.00  0.00    +0.008 A 
ATOM     12  C   UNL     1      -3.977   0.487   4.340  0.00  0.00    -0.018 A 
ATOM     13  C   UNL     1      -3.549  -0.700   3.694  0.00  0.00    -0.013 A 
ATOM     14  C   UNL     1      -2.707  -1.592   4.381  0.00  0.00    +0.009 A 
ATOM     15  C   UNL     1      -2.320  -1.308   5.654  0.00  0.00    +0.001 A 
ATOM     16  C   UNL     1      -2.745  -0.143   6.291  0.00  0.00    +0.001 A 
ATOM     17  C   UNL     1      -3.550   0.750   5.653  0.00  0.00    +0.008 A 
ENDBRANCH   2   8
BRANCH   3  18
ATOM     18  C   UNL     1      -5.084  -3.880   3.035  0.00  0.00    +0.195 C 
ATOM     19  O   UNL     1      -6.185  -3.572   3.452  0.00  0.00    -0.287 OA
BRANCH  18  20
ATOM     20  C   UNL     1      -4.256  -4.852   3.780  0.00  0.00    +0.022 A 
ATOM     21  C   UNL     1      -3.022  -5.260   3.269  0.00  0.00    +0.013 A 
ATOM     22  C   UNL     1      -2.254  -6.167   3.970  0.00  0.00    +0.029 A 
ATOM     23  C   UNL     1      -2.705  -6.673   5.176  0.00  0.00    +0.105 A 
ATOM     24  C   UNL     1      -3.927  -6.274   5.688  0.00  0.00    +0.029 A 
ATOM     25  C   UNL     1      -4.702  -5.363   5.001  0.00  0.00    +0.013 A 
BRANCH  23  26
ATOM     26  S   UNL     1      -1.718  -7.832   6.064  0.00  0.00    +0.060 S 
ATOM     27  O   UNL     1      -2.616  -8.647   6.804  0.00  0.00    -0.153 OA
ATOM     28  O   UNL     1      -0.789  -8.371   5.134  0.00  0.00    -0.153 OA
BRANCH  26  29
ATOM     29  N   UNL     1      -0.835  -6.975   7.172  0.00  0.00    -0.183 NA
ATOM     30  C   UNL     1      -1.318  -6.841   8.549  0.00  0.00    +0.131 C 
ATOM     31  C   UNL     1       0.430  -6.351   6.776  0.00  0.00    +0.131 C 
ENDBRANCH  26  29
ENDBRANCH  23  26
ENDBRANCH  18  20
ENDBRANCH   3  18
BRANCH   1  32
ATOM     32  C   UNL     1      -2.443  -0.988  -0.367  0.00  0.00    +0.109 C 
BRANCH  32  33
ATOM     33  C   UNL     1      -3.189   0.318  -0.650  0.00  0.00    +0.019 C 
BRANCH  33  35
ATOM     34  C   UNL     1      -2.981   2.624  -1.587  0.00  0.00    +0.004 C 
ATOM     35  C   UNL     1      -2.235   1.319  -1.305  0.00  0.00    -0.002 C 
ENDBRANCH  33  35
ENDBRANCH  32  33
ENDBRANCH   1  32
TORSDOF 8
