REMARK  Name = ZINC40382373
REMARK  5 active torsions:
REMARK  status: ('A' for Active; 'I' for Inactive)
REMARK    1  A    between atoms: C_1  and  N_2
REMARK    2  A    between atoms: C_6  and  C_7
REMARK    3  A    between atoms: N_9  and  C_10
REMARK    4  A    between atoms: C_14  and  S_16
REMARK    5  A    between atoms: S_16  and  N_19
REMARK                            x       y       z     vdW  Elec       q    Type
REMARK                         _______ _______ _______ _____ _____    ______ ____
ROOT
ATOM      1  C   UNL     1      -0.398   1.368   4.112  0.00  0.00    +0.038 A 
ATOM      2  C   UNL     1      -0.291   0.450   5.149  0.00  0.00    +0.061 A 
ATOM      3  C   UNL     1      -0.296   0.887   6.461  0.00  0.00    +0.127 A 
ATOM      4  C   UNL     1      -0.407   2.240   6.740  0.00  0.00    +0.067 A 
ATOM      5  C   UNL     1      -0.514   3.154   5.709  0.00  0.00    +0.109 A 
ATOM      6  C   UNL     1      -0.504   2.723   4.397  0.00  0.00    +0.052 A 
ATOM      7  F   UNL     1      -0.192  -0.004   7.471  0.00  0.00    -0.205 F 
ENDROOT
BRANCH   1  10
ATOM      8  C   UNL     1       0.155  -0.262   2.470  0.00  0.00    +0.265 C 
ATOM      9  O   UNL     1       0.499  -1.025   3.354  0.00  0.00    -0.268 OA
ATOM     10  N   UNL     1      -0.393   0.929   2.785  0.00  0.00    -0.280 N 
ATOM     11  H   UNL     1      -0.784   1.481   2.090  0.00  0.00    +0.155 HD
BRANCH   8  17
ATOM     12  C   UNL     1       1.183  -2.992   1.429  0.00  0.00    +0.149 C 
ATOM     13  N   UNL     1       0.794  -1.849   0.599  0.00  0.00    -0.345 N 
ATOM     14  C   UNL     1       0.819  -1.811  -0.756  0.00  0.00    +0.101 A 
ATOM     15  C   UNL     1       0.391  -0.593  -1.169  0.00  0.00    +0.036 A 
ATOM     16  C   UNL     1       0.086   0.162  -0.031  0.00  0.00    +0.047 A 
ATOM     17  C   UNL     1       0.338  -0.637   1.065  0.00  0.00    +0.106 A 
ATOM     18 BR   UNL     1       0.234  -0.017  -2.963  0.00  0.00    -0.049 Br
ENDBRANCH   8  17
ENDBRANCH   1  10
BRANCH   5  19
ATOM     19  S   UNL     1      -0.656   4.873   6.069  0.00  0.00    +0.056 S 
ATOM     20  O   UNL     1      -1.290   5.472   4.947  0.00  0.00    -0.153 OA
ATOM     21  O   UNL     1      -1.184   4.970   7.385  0.00  0.00    -0.153 OA
BRANCH  19  22
ATOM     22  N   UNL     1       0.880   5.489   6.129  0.00  0.00    -0.204 NA
ATOM     23  H   UNL     1       1.042   6.413   5.883  0.00  0.00    +0.144 HD
ATOM     24  H   UNL     1       1.618   4.926   6.410  0.00  0.00    +0.144 HD
ENDBRANCH  19  22
ENDBRANCH   5  19
TORSDOF 4
