REMARK  Name = ZINC40014318
REMARK  16 active torsions:
REMARK  status: ('A' for Active; 'I' for Inactive)
REMARK    1  A    between atoms: C_1  and  C_2
REMARK    2  A    between atoms: C_2  and  C_3
REMARK    3  A    between atoms: C_3  and  C_4
REMARK    4  A    between atoms: C_4  and  N_5
REMARK    5  A    between atoms: N_5  and  C_6
REMARK    6  A    between atoms: N_5  and  C_10
REMARK    7  A    between atoms: C_6  and  C_7
REMARK    8  A    between atoms: C_7  and  C_8
REMARK    9  A    between atoms: C_8  and  C_9
REMARK   10  A    between atoms: C_10  and  C_11
REMARK   11  A    between atoms: C_11  and  C_12
REMARK   12  A    between atoms: C_12  and  N_13
REMARK   13  A    between atoms: C_14  and  C_30
REMARK   14  A    between atoms: C_33  and  C_36
REMARK   15  A    between atoms: C_36  and  O_38
REMARK   16  A    between atoms: O_38  and  C_39
REMARK                            x       y       z     vdW  Elec       q    Type
REMARK                         _______ _______ _______ _____ _____    ______ ____
ROOT
ATOM      1  N   UNL     1      -5.998  -6.418   0.260  0.00  0.00    -0.284 N 
ATOM      2  C   UNL     1      -6.959  -6.474   1.373  0.00  0.00    +0.144 C 
ATOM      3  C   UNL     1      -8.240  -6.964   0.781  0.00  0.00    +0.072 A 
ATOM      4  C   UNL     1      -9.546  -7.231   1.391  0.00  0.00    +0.199 A 
ATOM      5  O   UNL     1      -9.829  -6.907   2.532  0.00  0.00    -0.287 OA
ATOM      6  C   UNL     1     -10.493  -7.932   0.487  0.00  0.00    +0.067 A 
ATOM      7  C   UNL     1     -11.699  -8.432   0.978  0.00  0.00    +0.053 A 
ATOM      8  C   UNL     1     -12.563  -9.085   0.125  0.00  0.00    +0.124 A 
ATOM      9  C   UNL     1     -12.231  -9.242  -1.216  0.00  0.00    +0.042 A 
ATOM     10  C   UNL     1     -11.044  -8.751  -1.710  0.00  0.00    +0.050 A 
ATOM     11  C   UNL     1     -10.155  -8.084  -0.867  0.00  0.00    +0.140 A 
ATOM     12  O   UNL     1      -9.000  -7.603  -1.382  0.00  0.00    -0.450 OA
ATOM     13  C   UNL     1      -8.032  -7.165  -0.554  0.00  0.00    +0.199 A 
ATOM     14  C   UNL     1      -6.633  -6.818  -0.861  0.00  0.00    +0.283 C 
ATOM     15  O   UNL     1      -6.125  -6.885  -1.962  0.00  0.00    -0.267 OA
ATOM     16  F   UNL     1     -13.733  -9.572   0.592  0.00  0.00    -0.205 F 
ENDROOT
BRANCH   2  17
ATOM     17  C   UNL     1      -7.149  -5.101   1.965  0.00  0.00    -0.022 A 
ATOM     18  C   UNL     1      -7.224  -3.998   1.134  0.00  0.00    +0.006 A 
ATOM     19  C   UNL     1      -7.398  -2.738   1.669  0.00  0.00    +0.015 A 
ATOM     20  C   UNL     1      -7.499  -2.579   3.053  0.00  0.00    +0.059 A 
ATOM     21  C   UNL     1      -7.424  -3.697   3.885  0.00  0.00    +0.015 A 
ATOM     22  C   UNL     1      -7.255  -4.951   3.337  0.00  0.00    +0.006 A 
BRANCH  20  23
ATOM     23  C   UNL     1      -7.686  -1.233   3.633  0.00  0.00    +0.339 C 
ATOM     24  O   UNL     1      -7.751  -0.262   2.906  0.00  0.00    -0.245 OA
BRANCH  23  25
ATOM     25  O   UNL     1      -7.783  -1.083   4.968  0.00  0.00    -0.464 OA
ATOM     26  C   UNL     1      -7.962   0.247   5.460  0.00  0.00    +0.280 C 
ENDBRANCH  23  25
ENDBRANCH  20  23
ENDBRANCH   2  17
BRANCH   1  27
ATOM     27  C   UNL     1      -4.598  -5.997   0.352  0.00  0.00    +0.107 C 
BRANCH  27  28
ATOM     28  C   UNL     1      -4.504  -4.487   0.120  0.00  0.00    +0.000 C 
BRANCH  28  29
ATOM     29  C   UNL     1      -3.042  -4.047   0.216  0.00  0.00    -0.077 C 
BRANCH  29  30
ATOM     30  N   UNL     1      -2.935  -2.624  -0.134  0.00  0.00    +0.380 N 
ATOM     31  H   UNL     1      -3.346  -2.469  -1.042  0.00  0.00    -0.082 HD
BRANCH  30  32
ATOM     32  C   UNL     1      -3.645  -1.819   0.869  0.00  0.00    -0.079 C 
BRANCH  32  33
ATOM     33  C   UNL     1      -3.641  -0.350   0.440  0.00  0.00    -0.019 C 
BRANCH  33  35
ATOM     34  C   UNL     1      -4.376   1.957   1.055  0.00  0.00    +0.004 C 
ATOM     35  C   UNL     1      -4.380   0.489   1.484  0.00  0.00    -0.005 C 
ENDBRANCH  33  35
ENDBRANCH  32  33
ENDBRANCH  30  32
BRANCH  30  36
ATOM     36  C   UNL     1      -1.520  -2.232  -0.163  0.00  0.00    -0.079 C 
BRANCH  36  37
ATOM     37  C   UNL     1      -0.814  -2.955  -1.313  0.00  0.00    -0.019 C 
BRANCH  37  38
ATOM     38  C   UNL     1       0.676  -2.609  -1.294  0.00  0.00    -0.005 C 
ATOM     39  C   UNL     1       1.381  -3.332  -2.443  0.00  0.00    +0.004 C 
ENDBRANCH  37  38
ENDBRANCH  36  37
ENDBRANCH  30  36
ENDBRANCH  29  30
ENDBRANCH  28  29
ENDBRANCH  27  28
ENDBRANCH   1  27
TORSDOF 13
