REMARK  Name = ZINC33726911
REMARK  5 active torsions:
REMARK  status: ('A' for Active; 'I' for Inactive)
REMARK    1  A    between atoms: C_8  and  N_30
REMARK    2  A    between atoms: C_9  and  C_12
REMARK    3  A    between atoms: N_16  and  C_20
REMARK    4  A    between atoms: C_20  and  C_21
REMARK    5  A    between atoms: N_30  and  C_31
REMARK                            x       y       z     vdW  Elec       q    Type
REMARK                         _______ _______ _______ _____ _____    ______ ____
ROOT
ATOM      1  C   UNL     1      -4.127   9.870  -4.868  0.00  0.00    +0.005 A 
ATOM      2  C   UNL     1      -4.503   8.824  -4.013  0.00  0.00    +0.018 A 
ATOM      3  C   UNL     1      -3.877   8.661  -2.826  0.00  0.00    +0.096 A 
ATOM      4  N   UNL     1      -2.878   9.505  -2.442  0.00  0.00    -0.268 N 
ATOM      5  C   UNL     1      -2.490  10.534  -3.253  0.00  0.00    +0.142 A 
ATOM      6  C   UNL     1      -3.129  10.719  -4.493  0.00  0.00    +0.047 A 
ATOM      7  N   UNL     1      -1.515  11.370  -2.895  0.00  0.00    -0.214 NA
ATOM      8  C   UNL     1      -0.879  11.242  -1.740  0.00  0.00    +0.134 A 
ATOM      9  C   UNL     1      -1.238  10.195  -0.859  0.00  0.00    +0.081 A 
ATOM     10  C   UNL     1      -2.270   9.310  -1.251  0.00  0.00    +0.267 A 
ATOM     11  O   UNL     1      -2.608   8.391  -0.526  0.00  0.00    -0.267 OA
ENDROOT
BRANCH   9  12
ATOM     12  C   UNL     1      -0.577  10.033   0.381  0.00  0.00    +0.037 C 
ATOM     13  C   UNL     1      -1.258  10.226   1.548  0.00  0.00    +0.077 C 
ATOM     14  C   UNL     1      -2.589  10.688   1.754  0.00  0.00    +0.259 C 
ATOM     15  O   UNL     1      -3.304  10.979   0.811  0.00  0.00    -0.269 OA
ATOM     16  N   UNL     1      -3.027  10.792   2.997  0.00  0.00    -0.251 N 
ATOM     17  C   UNL     1      -2.231  10.475   4.043  0.00  0.00    +0.121 C 
ATOM     18  S   UNL     1      -2.583  10.541   5.717  0.00  0.00    -0.027 S 
ATOM     19  S   UNL     1      -0.721   9.969   3.234  0.00  0.00    -0.061 S 
BRANCH  16  20
ATOM     20  C   UNL     1      -4.391  11.264   3.244  0.00  0.00    +0.150 C 
BRANCH  20  21
ATOM     21  C   UNL     1      -5.332  10.087   3.275  0.00  0.00    -0.026 A 
ATOM     22  C   UNL     1      -5.939   9.659   2.110  0.00  0.00    +0.009 A 
ATOM     23  C   UNL     1      -6.802   8.579   2.133  0.00  0.00    +0.050 A 
ATOM     24  C   UNL     1      -7.062   7.925   3.326  0.00  0.00    +0.166 A 
ATOM     25  C   UNL     1      -6.451   8.357   4.500  0.00  0.00    +0.167 A 
ATOM     26  C   UNL     1      -5.587   9.439   4.469  0.00  0.00    +0.054 A 
ATOM     27  O   UNL     1      -6.862   7.556   5.529  0.00  0.00    -0.453 OA
ATOM     28  C   UNL     1      -7.413   6.383   4.902  0.00  0.00    +0.466 C 
ATOM     29  O   UNL     1      -7.858   6.855   3.617  0.00  0.00    -0.453 OA
ENDBRANCH  20  21
ENDBRANCH  16  20
ENDBRANCH   9  12
BRANCH   8  30
ATOM     30  N   UNL     1       0.124  12.123  -1.399  0.00  0.00    -0.326 N 
ATOM     31  H   UNL     1       0.649  12.014  -0.439  0.00  0.00    +0.148 HD
BRANCH  30  32
ATOM     32  C   UNL     1       0.491  13.205  -2.315  0.00  0.00    +0.072 C 
ATOM     33  C   UNL     1       1.546  12.708  -3.325  0.00  0.00    +0.022 C 
ATOM     34  C   UNL     1       2.488  13.924  -3.519  0.00  0.00    +0.002 C 
ATOM     35  C   UNL     1       2.567  14.526  -2.094  0.00  0.00    +0.002 C 
ATOM     36  C   UNL     1       1.140  14.361  -1.533  0.00  0.00    +0.022 C 
ENDBRANCH  30  32
ENDBRANCH   8  30
TORSDOF 5
