REMARK  Name = ZINC10519609
REMARK  7 active torsions:
REMARK  status: ('A' for Active; 'I' for Inactive)
REMARK    1  A    between atoms: C_1  and  C_2
REMARK    2  A    between atoms: C_5  and  C_34
REMARK    3  A    between atoms: N_6  and  C_7
REMARK    4  A    between atoms: C_11  and  C_13
REMARK    5  A    between atoms: N_15  and  C_16
REMARK    6  A    between atoms: C_19  and  S_22
REMARK    7  A    between atoms: S_22  and  N_25
REMARK                            x       y       z     vdW  Elec       q    Type
REMARK                         _______ _______ _______ _____ _____    ______ ____
ROOT
ATOM      1  C   UNL     1      -9.257   3.419   4.122  0.00  0.00    +0.250 C 
ATOM      2  O   UNL     1      -9.068   2.778   3.106  0.00  0.00    -0.270 OA
ATOM      3  N   UNL     1      -8.254   4.141   4.659  0.00  0.00    -0.281 N 
ATOM      4  H   UNL     1      -8.381   4.590   5.509  0.00  0.00    +0.155 HD
ENDROOT
BRANCH   1   9
ATOM      5  C   UNL     1     -12.054   4.125   6.532  0.00  0.00    +0.047 A 
ATOM      6  C   UNL     1     -13.084   3.378   5.973  0.00  0.00    +0.027 A 
ATOM      7  C   UNL     1     -12.869   2.650   4.819  0.00  0.00    +0.023 A 
ATOM      8  C   UNL     1     -11.628   2.659   4.212  0.00  0.00    +0.053 A 
ATOM      9  C   UNL     1     -10.586   3.406   4.767  0.00  0.00    +0.057 A 
ATOM     10  C   UNL     1     -10.804   4.137   5.936  0.00  0.00    +0.040 A 
ATOM     11 CL   UNL     1     -11.363   1.741   2.763  0.00  0.00    -0.083 Cl
BRANCH   5  17
ATOM     12  C   UNL     1     -11.931   7.186   6.692  0.00  0.00    +0.064 C 
ATOM     13  C   UNL     1     -12.231   6.222   7.811  0.00  0.00    +0.021 A 
ATOM     14  C   UNL     1     -12.504   6.554   9.089  0.00  0.00    +0.023 A 
ATOM     15  C   UNL     1     -12.718   5.357   9.801  0.00  0.00    +0.023 A 
ATOM     16  C   UNL     1     -12.574   4.337   8.930  0.00  0.00    +0.021 A 
ATOM     17  N   UNL     1     -12.278   4.862   7.704  0.00  0.00    -0.318 N 
ATOM     18  C   UNL     1     -12.716   2.872   9.254  0.00  0.00    +0.064 C 
ENDBRANCH   5  17
ENDBRANCH   1   9
BRANCH   3  19
ATOM     19  C   UNL     1      -7.029   4.243   3.990  0.00  0.00    +0.034 A 
ATOM     20  C   UNL     1      -5.847   4.336   4.713  0.00  0.00    +0.025 A 
ATOM     21  C   UNL     1      -4.640   4.436   4.050  0.00  0.00    +0.031 A 
ATOM     22  C   UNL     1      -4.607   4.445   2.668  0.00  0.00    +0.113 A 
ATOM     23  C   UNL     1      -5.783   4.358   1.945  0.00  0.00    +0.031 A 
ATOM     24  C   UNL     1      -6.993   4.252   2.602  0.00  0.00    +0.025 A 
BRANCH  22  25
ATOM     25  S   UNL     1      -3.065   4.575   1.826  0.00  0.00    +0.100 S 
ATOM     26  O   UNL     1      -2.161   5.197   2.728  0.00  0.00    -0.146 OA
ATOM     27  O   UNL     1      -3.348   5.110   0.540  0.00  0.00    -0.146 OA
BRANCH  25  28
ATOM     28  N   UNL     1      -2.508   3.034   1.585  0.00  0.00    -0.118 NA
ATOM     29  C   UNL     1      -1.381   2.841   0.981  0.00  0.00    +0.117 C 
ATOM     30  C   UNL     1      -0.601   4.020   0.510  0.00  0.00    +0.073 C 
ATOM     31  C   UNL     1      -0.935   4.322  -0.966  0.00  0.00    +0.008 C 
ATOM     32  C   UNL     1      -0.388   3.267  -1.847  0.00  0.00    +0.002 C 
ATOM     33  C   UNL     1      -0.986   1.886  -1.623  0.00  0.00    +0.019 C 
ATOM     34  C   UNL     1      -0.279   1.182  -0.491  0.00  0.00    +0.102 C 
ATOM     35  N   UNL     1      -0.931   1.543   0.790  0.00  0.00    -0.331 N 
ATOM     36  H   UNL     1      -1.043   0.878   1.487  0.00  0.00    +0.147 HD
ENDBRANCH  25  28
ENDBRANCH  22  25
ENDBRANCH   3  19
TORSDOF 5
