REMARK  Name = ZINC63383522
REMARK  6 active torsions:
REMARK  status: ('A' for Active; 'I' for Inactive)
REMARK    1  A    between atoms: C_1  and  C_2
REMARK    2  A    between atoms: C_2  and  C_3
REMARK    3  A    between atoms: C_3  and  C_5
REMARK    4  A    between atoms: C_3  and  N_6
REMARK    5  A    between atoms: C_11  and  C_28
REMARK    6  A    between atoms: C_28  and  C_29
REMARK                            x       y       z     vdW  Elec       q    Type
REMARK                         _______ _______ _______ _____ _____    ______ ____
ROOT
ATOM      1  N   UNL     1      -0.055  -0.114  -2.441  0.00  0.00    -0.239 N 
ATOM      2  C   UNL     1      -1.315  -0.515  -2.643  0.00  0.00    +0.227 C 
ATOM      3  O   UNL     1      -1.954  -1.223  -1.894  0.00  0.00    -0.275 OA
ATOM      4  C   UNL     1      -1.819   0.052  -3.951  0.00  0.00    +0.107 C 
ATOM      5  C   UNL     1      -2.007  -1.100  -4.962  0.00  0.00    +0.072 C 
ATOM      6  N   UNL     1      -1.387  -0.608  -6.220  0.00  0.00    -0.295 NA
ATOM      7  C   UNL     1      -0.191   0.128  -5.771  0.00  0.00    +0.136 C 
ATOM      8  C   UNL     1      -0.608   0.871  -4.477  0.00  0.00    +0.122 C 
ATOM      9  C   UNL     1       0.440   0.671  -3.405  0.00  0.00    +0.228 C 
ATOM     10  O   UNL     1       1.555   1.146  -3.418  0.00  0.00    -0.275 OA
ATOM     11  C   UNL     1       0.291   1.088  -6.821  0.00  0.00    +0.003 A 
ATOM     12  C   UNL     1      -0.286   2.162  -7.460  0.00  0.00    +0.008 A 
ATOM     13  C   UNL     1       0.430   2.870  -8.409  0.00  0.00    +0.000 A 
ATOM     14  C   UNL     1       1.726   2.496  -8.713  0.00  0.00    +0.002 A 
ATOM     15  C   UNL     1       2.309   1.422  -8.074  0.00  0.00    +0.023 A 
ATOM     16  C   UNL     1       1.596   0.703  -7.118  0.00  0.00    +0.039 A 
ATOM     17  N   UNL     1       1.961  -0.403  -6.347  0.00  0.00    -0.283 N 
ATOM     18  C   UNL     1       0.967  -0.802  -5.530  0.00  0.00    +0.243 C 
ATOM     19  O   UNL     1       0.999  -1.732  -4.751  0.00  0.00    -0.273 OA
ATOM     20  H   UNL     1      -1.134  -1.376  -6.824  0.00  0.00    +0.124 HD
ATOM     21  H   UNL     1       2.829  -0.833  -6.394  0.00  0.00    +0.155 HD
ENDROOT
BRANCH   1  22
ATOM     22  C   UNL     1       0.718  -0.497  -1.257  0.00  0.00    +0.081 C 
ATOM     23  C   UNL     1       0.849  -2.021  -1.205  0.00  0.00    +0.028 C 
BRANCH  22  25
ATOM     24  C   UNL     1      -0.019   1.526   0.010  0.00  0.00    +0.006 C 
ATOM     25  C   UNL     1       0.002  -0.004   0.002  0.00  0.00    +0.019 C 
ENDBRANCH  22  25
ENDBRANCH   1  22
BRANCH   5  26
ATOM     26  C   UNL     1      -3.495  -1.385  -5.174  0.00  0.00    +0.052 C 
BRANCH  26  27
ATOM     27  C   UNL     1      -3.654  -2.589  -6.066  0.00  0.00    -0.040 C 
ATOM     28  C   UNL     1      -3.839  -3.871  -5.677  0.00  0.00    -0.001 A 
ATOM     29  C   UNL     1      -3.943  -4.504  -4.357  0.00  0.00    +0.010 A 
ATOM     30  C   UNL     1      -4.132  -5.841  -4.283  0.00  0.00    +0.001 A 
ATOM     31  C   UNL     1      -4.230  -6.636  -5.434  0.00  0.00    +0.002 A 
ATOM     32  C   UNL     1      -4.144  -6.127  -6.681  0.00  0.00    +0.026 A 
ATOM     33  C   UNL     1      -3.946  -4.732  -6.876  0.00  0.00    +0.043 A 
ATOM     34  N   UNL     1      -3.831  -4.011  -7.965  0.00  0.00    -0.380 N 
ATOM     35  C   UNL     1      -3.644  -2.608  -7.578  0.00  0.00    +0.144 C 
ATOM     36  H   UNL     1      -3.868  -4.348  -8.874  0.00  0.00    +0.160 HD
ENDBRANCH  26  27
ENDBRANCH   5  26
TORSDOF 4
