REMARK  Name = ZINC63820519
REMARK  8 active torsions:
REMARK  status: ('A' for Active; 'I' for Inactive)
REMARK    1  A    between atoms: C_7  and  C_10
REMARK    2  A    between atoms: C_10  and  C_11
REMARK    3  A    between atoms: C_11  and  C_12
REMARK    4  A    between atoms: N_14  and  C_15
REMARK    5  A    between atoms: C_17  and  S_22
REMARK    6  A    between atoms: C_20  and  O_21
REMARK    7  A    between atoms: S_22  and  N_25
REMARK    8  A    between atoms: N_25  and  C_26
REMARK                            x       y       z     vdW  Elec       q    Type
REMARK                         _______ _______ _______ _____ _____    ______ ____
ROOT
ATOM      1  C   UNL     1      -1.733  -6.257  -2.588  0.00  0.00    +0.077 A 
ATOM      2  C   UNL     1      -2.232  -6.904  -1.468  0.00  0.00    +0.055 A 
ATOM      3  C   UNL     1      -3.026  -8.026  -1.614  0.00  0.00    +0.110 A 
ATOM      4  C   UNL     1      -3.323  -8.507  -2.875  0.00  0.00    +0.032 A 
ATOM      5  C   UNL     1      -2.829  -7.868  -3.997  0.00  0.00    +0.049 A 
ATOM      6  C   UNL     1      -2.037  -6.739  -3.860  0.00  0.00    +0.138 A 
ENDROOT
BRANCH   1   9
ATOM      7  C   UNL     1      -0.110  -5.004  -1.379  0.00  0.00    +0.218 C 
ATOM      8  O   UNL     1      -0.128  -5.846  -0.506  0.00  0.00    -0.275 OA
ATOM      9  N   UNL     1      -0.928  -5.119  -2.443  0.00  0.00    -0.283 N 
ATOM     10  H   UNL     1      -0.961  -4.414  -3.108  0.00  0.00    +0.155 HD
BRANCH   7  11
ATOM     11  C   UNL     1       0.828  -3.830  -1.273  0.00  0.00    +0.100 C 
BRANCH  11  12
ATOM     12  C   UNL     1       1.639  -3.939   0.020  0.00  0.00    +0.042 C 
BRANCH  12  19
ATOM     13  C   UNL     1       1.296   0.122   2.129  0.00  0.00    +0.001 A 
ATOM     14  C   UNL     1       2.425   0.936   1.968  0.00  0.00    +0.002 A 
ATOM     15  C   UNL     1       3.507   0.550   1.258  0.00  0.00    +0.026 A 
ATOM     16  C   UNL     1       3.538  -0.726   0.633  0.00  0.00    +0.043 A 
ATOM     17  N   UNL     1       4.453  -1.319  -0.096  0.00  0.00    -0.380 N 
ATOM     18  C   UNL     1       3.954  -2.642  -0.487  0.00  0.00    +0.144 C 
ATOM     19  C   UNL     1       2.577  -2.764   0.126  0.00  0.00    -0.041 C 
ATOM     20  C   UNL     1       2.357  -1.605   0.788  0.00  0.00    -0.001 A 
ATOM     21  C   UNL     1       1.223  -1.111   1.577  0.00  0.00    +0.010 A 
ATOM     22  H   UNL     1       5.314  -0.945  -0.338  0.00  0.00    +0.160 HD
ENDBRANCH  12  19
ENDBRANCH  11  12
ENDBRANCH   7  11
ENDBRANCH   1   9
BRANCH   3  23
ATOM     23  S   UNL     1      -3.659  -8.846  -0.189  0.00  0.00    +0.072 S 
ATOM     24  O   UNL     1      -3.808 -10.215  -0.540  0.00  0.00    -0.150 OA
ATOM     25  O   UNL     1      -2.863  -8.424   0.910  0.00  0.00    -0.150 OA
BRANCH  23  26
ATOM     26  N   UNL     1      -5.184  -8.257   0.078  0.00  0.00    -0.216 N 
ATOM     27  H   UNL     1      -5.948  -8.853   0.033  0.00  0.00    +0.174 HD
BRANCH  26  28
ATOM     28  C   UNL     1      -5.369  -6.902   0.366  0.00  0.00    +0.048 A 
ATOM     29  C   UNL     1      -4.539  -6.266   1.279  0.00  0.00    +0.026 A 
ATOM     30  C   UNL     1      -4.724  -4.927   1.562  0.00  0.00    +0.022 A 
ATOM     31  C   UNL     1      -5.736  -4.220   0.938  0.00  0.00    +0.041 A 
ATOM     32  C   UNL     1      -6.565  -4.851   0.028  0.00  0.00    +0.022 A 
ATOM     33  C   UNL     1      -6.381  -6.189  -0.264  0.00  0.00    +0.026 A 
ATOM     34 CL   UNL     1      -5.966  -2.537   1.296  0.00  0.00    -0.084 Cl
ENDBRANCH  26  28
ENDBRANCH  23  26
ENDBRANCH   3  23
BRANCH   6  35
ATOM     35  O   UNL     1      -1.555  -6.106  -4.962  0.00  0.00    -0.505 OA
ATOM     36  H   UNL     1      -0.696  -6.435  -5.260  0.00  0.00    +0.292 HD
ENDBRANCH   6  35
TORSDOF 8
