REMARK  Name = ZINC41515141
REMARK  9 active torsions:
REMARK  status: ('A' for Active; 'I' for Inactive)
REMARK    1  A    between atoms: C_1  and  C_2
REMARK    2  A    between atoms: C_4  and  O_32
REMARK    3  A    between atoms: C_5  and  C_21
REMARK    4  A    between atoms: C_11  and  C_12
REMARK    5  A    between atoms: C_17  and  O_18
REMARK    6  A    between atoms: O_18  and  C_19
REMARK    7  A    between atoms: C_21  and  N_22
REMARK    8  A    between atoms: C_24  and  C_31
REMARK    9  A    between atoms: C_27  and  C_30
REMARK                            x       y       z     vdW  Elec       q    Type
REMARK                         _______ _______ _______ _____ _____    ______ ____
ROOT
ATOM      1  C   UNL     1      -1.788   1.415   0.328  0.00  0.00    +0.045 C 
ATOM      2  C   UNL     1      -1.454  -0.052   0.236  0.00  0.00    -0.033 A 
ATOM      3  C   UNL     1      -1.587  -0.711  -0.953  0.00  0.00    +0.050 A 
ATOM      4  C   UNL     1      -1.280  -2.066  -1.040  0.00  0.00    +0.122 A 
ATOM      5  C   UNL     1      -0.837  -2.761   0.075  0.00  0.00    +0.020 A 
ATOM      6  C   UNL     1      -0.696  -2.106   1.291  0.00  0.00    +0.145 A 
ATOM      7  C   UNL     1      -1.004  -0.737   1.365  0.00  0.00    +0.071 A 
ATOM      8  C   UNL     1      -0.752  -0.329   2.759  0.00  0.00    +0.232 C 
ATOM      9  O   UNL     1      -0.898   0.777   3.251  0.00  0.00    -0.283 OA
ATOM     10  C   UNL     1      -0.287  -1.555   3.424  0.00  0.00    +0.176 C 
ATOM     11  C   UNL     1       0.070  -1.674   4.729  0.00  0.00    +0.061 C 
ATOM     12  O   UNL     1      -0.292  -2.547   2.502  0.00  0.00    -0.451 OA
ENDROOT
BRANCH  11  13
ATOM     13  C   UNL     1       0.172  -0.478   5.573  0.00  0.00    +0.020 A 
ATOM     14  C   UNL     1       0.762   0.689   5.073  0.00  0.00    +0.011 A 
ATOM     15  C   UNL     1       0.855   1.807   5.872  0.00  0.00    +0.001 A 
ATOM     16  C   UNL     1       0.367   1.783   7.169  0.00  0.00    +0.004 A 
ATOM     17  C   UNL     1      -0.218   0.638   7.676  0.00  0.00    +0.046 A 
ATOM     18  C   UNL     1      -0.326  -0.495   6.887  0.00  0.00    +0.127 A 
BRANCH  18  19
ATOM     19  O   UNL     1      -0.905  -1.618   7.382  0.00  0.00    -0.495 OA
ATOM     20  C   UNL     1      -1.388  -1.561   8.725  0.00  0.00    +0.277 C 
ENDBRANCH  18  19
ENDBRANCH  11  13
BRANCH   4  21
ATOM     21  O   UNL     1      -1.415  -2.712  -2.226  0.00  0.00    -0.506 OA
ATOM     22  H   UNL     1      -0.619  -2.696  -2.775  0.00  0.00    +0.292 HD
ENDBRANCH   4  21
BRANCH   5  23
ATOM     23  C   UNL     1      -0.508  -4.228  -0.034  0.00  0.00    -0.036 C 
BRANCH  23  24
ATOM     24  N   UNL     1       0.907  -4.387  -0.391  0.00  0.00    +0.383 N 
ATOM     25  C   UNL     1       1.139  -3.829  -1.729  0.00  0.00    -0.075 C 
ATOM     26  C   UNL     1       2.627  -3.920  -2.073  0.00  0.00    -0.031 C 
ATOM     27  C   UNL     1       3.063  -5.388  -2.048  0.00  0.00    +0.003 C 
ATOM     28  C   UNL     1       2.748  -5.980  -0.672  0.00  0.00    -0.031 C 
ATOM     29  C   UNL     1       1.256  -5.813  -0.379  0.00  0.00    -0.075 C 
ATOM     30  C   UNL     1       3.109  -7.467  -0.661  0.00  0.00    +0.005 C 
ATOM     31  C   UNL     1       3.438  -3.127  -1.046  0.00  0.00    +0.005 C 
ATOM     32  H   UNL     1       1.480  -3.897   0.279  0.00  0.00    -0.081 HD
ENDBRANCH  23  24
ENDBRANCH   5  23
TORSDOF 5
