REMARK  Name = ZINC11866960
REMARK  7 active torsions:
REMARK  status: ('A' for Active; 'I' for Inactive)
REMARK    1  A    between atoms: C_1  and  C_2
REMARK    2  A    between atoms: C_11  and  O_14
REMARK    3  A    between atoms: C_12  and  C_13
REMARK    4  A    between atoms: O_14  and  C_15
REMARK    5  A    between atoms: C_15  and  C_17
REMARK    6  A    between atoms: C_15  and  C_18
REMARK    7  A    between atoms: C_23  and  O_31
REMARK                            x       y       z     vdW  Elec       q    Type
REMARK                         _______ _______ _______ _____ _____    ______ ____
ROOT
ATOM      1  C   UNL     1      -0.877   1.712   1.355  0.00  0.00    +0.256 C 
ATOM      2  C   UNL     1      -0.165   1.404   0.036  0.00  0.00    +0.062 C 
ENDROOT
BRANCH   1   3
ATOM      3  C   UNL     1      -2.197   0.986   1.395  0.00  0.00    +0.256 C 
ATOM      4  O   UNL     1      -2.354   0.054   2.154  0.00  0.00    -0.272 OA
ATOM      5  N   UNL     1      -3.203   1.373   0.586  0.00  0.00    -0.298 N 
ATOM      6  C   UNL     1      -3.071   2.571  -0.255  0.00  0.00    +0.110 C 
ATOM      7  C   UNL     1      -3.374   2.189  -1.706  0.00  0.00    +0.054 C 
ATOM      8  C   UNL     1      -4.751   1.522  -1.779  0.00  0.00    +0.072 C 
ATOM      9  C   UNL     1      -5.063   1.170  -3.235  0.00  0.00    +0.035 C 
ATOM     10  C   UNL     1      -6.435   0.498  -3.316  0.00  0.00    +0.003 C 
ATOM     11  C   UNL     1      -6.426  -0.780  -2.475  0.00  0.00    +0.001 C 
ATOM     12  C   UNL     1      -6.118  -0.428  -1.019  0.00  0.00    +0.008 C 
ATOM     13  C   UNL     1      -4.747   0.246  -0.933  0.00  0.00    +0.038 C 
ATOM     14  C   UNL     1      -4.452   0.603   0.523  0.00  0.00    +0.114 C 
BRANCH   8  15
ATOM     15  O   UNL     1      -5.743   2.423  -1.282  0.00  0.00    -0.388 OA
ATOM     16  H   UNL     1      -5.802   3.253  -1.774  0.00  0.00    +0.210 HD
ENDBRANCH   8  15
ENDBRANCH   1   3
BRANCH   1  17
ATOM     17  O   UNL     1      -0.063   1.280   2.448  0.00  0.00    -0.480 OA
BRANCH  17  28
ATOM     18  C   UNL     1       4.137   6.127   3.518  0.00  0.00    +0.045 C 
ATOM     19  C   UNL     1       3.868   4.827   4.231  0.00  0.00    -0.033 A 
ATOM     20  C   UNL     1       4.577   4.478   5.336  0.00  0.00    +0.096 A 
ATOM     21  C   UNL     1       4.307   3.256   5.986  0.00  0.00    +0.337 A 
ATOM     22  O   UNL     1       4.950   2.955   6.975  0.00  0.00    -0.245 OA
ATOM     23  O   UNL     1       3.358   2.416   5.542  0.00  0.00    -0.422 OA
ATOM     24  C   UNL     1       2.618   2.703   4.450  0.00  0.00    +0.146 A 
ATOM     25  C   UNL     1       2.835   3.907   3.753  0.00  0.00    +0.021 A 
ATOM     26  C   UNL     1       2.069   4.209   2.621  0.00  0.00    +0.015 A 
ATOM     27  C   UNL     1       1.111   3.333   2.197  0.00  0.00    +0.047 A 
ATOM     28  C   UNL     1       0.892   2.140   2.882  0.00  0.00    +0.128 A 
ATOM     29  C   UNL     1       1.638   1.828   4.008  0.00  0.00    +0.034 A 
ATOM     30  C   UNL     1       1.388   0.538   4.746  0.00  0.00    +0.051 C 
ENDBRANCH  17  28
ENDBRANCH   1  17
TORSDOF 4
