REMARK  Name = ZINC03394658
REMARK  8 active torsions:
REMARK  status: ('A' for Active; 'I' for Inactive)
REMARK    1  A    between atoms: C_1  and  C_2
REMARK    2  A    between atoms: C_5  and  N_9
REMARK    3  A    between atoms: C_6  and  C_8
REMARK    4  A    between atoms: C_13  and  C_15
REMARK    5  A    between atoms: C_15  and  O_16
REMARK    6  A    between atoms: O_16  and  C_17
REMARK    7  A    between atoms: C_17  and  C_19
REMARK    8  A    between atoms: C_24  and  N_25
REMARK                            x       y       z     vdW  Elec       q    Type
REMARK                         _______ _______ _______ _____ _____    ______ ____
ROOT
ATOM      1  N   UNL     1      -0.867   5.426   3.866  0.00  0.00    -0.269 N 
ATOM      2  C   UNL     1      -0.193   4.480   3.183  0.00  0.00    +0.310 C 
ATOM      3  O   UNL     1      -0.708   3.399   2.972  0.00  0.00    -0.252 OA
ATOM      4  N   UNL     1       1.050   4.734   2.728  0.00  0.00    -0.237 N 
ATOM      5  C   UNL     1       1.722   3.789   2.040  0.00  0.00    +0.258 C 
ATOM      6  O   UNL     1       1.209   2.712   1.831  0.00  0.00    -0.272 OA
ATOM      7  H   UNL     1      -0.427   6.256   4.108  0.00  0.00    +0.156 HD
ATOM      8  H   UNL     1       1.461   5.596   2.896  0.00  0.00    +0.159 HD
ENDROOT
BRANCH   1  13
ATOM      9  C   UNL     1      -6.279   4.556   5.326  0.00  0.00    +0.044 C 
ATOM     10  C   UNL     1      -4.842   4.787   4.938  0.00  0.00    -0.050 A 
ATOM     11  C   UNL     1      -4.274   4.043   3.919  0.00  0.00    +0.005 A 
ATOM     12  C   UNL     1      -2.956   4.253   3.562  0.00  0.00    +0.024 A 
ATOM     13  C   UNL     1      -2.202   5.212   4.225  0.00  0.00    +0.038 A 
ATOM     14  C   UNL     1      -2.774   5.954   5.250  0.00  0.00    -0.029 A 
ATOM     15  C   UNL     1      -4.093   5.742   5.601  0.00  0.00    +0.008 A 
ATOM     16  C   UNL     1      -1.958   6.991   5.977  0.00  0.00    +0.045 C 
ENDBRANCH   1  13
BRANCH   5  17
ATOM     17  C   UNL     1       3.112   4.073   1.532  0.00  0.00    +0.328 C 
BRANCH  17  18
ATOM     18  O   UNL     1       3.618   2.908   0.829  0.00  0.00    -0.452 OA
BRANCH  18  19
ATOM     19  C   UNL     1       4.858   2.998   0.309  0.00  0.00    +0.341 C 
ATOM     20  O   UNL     1       5.499   4.022   0.439  0.00  0.00    -0.245 OA
BRANCH  19  21
ATOM     21  C   UNL     1       5.436   1.855  -0.418  0.00  0.00    +0.080 A 
ATOM     22  C   UNL     1       4.655   0.727  -0.691  0.00  0.00    +0.018 A 
ATOM     23  C   UNL     1       5.201  -0.338  -1.370  0.00  0.00    +0.021 A 
ATOM     24  C   UNL     1       6.524  -0.300  -1.787  0.00  0.00    +0.043 A 
ATOM     25  C   UNL     1       7.308   0.806  -1.525  0.00  0.00    +0.043 A 
ATOM     26  C   UNL     1       6.773   1.893  -0.846  0.00  0.00    +0.040 A 
ATOM     27 CL   UNL     1       7.199  -1.652  -2.643  0.00  0.00    -0.083 Cl
BRANCH  26  28
ATOM     28  N   UNL     1       7.557   3.009  -0.587  0.00  0.00    -0.357 N 
ATOM     29  H   UNL     1       7.305   3.626   0.117  0.00  0.00    +0.142 HD
ATOM     30  H   UNL     1       8.358   3.172  -1.110  0.00  0.00    +0.142 HD
ENDBRANCH  26  28
ENDBRANCH  19  21
ENDBRANCH  18  19
ENDBRANCH  17  18
ENDBRANCH   5  17
TORSDOF 6
