REMARK  Name = ZINC40174897
REMARK  11 active torsions:
REMARK  status: ('A' for Active; 'I' for Inactive)
REMARK    1  A    between atoms: C_1  and  C_2
REMARK    2  A    between atoms: C_2  and  C_3
REMARK    3  A    between atoms: C_3  and  C_5
REMARK    4  A    between atoms: C_3  and  N_17
REMARK    5  A    between atoms: N_7  and  C_8
REMARK    6  A    between atoms: C_13  and  O_14
REMARK    7  A    between atoms: O_14  and  C_15
REMARK    8  A    between atoms: C_15  and  C_16
REMARK    9  A    between atoms: C_21  and  C_34
REMARK   10  A    between atoms: N_24  and  C_28
REMARK   11  A    between atoms: C_26  and  C_27
REMARK                            x       y       z     vdW  Elec       q    Type
REMARK                         _______ _______ _______ _____ _____    ______ ____
ROOT
ATOM      1  N   UNL     1      -1.924   0.356   1.307  0.00  0.00    -0.281 N 
ATOM      2  C   UNL     1      -1.247   0.279   2.469  0.00  0.00    +0.254 A 
ATOM      3  O   UNL     1      -0.086  -0.095   2.465  0.00  0.00    -0.268 OA
ATOM      4  C   UNL     1      -1.861   0.626   3.686  0.00  0.00    +0.074 A 
ATOM      5  C   UNL     1      -3.154   1.045   3.699  0.00  0.00    -0.033 A 
ATOM      6  C   UNL     1      -3.865   1.125   2.480  0.00  0.00    +0.043 A 
ATOM      7  C   UNL     1      -3.225   0.779   1.287  0.00  0.00    +0.148 A 
ATOM      8  N   UNL     1      -4.131   0.956   0.289  0.00  0.00    -0.215 N 
ATOM      9  N   UNL     1      -5.326   1.415   0.856  0.00  0.00    -0.169 NA
ATOM     10  C   UNL     1      -5.185   1.510   2.148  0.00  0.00    +0.070 A 
ATOM     11  C   UNL     1      -6.241   1.970   3.119  0.00  0.00    +0.068 C 
ATOM     12  C   UNL     1      -3.822   1.418   4.998  0.00  0.00    +0.045 C 
ENDROOT
BRANCH   8  13
ATOM     13  C   UNL     1      -3.906   0.720  -1.074  0.00  0.00    +0.068 A 
ATOM     14  C   UNL     1      -3.491  -0.534  -1.503  0.00  0.00    +0.028 A 
ATOM     15  C   UNL     1      -3.271  -0.764  -2.847  0.00  0.00    +0.002 A 
ATOM     16  C   UNL     1      -3.464   0.253  -3.765  0.00  0.00    +0.000 A 
ATOM     17  C   UNL     1      -3.878   1.502  -3.340  0.00  0.00    +0.002 A 
ATOM     18  C   UNL     1      -4.105   1.736  -1.998  0.00  0.00    +0.028 A 
ENDBRANCH   8  13
BRANCH   1  19
ATOM     19  C   UNL     1      -1.260  -0.011   0.054  0.00  0.00    +0.178 C 
BRANCH  19  20
ATOM     20  C   UNL     1      -0.955  -1.487   0.061  0.00  0.00    +0.240 C 
ATOM     21  O   UNL     1      -1.262  -2.165   1.018  0.00  0.00    -0.273 OA
ATOM     22  N   UNL     1      -0.341  -2.053  -0.997  0.00  0.00    -0.281 N 
ATOM     23  H   UNL     1      -0.155  -1.525  -1.789  0.00  0.00    +0.155 HD
BRANCH  22  24
ATOM     24  C   UNL     1       0.029  -3.404  -0.952  0.00  0.00    +0.076 A 
ATOM     25  C   UNL     1      -0.741  -4.312  -0.240  0.00  0.00    +0.027 A 
ATOM     26  C   UNL     1      -0.375  -5.644  -0.198  0.00  0.00    +0.002 A 
ATOM     27  C   UNL     1       0.758  -6.074  -0.864  0.00  0.00    +0.004 A 
ATOM     28  C   UNL     1       1.530  -5.175  -1.575  0.00  0.00    +0.047 A 
ATOM     29  C   UNL     1       1.167  -3.839  -1.627  0.00  0.00    +0.142 A 
BRANCH  29  30
ATOM     30  O   UNL     1       1.921  -2.954  -2.332  0.00  0.00    -0.490 OA
BRANCH  30  31
ATOM     31  C   UNL     1       3.074  -3.472  -2.999  0.00  0.00    +0.226 C 
ATOM     32  C   UNL     1       3.792  -2.337  -3.732  0.00  0.00    +0.048 C 
ENDBRANCH  30  31
ENDBRANCH  29  30
ENDBRANCH  22  24
ENDBRANCH  19  20
BRANCH  19  34
ATOM     33  C   UNL     1      -0.275   2.271  -0.199  0.00  0.00    +0.006 C 
ATOM     34  C   UNL     1       0.043   0.779  -0.083  0.00  0.00    +0.031 C 
ENDBRANCH  19  34
ENDBRANCH   1  19
TORSDOF 7
