REMARK  Name = ZINC44328936
REMARK  3 active torsions:
REMARK  status: ('A' for Active; 'I' for Inactive)
REMARK    1  A    between atoms: C_4  and  S_22
REMARK    2  A    between atoms: C_5  and  N_7
REMARK    3  A    between atoms: S_22  and  C_23
REMARK                            x       y       z     vdW  Elec       q    Type
REMARK                         _______ _______ _______ _____ _____    ______ ____
ROOT
ATOM      1  N   UNL     1       1.297  -2.076   0.055  0.00  0.00    -0.268 N 
ATOM      2  C   UNL     1       0.144  -2.773   0.092  0.00  0.00    +0.307 C 
ATOM      3  O   UNL     1      -0.921  -2.189   0.040  0.00  0.00    -0.252 OA
ATOM      4  N   UNL     1       0.172  -4.117   0.185  0.00  0.00    -0.282 N 
ATOM      5  C   UNL     1       1.447  -4.829   0.352  0.00  0.00    +0.128 C 
ATOM      6  C   UNL     1       1.357  -5.709   1.605  0.00  0.00    +0.125 C 
ATOM      7  N   UNL     1       0.113  -6.489   1.543  0.00  0.00    -0.314 N 
ATOM      8  C   UNL     1      -1.162  -5.777   1.376  0.00  0.00    +0.125 C 
ATOM      9  C   UNL     1      -1.072  -4.897   0.128  0.00  0.00    +0.128 C 
ATOM     10  C   UNL     1       0.142  -7.875   1.639  0.00  0.00    +0.099 A 
ATOM     11  C   UNL     1       1.363  -8.542   1.634  0.00  0.00    +0.042 A 
ATOM     12  C   UNL     1       1.377  -9.921   1.730  0.00  0.00    +0.005 A 
ATOM     13  C   UNL     1       0.165 -10.591   1.830  0.00  0.00    +0.018 A 
ATOM     14  C   UNL     1      -1.010  -9.866   1.829  0.00  0.00    +0.084 A 
ATOM     15  N   UNL     1      -0.993  -8.550   1.741  0.00  0.00    -0.350 N 
ATOM     16  H   UNL     1       2.147  -2.543   0.064  0.00  0.00    +0.156 HD
ATOM     17  H   UNL     1      -1.833  -8.064   1.747  0.00  0.00    +0.166 HD
ENDROOT
BRANCH   1  22
ATOM     18  C   UNL     1       0.138   1.360  -0.572  0.00  0.00    +0.002 A 
ATOM     19  C   UNL     1       1.210   2.094  -0.097  0.00  0.00    +0.001 A 
ATOM     20  C   UNL     1       2.314   1.451   0.430  0.00  0.00    +0.016 A 
ATOM     21  C   UNL     1       2.349   0.065   0.483  0.00  0.00    +0.029 A 
ATOM     22  C   UNL     1       1.268  -0.675   0.005  0.00  0.00    +0.048 A 
ATOM     23  C   UNL     1       0.165  -0.021  -0.522  0.00  0.00    +0.024 A 
BRANCH  21  24
ATOM     24  S   UNL     1       3.756  -0.758   1.154  0.00  0.00    -0.120 S 
BRANCH  24  25
ATOM     25  C   UNL     1       4.869   0.593   1.630  0.00  0.00    +0.051 C 
ATOM     26  C   UNL     1       5.388   1.318   0.372  0.00  0.00    +0.014 C 
ATOM     27  C   UNL     1       6.856   1.672   0.717  0.00  0.00    +0.001 C 
ATOM     28  C   UNL     1       7.331   0.429   1.510  0.00  0.00    +0.001 C 
ATOM     29  C   UNL     1       6.104   0.028   2.354  0.00  0.00    +0.014 C 
ENDBRANCH  24  25
ENDBRANCH  21  24
ENDBRANCH   1  22
TORSDOF 3
