REMARK  Name = ZINC22319173
REMARK  12 active torsions:
REMARK  status: ('A' for Active; 'I' for Inactive)
REMARK    1  A    between atoms: C_1  and  C_2
REMARK    2  A    between atoms: C_2  and  C_3
REMARK    3  A    between atoms: C_8  and  N_9
REMARK    4  A    between atoms: N_9  and  C_10
REMARK    5  A    between atoms: N_9  and  S_28
REMARK    6  A    between atoms: C_10  and  C_11
REMARK    7  A    between atoms: N_13  and  C_14
REMARK    8  A    between atoms: C_17  and  C_26
REMARK    9  A    between atoms: C_17  and  C_27
REMARK   10  A    between atoms: C_23  and  C_25
REMARK   11  A    between atoms: S_28  and  C_31
REMARK   12  A    between atoms: C_34  and  C_37
REMARK                            x       y       z     vdW  Elec       q    Type
REMARK                         _______ _______ _______ _____ _____    ______ ____
ROOT
ATOM      1  N   UNL     1      -1.008   1.550  -1.197  0.00  0.00    -0.194 N 
ENDROOT
BRANCH   1   7
ATOM      2  C   UNL     1      -3.296   0.936  -1.655  0.00  0.00    -0.025 A 
ATOM      3  C   UNL     1      -4.216   0.210  -2.386  0.00  0.00    +0.005 A 
ATOM      4  C   UNL     1      -3.788  -0.645  -3.384  0.00  0.00    +0.000 A 
ATOM      5  C   UNL     1      -2.439  -0.773  -3.658  0.00  0.00    +0.002 A 
ATOM      6  C   UNL     1      -1.514  -0.046  -2.935  0.00  0.00    +0.025 A 
ATOM      7  C   UNL     1      -1.940   0.814  -1.931  0.00  0.00    +0.055 A 
BRANCH   2   9
ATOM      8  C   UNL     1      -3.977   3.264  -1.140  0.00  0.00    +0.009 C 
ATOM      9  C   UNL     1      -3.763   1.864  -0.563  0.00  0.00    +0.033 C 
ENDBRANCH   2   9
ENDBRANCH   1   7
BRANCH   1  10
ATOM     10  S   UNL     1      -0.399   0.941   0.217  0.00  0.00    +0.075 S 
ATOM     11  O   UNL     1      -0.686  -0.451   0.216  0.00  0.00    -0.150 OA
ATOM     12  O   UNL     1       0.923   1.446   0.343  0.00  0.00    -0.150 OA
BRANCH  10  13
ATOM     13  C   UNL     1      -1.335   1.646   1.534  0.00  0.00    +0.109 A 
ATOM     14  C   UNL     1      -1.019   2.905   2.008  0.00  0.00    +0.029 A 
ATOM     15  C   UNL     1      -1.756   3.460   3.038  0.00  0.00    +0.005 A 
ATOM     16  C   UNL     1      -2.802   2.752   3.599  0.00  0.00    -0.050 A 
ATOM     17  C   UNL     1      -3.114   1.491   3.128  0.00  0.00    +0.005 A 
ATOM     18  C   UNL     1      -2.380   0.937   2.096  0.00  0.00    +0.029 A 
ATOM     19  C   UNL     1      -3.602   3.356   4.724  0.00  0.00    +0.044 C 
ENDBRANCH  10  13
ENDBRANCH   1  10
BRANCH   1  20
ATOM     20  C   UNL     1      -0.567   2.862  -1.678  0.00  0.00    +0.227 C 
BRANCH  20  21
ATOM     21  C   UNL     1       0.562   2.684  -2.660  0.00  0.00    +0.233 C 
ATOM     22  O   UNL     1       0.960   1.571  -2.931  0.00  0.00    -0.274 OA
ATOM     23  N   UNL     1       1.130   3.761  -3.237  0.00  0.00    -0.307 N 
ATOM     24  H   UNL     1       0.769   4.771  -2.991  0.00  0.00    +0.149 HD
BRANCH  23  25
ATOM     25  C   UNL     1       2.227   3.588  -4.192  0.00  0.00    +0.110 C 
ATOM     26  C   UNL     1       2.273   4.790  -5.139  0.00  0.00    +0.074 C 
ATOM     27  C   UNL     1       3.589   4.734  -5.925  0.00  0.00    +0.107 C 
ATOM     28  O   UNL     1       4.670   4.897  -5.006  0.00  0.00    -0.486 OA
ATOM     29  C   UNL     1       4.672   4.129  -3.885  0.00  0.00    +0.126 A 
ATOM     30  C   UNL     1       3.531   3.481  -3.443  0.00  0.00    +0.015 A 
ATOM     31  C   UNL     1       3.577   2.716  -2.290  0.00  0.00    +0.009 A 
ATOM     32  C   UNL     1       4.756   2.594  -1.580  0.00  0.00    +0.004 A 
ATOM     33  C   UNL     1       5.898   3.237  -2.021  0.00  0.00    -0.047 A 
ATOM     34  C   UNL     1       5.858   4.002  -3.170  0.00  0.00    +0.049 A 
ATOM     35  C   UNL     1       7.185   3.103  -1.249  0.00  0.00    +0.044 C 
ATOM     36  C   UNL     1       3.619   5.859  -6.961  0.00  0.00    +0.055 C 
ATOM     37  C   UNL     1       3.713   3.381  -6.630  0.00  0.00    +0.055 C 
ENDBRANCH  23  25
ENDBRANCH  20  21
ENDBRANCH   1  20
TORSDOF 7
