REMARK  Name = ZINC40044343
REMARK  13 active torsions:
REMARK  status: ('A' for Active; 'I' for Inactive)
REMARK    1  A    between atoms: C_1  and  C_2
REMARK    2  A    between atoms: C_2  and  C_3
REMARK    3  A    between atoms: N_16  and  C_32
REMARK    4  A    between atoms: C_17  and  C_19
REMARK    5  A    between atoms: C_22  and  O_27
REMARK    6  A    between atoms: C_23  and  O_25
REMARK    7  A    between atoms: O_25  and  C_26
REMARK    8  A    between atoms: O_27  and  C_28
REMARK    9  A    between atoms: C_28  and  C_29
REMARK   10  A    between atoms: C_29  and  C_30
REMARK   11  A    between atoms: C_29  and  C_31
REMARK   12  A    between atoms: C_32  and  C_33
REMARK   13  A    between atoms: C_36  and  C_39
REMARK                            x       y       z     vdW  Elec       q    Type
REMARK                         _______ _______ _______ _____ _____    ______ ____
ROOT
ATOM      1  C   UNL     1      -1.412  -0.526   0.013  0.00  0.00    -0.047 A 
ATOM      2  C   UNL     1      -2.051  -0.766   1.221  0.00  0.00    +0.007 A 
ATOM      3  C   UNL     1      -3.341  -1.246   1.253  0.00  0.00    +0.047 A 
ATOM      4  C   UNL     1      -4.024  -1.495   0.062  0.00  0.00    +0.139 A 
ATOM      5  C   UNL     1      -3.369  -1.242  -1.154  0.00  0.00    +0.065 A 
ATOM      6  C   UNL     1      -2.062  -0.755  -1.168  0.00  0.00    +0.019 A 
ATOM      7  C   UNL     1      -4.093  -1.489  -2.426  0.00  0.00    +0.199 A 
ATOM      8  O   UNL     1      -3.553  -1.459  -3.518  0.00  0.00    -0.287 OA
ATOM      9  C   UNL     1      -5.521  -1.774  -2.244  0.00  0.00    +0.072 A 
ATOM     10  C   UNL     1      -6.041  -1.994  -1.000  0.00  0.00    +0.199 A 
ATOM     11  O   UNL     1      -5.288  -1.972   0.117  0.00  0.00    -0.450 OA
ATOM     12  C   UNL     1      -7.487  -2.241  -1.141  0.00  0.00    +0.283 C 
ATOM     13  O   UNL     1      -8.247  -2.468  -0.221  0.00  0.00    -0.267 OA
ATOM     14  N   UNL     1      -7.843  -2.178  -2.441  0.00  0.00    -0.279 N 
ATOM     15  C   UNL     1      -6.636  -1.882  -3.230  0.00  0.00    +0.145 C 
ENDROOT
BRANCH  15  16
ATOM     16  C   UNL     1      -6.364  -3.001  -4.202  0.00  0.00    -0.019 A 
ATOM     17  C   UNL     1      -6.595  -4.312  -3.827  0.00  0.00    +0.009 A 
ATOM     18  C   UNL     1      -6.346  -5.342  -4.715  0.00  0.00    +0.050 A 
ATOM     19  C   UNL     1      -5.866  -5.062  -5.984  0.00  0.00    +0.162 A 
ATOM     20  C   UNL     1      -5.634  -3.743  -6.362  0.00  0.00    +0.162 A 
ATOM     21  C   UNL     1      -5.889  -2.715  -5.468  0.00  0.00    +0.055 A 
BRANCH  20  22
ATOM     22  O   UNL     1      -5.162  -3.463  -7.606  0.00  0.00    -0.491 OA
ATOM     23  C   UNL     1      -4.948  -2.087  -7.924  0.00  0.00    +0.277 C 
ENDBRANCH  20  22
BRANCH  19  24
ATOM     24  O   UNL     1      -5.620  -6.074  -6.859  0.00  0.00    -0.488 OA
BRANCH  24  25
ATOM     25  C   UNL     1      -5.881  -7.403  -6.402  0.00  0.00    +0.232 C 
BRANCH  25  26
ATOM     26  C   UNL     1      -5.548  -8.399  -7.515  0.00  0.00    +0.020 C 
ATOM     27  C   UNL     1      -5.707  -9.826  -6.987  0.00  0.00    +0.010 C 
ATOM     28  C   UNL     1      -6.498  -8.182  -8.694  0.00  0.00    +0.010 C 
ENDBRANCH  25  26
ENDBRANCH  24  25
ENDBRANCH  19  24
ENDBRANCH  15  16
BRANCH   1  30
ATOM     29  C   UNL     1      -0.019   1.526   0.010  0.00  0.00    +0.009 C 
ATOM     30  C   UNL     1       0.002  -0.004   0.002  0.00  0.00    +0.032 C 
ENDBRANCH   1  30
BRANCH  14  31
ATOM     31  C   UNL     1      -9.194  -2.371  -2.973  0.00  0.00    +0.144 C 
BRANCH  31  32
ATOM     32  C   UNL     1      -9.910  -1.045  -3.020  0.00  0.00    -0.030 A 
ATOM     33  C   UNL     1     -10.644  -0.617  -1.929  0.00  0.00    +0.005 A 
ATOM     34  C   UNL     1     -11.300   0.599  -1.972  0.00  0.00    +0.003 A 
ATOM     35  C   UNL     1     -11.222   1.387  -3.105  0.00  0.00    -0.050 A 
ATOM     36  C   UNL     1     -10.486   0.960  -4.195  0.00  0.00    +0.003 A 
ATOM     37  C   UNL     1      -9.827  -0.255  -4.151  0.00  0.00    +0.005 A 
ATOM     38  C   UNL     1     -11.938   2.712  -3.152  0.00  0.00    +0.044 C 
ENDBRANCH  31  32
ENDBRANCH  14  31
TORSDOF 8
