REMARK  Name = ZINC03325471
REMARK  6 active torsions:
REMARK  status: ('A' for Active; 'I' for Inactive)
REMARK    1  A    between atoms: C_3  and  N_30
REMARK    2  A    between atoms: C_4  and  C_16
REMARK    3  A    between atoms: C_6  and  S_7
REMARK    4  A    between atoms: S_7  and  N_10
REMARK    5  A    between atoms: N_18  and  C_19
REMARK    6  A    between atoms: C_20  and  C_28
REMARK                            x       y       z     vdW  Elec       q    Type
REMARK                         _______ _______ _______ _____ _____    ______ ____
ROOT
ATOM      1  C   UNL     1       3.635   3.387  -0.013  0.00  0.00    +0.030 A 
ATOM      2  C   UNL     1       3.666   2.008  -0.021  0.00  0.00    +0.026 A 
ATOM      3  C   UNL     1       2.480   1.285  -0.009  0.00  0.00    +0.042 A 
ATOM      4  C   UNL     1       1.252   1.966   0.001  0.00  0.00    +0.060 A 
ATOM      5  C   UNL     1       1.238   3.363   0.008  0.00  0.00    +0.043 A 
ATOM      6  C   UNL     1       2.425   4.062   0.001  0.00  0.00    +0.106 A 
ENDROOT
BRANCH   3   7
ATOM      7  N   UNL     1       2.508  -0.103  -0.011  0.00  0.00    -0.329 N 
ATOM      8  C   UNL     1       3.124  -0.619   1.219  0.00  0.00    +0.105 C 
ATOM      9  C   UNL     1       3.007  -2.144   1.248  0.00  0.00    +0.019 C 
ATOM     10  C   UNL     1       3.709  -2.729   0.020  0.00  0.00    +0.003 C 
ATOM     11  C   UNL     1       3.081  -2.140  -1.246  0.00  0.00    +0.019 C 
ATOM     12  C   UNL     1       3.196  -0.614  -1.204  0.00  0.00    +0.105 C 
ENDBRANCH   3   7
BRANCH   4  13
ATOM     13  C   UNL     1      -0.014   1.212   0.009  0.00  0.00    +0.250 C 
ATOM     14  O   UNL     1       0.002  -0.004   0.002  0.00  0.00    -0.270 OA
ATOM     15  N   UNL     1      -1.191   1.870   0.018  0.00  0.00    -0.275 N 
ATOM     16  H   UNL     1      -1.204   2.840   0.023  0.00  0.00    +0.156 HD
BRANCH  15  17
ATOM     17  C   UNL     1      -2.382   1.160   0.020  0.00  0.00    +0.090 A 
ATOM     18  C   UNL     1      -3.679   1.653   0.029  0.00  0.00    +0.084 A 
ATOM     19  C   UNL     1      -4.764   0.688   0.028  0.00  0.00    -0.018 A 
ATOM     20  C   UNL     1      -4.382  -0.608   0.018  0.00  0.00    -0.004 A 
ATOM     21  S   UNL     1      -2.612  -0.557   0.004  0.00  0.00    -0.077 S 
ATOM     22  C   UNL     1      -5.272  -1.812   0.015  0.00  0.00    +0.043 C 
ATOM     23  C   UNL     1      -6.690  -1.367   0.402  0.00  0.00    +0.005 C 
ATOM     24  C   UNL     1      -7.062  -0.133  -0.426  0.00  0.00    +0.005 C 
ATOM     25  C   UNL     1      -6.239   1.071   0.035  0.00  0.00    +0.037 C 
BRANCH  18  26
ATOM     26  C   UNL     1      -3.938   3.061   0.038  0.00  0.00    +0.102 C 
ATOM     27  N   UNL     1      -4.143   4.179   0.045  0.00  0.00    -0.191 NA
ENDBRANCH  18  26
ENDBRANCH  15  17
ENDBRANCH   4  13
BRANCH   6  28
ATOM     28  S   UNL     1       2.405   5.824   0.011  0.00  0.00    +0.061 S 
ATOM     29  O   UNL     1       3.640   6.248  -0.549  0.00  0.00    -0.153 OA
ATOM     30  O   UNL     1       1.150   6.219  -0.526  0.00  0.00    -0.153 OA
BRANCH  28  31
ATOM     31  N   UNL     1       2.413   6.305   1.595  0.00  0.00    -0.177 NA
ATOM     32  C   UNL     1       1.153   6.514   2.321  0.00  0.00    +0.109 C 
ATOM     33  C   UNL     1       1.189   5.680   3.611  0.00  0.00    +0.017 C 
ATOM     34  C   UNL     1       2.442   6.042   4.412  0.00  0.00    +0.003 C 
ATOM     35  C   UNL     1       3.688   5.709   3.589  0.00  0.00    +0.017 C 
ATOM     36  C   UNL     1       3.682   6.538   2.300  0.00  0.00    +0.109 C 
ENDBRANCH  28  31
ENDBRANCH   6  28
TORSDOF 6
