REMARK  Name = ZINC09494409
REMARK  7 active torsions:
REMARK  status: ('A' for Active; 'I' for Inactive)
REMARK    1  A    between atoms: C_4  and  S_7
REMARK    2  A    between atoms: S_7  and  N_10
REMARK    3  A    between atoms: N_10  and  C_11
REMARK    4  A    between atoms: C_17  and  S_19
REMARK    5  A    between atoms: S_19  and  C_20
REMARK    6  A    between atoms: N_24  and  N_25
REMARK    7  A    between atoms: C_26  and  C_27
REMARK                            x       y       z     vdW  Elec       q    Type
REMARK                         _______ _______ _______ _____ _____    ______ ____
ROOT
ATOM      1  C   UNL     1      -0.753   1.593  -1.232  0.00  0.00    +0.090 C 
ATOM      2  C   UNL     1      -2.188   1.063  -1.221  0.00  0.00    +0.021 C 
ATOM      3  C   UNL     1      -2.904   1.556   0.038  0.00  0.00    +0.002 C 
ATOM      4  C   UNL     1      -2.164   1.050   1.278  0.00  0.00    +0.001 C 
ATOM      5  C   UNL     1      -0.729   1.579   1.267  0.00  0.00    +0.016 C 
ATOM      6  C   UNL     1      -0.013   1.086   0.008  0.00  0.00    +0.073 C 
ENDROOT
BRANCH   1   7
ATOM      7  N   UNL     1      -0.773   3.058  -1.224  0.00  0.00    -0.186 NA
ATOM      8  H   UNL     1      -0.844   3.537  -0.383  0.00  0.00    +0.148 HD
BRANCH   7   9
ATOM      9  S   UNL     1      -0.672   3.895  -2.649  0.00  0.00    +0.059 S 
ATOM     10  O   UNL     1      -0.744   5.274  -2.315  0.00  0.00    -0.153 OA
ATOM     11  O   UNL     1       0.420   3.341  -3.369  0.00  0.00    -0.153 OA
BRANCH   9  15
ATOM     12  C   UNL     1      -4.406   2.944  -5.025  0.00  0.00    +0.000 A 
ATOM     13  C   UNL     1      -4.395   4.018  -4.155  0.00  0.00    +0.002 A 
ATOM     14  C   UNL     1      -3.255   4.309  -3.430  0.00  0.00    +0.028 A 
ATOM     15  C   UNL     1      -2.126   3.525  -3.574  0.00  0.00    +0.105 A 
ATOM     16  C   UNL     1      -2.135   2.453  -4.447  0.00  0.00    +0.028 A 
ATOM     17  C   UNL     1      -3.276   2.160  -5.170  0.00  0.00    +0.002 A 
ENDBRANCH   9  15
ENDBRANCH   7   9
ENDBRANCH   1   7
BRANCH   6  18
ATOM     18  S   UNL     1       1.685   1.712  -0.005  0.00  0.00    -0.079 S 
BRANCH  18  19
ATOM     19  C   UNL     1       2.330   0.877   1.406  0.00  0.00    +0.212 A 
ATOM     20  N   UNL     1       1.679   0.047   2.188  0.00  0.00    -0.121 NA
ATOM     21  N   UNL     1       2.456  -0.378   3.120  0.00  0.00    -0.135 NA
ATOM     22  C   UNL     1       3.641   0.150   2.991  0.00  0.00    +0.249 A 
ATOM     23  N   UNL     1       3.607   0.965   1.891  0.00  0.00    -0.194 N 
BRANCH  23  24
ATOM     24  N   UNL     1       4.659   1.732   1.373  0.00  0.00    -0.168 NA
ATOM     25  C   UNL     1       5.824   1.712   1.950  0.00  0.00    +0.179 C 
BRANCH  25  26
ATOM     26  C   UNL     1       6.925   2.514   1.407  0.00  0.00    +0.147 A 
ATOM     27  C   UNL     1       8.189   2.588   1.916  0.00  0.00    +0.051 A 
ATOM     28  C   UNL     1       8.908   3.465   1.084  0.00  0.00    +0.042 A 
ATOM     29  C   UNL     1       8.059   3.888   0.125  0.00  0.00    +0.196 A 
ATOM     30  O   UNL     1       6.863   3.312   0.323  0.00  0.00    -0.462 OA
ENDBRANCH  25  26
ENDBRANCH  23  24
ENDBRANCH  18  19
ENDBRANCH   6  18
TORSDOF 7
