REMARK  Name = ZINC13033688
REMARK  7 active torsions:
REMARK  status: ('A' for Active; 'I' for Inactive)
REMARK    1  A    between atoms: C_4  and  C_7
REMARK    2  A    between atoms: C_7  and  N_63
REMARK    3  A    between atoms: C_8  and  C_9
REMARK    4  A    between atoms: C_8  and  N_63
REMARK    5  A    between atoms: C_25  and  C_26
REMARK    6  A    between atoms: C_25  and  N_63
REMARK    7  A    between atoms: N_30  and  C_31
REMARK                            x       y       z     vdW  Elec       q    Type
REMARK                         _______ _______ _______ _____ _____    ______ ____
ROOT
ATOM      1  N   UNL     1      -0.066  -0.738   1.437  0.00  0.00    +0.390 N 
ATOM      2  H   UNL     1      -0.869  -0.105   1.526  0.00  0.00    -0.080 HD
ENDROOT
BRANCH   1   3
ATOM      3  C   UNL     1       0.510  -0.594   0.083  0.00  0.00    -0.042 C 
BRANCH   3   7
ATOM      4  C   UNL     1       4.055  -2.947  -0.295  0.00  0.00    +0.000 A 
ATOM      5  C   UNL     1       2.829  -3.485  -0.638  0.00  0.00    +0.000 A 
ATOM      6  C   UNL     1       1.681  -2.723  -0.515  0.00  0.00    +0.002 A 
ATOM      7  C   UNL     1       1.761  -1.424  -0.050  0.00  0.00    -0.064 A 
ATOM      8  C   UNL     1       2.988  -0.884   0.288  0.00  0.00    +0.002 A 
ATOM      9  C   UNL     1       4.134  -1.648   0.171  0.00  0.00    +0.000 A 
ENDBRANCH   3   7
ENDBRANCH   1   3
BRANCH   1  10
ATOM     10  C   UNL     1      -0.524  -2.128   1.645  0.00  0.00    -0.036 C 
BRANCH  10  11
ATOM     11  C   UNL     1      -1.870  -2.295   0.988  0.00  0.00    +0.001 A 
ATOM     12  C   UNL     1      -1.961  -2.909  -0.220  0.00  0.00    +0.017 A 
ATOM     13  C   UNL     1      -3.282  -3.061  -0.829  0.00  0.00    +0.002 A 
ATOM     14  C   UNL     1      -3.437  -3.688  -2.071  0.00  0.00    +0.059 A 
ATOM     15  C   UNL     1      -4.694  -3.813  -2.623  0.00  0.00    +0.163 A 
ATOM     16  C   UNL     1      -5.812  -3.315  -1.947  0.00  0.00    +0.164 A 
ATOM     17  C   UNL     1      -5.668  -2.692  -0.719  0.00  0.00    +0.075 A 
ATOM     18  C   UNL     1      -4.409  -2.558  -0.150  0.00  0.00    +0.053 A 
ATOM     19  N   UNL     1      -4.247  -1.939   1.073  0.00  0.00    -0.322 N 
ATOM     20  H   UNL     1      -5.023  -1.593   1.540  0.00  0.00    +0.169 HD
ATOM     21  C   UNL     1      -3.029  -1.809   1.627  0.00  0.00    +0.251 A 
ATOM     22  O   UNL     1      -2.923  -1.257   2.708  0.00  0.00    -0.268 OA
ATOM     23  O   UNL     1      -7.057  -3.438  -2.483  0.00  0.00    -0.485 OA
ATOM     24  C   UNL     1      -7.130  -3.730  -3.882  0.00  0.00    +0.270 C 
ATOM     25  C   UNL     1      -6.143  -4.865  -4.188  0.00  0.00    +0.270 C 
ATOM     26  O   UNL     1      -4.829  -4.424  -3.833  0.00  0.00    -0.485 OA
ENDBRANCH  10  11
ENDBRANCH   1  10
BRANCH   1  27
ATOM     27  C   UNL     1       0.943  -0.381   2.456  0.00  0.00    +0.001 C 
BRANCH  27  28
ATOM     28  C   UNL     1       1.011   1.121   2.561  0.00  0.00    +0.135 A 
ATOM     29  N   UNL     1       1.744   1.924   1.829  0.00  0.00    -0.115 NA
ATOM     30  N   UNL     1       1.524   3.132   2.221  0.00  0.00    -0.023 NA
ATOM     31  N   UNL     1       0.676   3.119   3.189  0.00  0.00    -0.044 NA
ATOM     32  N   UNL     1       0.336   1.898   3.428  0.00  0.00    -0.228 N 
BRANCH  32  33
ATOM     33  C   UNL     1      -0.609   1.442   4.451  0.00  0.00    +0.111 C 
ATOM     34  C   UNL     1      -1.985   2.106   4.233  0.00  0.00    +0.027 C 
ATOM     35  C   UNL     1      -2.508   2.373   5.667  0.00  0.00    +0.002 C 
ATOM     36  C   UNL     1      -1.224   2.790   6.428  0.00  0.00    +0.002 C 
ATOM     37  C   UNL     1      -0.126   1.876   5.846  0.00  0.00    +0.027 C 
ENDBRANCH  32  33
ENDBRANCH  27  28
ENDBRANCH   1  27
TORSDOF 7
