REMARK  Name = ZINC09246273
REMARK  16 active torsions:
REMARK  status: ('A' for Active; 'I' for Inactive)
REMARK    1  A    between atoms: C_1  and  C_2
REMARK    2  A    between atoms: C_2  and  C_3
REMARK    3  A    between atoms: C_3  and  O_4
REMARK    4  A    between atoms: O_4  and  C_5
REMARK    5  A    between atoms: C_8  and  C_13
REMARK    6  A    between atoms: C_10  and  O_11
REMARK    7  A    between atoms: O_11  and  C_12
REMARK    8  A    between atoms: C_18  and  C_23
REMARK    9  A    between atoms: C_26  and  O_29
REMARK   10  A    between atoms: O_29  and  C_30
REMARK   11  A    between atoms: C_32  and  C_40
REMARK   12  A    between atoms: C_33  and  C_34
REMARK   13  A    between atoms: C_34  and  O_36
REMARK   14  A    between atoms: O_36  and  C_37
REMARK   15  A    between atoms: C_37  and  C_38
REMARK   16  A    between atoms: C_38  and  C_39
REMARK                            x       y       z     vdW  Elec       q    Type
REMARK                         _______ _______ _______ _____ _____    ______ ____
ROOT
ATOM      1  C   UNL     1      -2.845   4.495   4.715  0.00  0.00    +0.092 C 
ATOM      2  C   UNL     1      -3.816   5.232   5.602  0.00  0.00    +0.024 C 
ATOM      3  C   UNL     1      -3.749   6.574   5.732  0.00  0.00    +0.016 C 
ATOM      4  C   UNL     1      -4.705   7.316   6.633  0.00  0.00    +0.059 C 
ATOM      5  C   UNL     1      -6.045   6.578   6.678  0.00  0.00    +0.032 C 
ATOM      6  C   UNL     1      -5.798   5.152   7.182  0.00  0.00    +0.088 C 
ATOM      7  C   UNL     1      -4.790   4.485   6.287  0.00  0.00    +0.162 C 
ATOM      8  O   UNL     1      -4.818   3.277   6.153  0.00  0.00    -0.292 OA
ATOM      9  N   UNL     1      -2.804   7.292   5.049  0.00  0.00    -0.321 N 
ATOM     10  C   UNL     1      -2.178   6.760   3.956  0.00  0.00    +0.016 C 
ATOM     11  C   UNL     1      -2.178   5.432   3.750  0.00  0.00    +0.065 C 
ATOM     12  C   UNL     1      -1.487   7.669   2.973  0.00  0.00    +0.061 C 
ATOM     13  H   UNL     1      -2.542   8.308   5.378  0.00  0.00    +0.152 HD
ENDROOT
BRANCH   1  17
ATOM     14  C   UNL     1       0.140   2.635   7.149  0.00  0.00    +0.162 A 
ATOM     15  C   UNL     1      -0.002   4.013   7.154  0.00  0.00    +0.050 A 
ATOM     16  C   UNL     1      -0.964   4.612   6.362  0.00  0.00    +0.008 A 
ATOM     17  C   UNL     1      -1.794   3.837   5.572  0.00  0.00    -0.032 A 
ATOM     18  C   UNL     1      -1.657   2.462   5.562  0.00  0.00    +0.054 A 
ATOM     19  C   UNL     1      -0.691   1.856   6.350  0.00  0.00    +0.162 A 
BRANCH  19  20
ATOM     20  O   UNL     1      -0.556   0.503   6.341  0.00  0.00    -0.491 OA
ATOM     21  C   UNL     1      -1.443  -0.233   5.496  0.00  0.00    +0.277 C 
ENDBRANCH  19  20
BRANCH  14  22
ATOM     22  O   UNL     1       1.089   2.045   7.923  0.00  0.00    -0.488 OA
BRANCH  22  23
ATOM     23  C   UNL     1       1.906   2.907   8.718  0.00  0.00    +0.229 C 
BRANCH  23  25
ATOM     24  C   UNL     1       3.783   2.992  10.365  0.00  0.00    +0.007 C 
ATOM     25  C   UNL     1       2.908   2.069   9.514  0.00  0.00    +0.038 C 
ENDBRANCH  23  25
ENDBRANCH  22  23
ENDBRANCH  14  22
ENDBRANCH   1  17
BRANCH   5  26
ATOM     26  C   UNL     1      -6.983   7.291   7.617  0.00  0.00    -0.043 A 
ATOM     27  C   UNL     1      -6.646   7.440   8.950  0.00  0.00    +0.007 A 
ATOM     28  C   UNL     1      -7.502   8.098   9.811  0.00  0.00    +0.046 A 
ATOM     29  C   UNL     1      -8.707   8.600   9.341  0.00  0.00    +0.120 A 
ATOM     30  C   UNL     1      -9.046   8.444   8.005  0.00  0.00    +0.046 A 
ATOM     31  C   UNL     1      -8.184   7.790   7.146  0.00  0.00    +0.007 A 
BRANCH  29  32
ATOM     32  O   UNL     1      -9.553   9.243  10.188  0.00  0.00    -0.495 OA
ATOM     33  C   UNL     1      -9.138   9.366  11.550  0.00  0.00    +0.277 C 
ENDBRANCH  29  32
ENDBRANCH   5  26
BRANCH  11  34
ATOM     34  C   UNL     1      -1.534   4.907   2.606  0.00  0.00    +0.338 C 
ATOM     35  O   UNL     1      -1.077   5.659   1.766  0.00  0.00    -0.245 OA
BRANCH  34  36
ATOM     36  O   UNL     1      -1.424   3.571   2.446  0.00  0.00    -0.461 OA
BRANCH  36  37
ATOM     37  C   UNL     1      -0.761   3.111   1.267  0.00  0.00    +0.232 C 
BRANCH  37  38
ATOM     38  C   UNL     1      -0.734   1.581   1.262  0.00  0.00    +0.038 C 
ATOM     39  C   UNL     1      -0.024   1.088  -0.001  0.00  0.00    +0.007 C 
ENDBRANCH  37  38
ENDBRANCH  36  37
ENDBRANCH  34  36
ENDBRANCH  11  34
TORSDOF 11
