REMARK  Name = ZINC34698812
REMARK  9 active torsions:
REMARK  status: ('A' for Active; 'I' for Inactive)
REMARK    1  A    between atoms: C_1  and  C_2
REMARK    2  A    between atoms: C_5  and  C_8
REMARK    3  A    between atoms: C_8  and  N_9
REMARK    4  A    between atoms: C_11  and  C_23
REMARK    5  A    between atoms: C_13  and  C_16
REMARK    6  A    between atoms: C_21  and  C_22
REMARK    7  A    between atoms: C_23  and  N_24
REMARK    8  A    between atoms: N_24  and  C_25
REMARK    9  A    between atoms: C_31  and  C_33
REMARK                            x       y       z     vdW  Elec       q    Type
REMARK                         _______ _______ _______ _____ _____    ______ ____
ROOT
ATOM      1  N   UNL     1       6.624 -14.299  -3.325  0.00  0.00    +0.383 N 
ATOM      2  C   UNL     1       7.087 -13.125  -4.108  0.00  0.00    -0.073 C 
ATOM      3  C   UNL     1       7.559 -12.110  -3.044  0.00  0.00    -0.005 C 
ATOM      4  C   UNL     1       7.906 -12.961  -1.805  0.00  0.00    +0.005 C 
ATOM      5  C   UNL     1       7.614 -14.418  -2.224  0.00  0.00    -0.070 C 
ATOM      6  H   UNL     1       5.700 -14.136  -2.953  0.00  0.00    -0.081 HD
ENDROOT
BRANCH   4   7
ATOM      7  C   UNL     1       9.361 -12.798  -1.448  0.00  0.00    -0.043 A 
ATOM      8  C   UNL     1      10.321 -13.546  -2.104  0.00  0.00    +0.004 A 
ATOM      9  C   UNL     1      11.656 -13.396  -1.777  0.00  0.00    +0.000 A 
ATOM     10  C   UNL     1      12.030 -12.498  -0.795  0.00  0.00    +0.000 A 
ATOM     11  C   UNL     1      11.071 -11.750  -0.140  0.00  0.00    +0.003 A 
ATOM     12  C   UNL     1       9.736 -11.896  -0.470  0.00  0.00    -0.047 A 
ATOM     13  C   UNL     1       8.690 -11.077   0.241  0.00  0.00    +0.044 C 
ENDBRANCH   4   7
BRANCH   1  14
ATOM     14  C   UNL     1       6.635 -15.509  -4.158  0.00  0.00    -0.043 C 
BRANCH  14  19
ATOM     15  C   UNL     1       4.713 -19.998  -1.069  0.00  0.00    +0.044 C 
ATOM     16  C   UNL     1       5.214 -18.827  -1.874  0.00  0.00    -0.050 A 
ATOM     17  C   UNL     1       4.325 -18.055  -2.599  0.00  0.00    +0.003 A 
ATOM     18  C   UNL     1       4.785 -16.982  -3.337  0.00  0.00    +0.002 A 
ATOM     19  C   UNL     1       6.134 -16.679  -3.352  0.00  0.00    -0.064 A 
ATOM     20  C   UNL     1       7.023 -17.451  -2.627  0.00  0.00    +0.002 A 
ATOM     21  C   UNL     1       6.562 -18.522  -1.884  0.00  0.00    +0.003 A 
ENDBRANCH  14  19
ENDBRANCH   1  14
BRANCH   3  22
ATOM     22  C   UNL     1       8.797 -11.359  -3.539  0.00  0.00    +0.110 C 
BRANCH  22  23
ATOM     23  N   UNL     1       8.431 -10.509  -4.674  0.00  0.00    -0.294 N 
ATOM     24  C   UNL     1       8.501 -10.994  -5.930  0.00  0.00    +0.247 C 
ATOM     25  O   UNL     1       9.450 -11.676  -6.266  0.00  0.00    -0.270 OA
BRANCH  24  26
ATOM     26  C   UNL     1       7.426 -10.698  -6.898  0.00  0.00    +0.037 A 
ATOM     27  C   UNL     1       6.690  -9.516  -6.788  0.00  0.00    +0.016 A 
ATOM     28  C   UNL     1       5.687  -9.245  -7.694  0.00  0.00    +0.039 A 
ATOM     29  C   UNL     1       5.408 -10.143  -8.713  0.00  0.00    +0.123 A 
ATOM     30  C   UNL     1       6.135 -11.318  -8.826  0.00  0.00    +0.039 A 
ATOM     31  C   UNL     1       7.144 -11.596  -7.929  0.00  0.00    +0.016 A 
ATOM     32  F   UNL     1       4.423  -9.873  -9.597  0.00  0.00    -0.205 F 
ENDBRANCH  24  26
BRANCH  23  33
ATOM     33  C   UNL     1       7.988  -9.131  -4.446  0.00  0.00    +0.076 C 
ATOM     34  C   UNL     1       8.403  -8.258  -5.632  0.00  0.00    +0.022 C 
ATOM     35  C   UNL     1       7.940  -6.820  -5.393  0.00  0.00    +0.002 C 
ATOM     36  C   UNL     1       6.418  -6.791  -5.246  0.00  0.00    +0.000 C 
ATOM     37  C   UNL     1       6.003  -7.664  -4.060  0.00  0.00    +0.002 C 
ATOM     38  C   UNL     1       6.465  -9.103  -4.299  0.00  0.00    +0.022 C 
ENDBRANCH  23  33
ENDBRANCH  22  23
ENDBRANCH   3  22
TORSDOF 7
