REMARK  Name = ZINC09311345
REMARK  7 active torsions:
REMARK  status: ('A' for Active; 'I' for Inactive)
REMARK    1  A    between atoms: C_1  and  C_2
REMARK    2  A    between atoms: C_2  and  C_3
REMARK    3  A    between atoms: C_2  and  C_4
REMARK    4  A    between atoms: C_7  and  N_10
REMARK    5  A    between atoms: C_14  and  C_15
REMARK    6  A    between atoms: C_18  and  C_20
REMARK    7  A    between atoms: C_25  and  N_26
REMARK                            x       y       z     vdW  Elec       q    Type
REMARK                         _______ _______ _______ _____ _____    ______ ____
ROOT
ATOM      1  N   UNL     1       3.760   2.369   1.228  0.00  0.00    -0.190 N 
ATOM      2  C   UNL     1       3.689   3.659   0.839  0.00  0.00    +0.264 C 
ATOM      3  O   UNL     1       2.675   4.309   1.012  0.00  0.00    -0.269 OA
ATOM      4  C   UNL     1       4.873   4.261   0.205  0.00  0.00    +0.103 C 
ATOM      5  C   UNL     1       4.875   5.588  -0.217  0.00  0.00    +0.064 C 
ATOM      6  C   UNL     1       6.053   3.397   0.031  0.00  0.00    +0.257 C 
ATOM      7  O   UNL     1       7.068   3.823  -0.488  0.00  0.00    -0.270 OA
ATOM      8  N   UNL     1       5.980   2.122   0.464  0.00  0.00    -0.235 N 
ATOM      9  C   UNL     1       4.869   1.640   1.039  0.00  0.00    +0.320 C 
ATOM     10  O   UNL     1       4.867   0.482   1.408  0.00  0.00    -0.251 OA
ATOM     11  H   UNL     1       6.749   1.540   0.358  0.00  0.00    +0.159 HD
ENDROOT
BRANCH   1  15
ATOM     12  C   UNL     1       0.448   0.605   3.043  0.00  0.00    -0.045 A 
ATOM     13  C   UNL     1       0.869   0.167   1.801  0.00  0.00    +0.006 A 
ATOM     14  C   UNL     1       1.966   0.750   1.197  0.00  0.00    +0.024 A 
ATOM     15  C   UNL     1       2.646   1.776   1.839  0.00  0.00    +0.046 A 
ATOM     16  C   UNL     1       2.221   2.214   3.086  0.00  0.00    +0.024 A 
ATOM     17  C   UNL     1       1.123   1.627   3.684  0.00  0.00    +0.006 A 
BRANCH  12  19
ATOM     18  C   UNL     1      -0.332  -0.647   5.036  0.00  0.00    +0.012 C 
ATOM     19  C   UNL     1      -0.750  -0.033   3.699  0.00  0.00    +0.013 C 
ATOM     20  C   UNL     1      -1.825   1.029   3.940  0.00  0.00    +0.012 C 
ENDBRANCH  12  19
ENDBRANCH   1  15
BRANCH   5  21
ATOM     21  C   UNL     1       3.686   6.329  -0.205  0.00  0.00    +0.129 A 
ATOM     22  C   UNL     1       3.556   7.655   0.189  0.00  0.00    +0.050 A 
ATOM     23  C   UNL     1       2.212   7.988   0.043  0.00  0.00    +0.050 A 
ATOM     24  C   UNL     1       1.566   6.864  -0.433  0.00  0.00    +0.138 A 
ATOM     25  O   UNL     1       2.469   5.880  -0.581  0.00  0.00    -0.455 OA
BRANCH  24  26
ATOM     26  C   UNL     1       0.125   6.763  -0.735  0.00  0.00    +0.047 A 
ATOM     27  C   UNL     1      -0.820   7.179   0.207  0.00  0.00    +0.014 A 
ATOM     28  C   UNL     1      -2.165   7.081  -0.082  0.00  0.00    +0.001 A 
ATOM     29  C   UNL     1      -2.579   6.572  -1.300  0.00  0.00    +0.002 A 
ATOM     30  C   UNL     1      -1.649   6.158  -2.237  0.00  0.00    +0.033 A 
ATOM     31  C   UNL     1      -0.301   6.255  -1.965  0.00  0.00    +0.137 A 
BRANCH  31  32
ATOM     32  N   UNL     1       0.693   5.817  -2.971  0.00  0.00    +0.057 N 
ATOM     33  O   UNL     1       0.320   5.375  -4.042  0.00  0.00    -0.126 OA
ATOM     34  O   UNL     1       1.883   5.899  -2.727  0.00  0.00    -0.126 OA
ENDBRANCH  31  32
ENDBRANCH  24  26
ENDBRANCH   5  21
TORSDOF 5
