REMARK  Name = ZINC39696545
REMARK  10 active torsions:
REMARK  status: ('A' for Active; 'I' for Inactive)
REMARK    1  A    between atoms: C_1  and  C_2
REMARK    2  A    between atoms: C_2  and  C_3
REMARK    3  A    between atoms: C_2  and  C_4
REMARK    4  A    between atoms: C_2  and  S_5
REMARK    5  A    between atoms: S_5  and  C_6
REMARK    6  A    between atoms: C_6  and  C_7
REMARK    7  A    between atoms: C_7  and  N_8
REMARK    8  A    between atoms: C_9  and  C_11
REMARK    9  A    between atoms: C_22  and  C_24
REMARK   10  A    between atoms: C_27  and  C_29
REMARK                            x       y       z     vdW  Elec       q    Type
REMARK                         _______ _______ _______ _____ _____    ______ ____
ROOT
ATOM      1  C   UNL     1       6.994   0.612  -3.300  0.00  0.00    +0.100 C 
ATOM      2  C   UNL     1       7.667   0.150  -1.988  0.00  0.00    +0.121 C 
ATOM      3  N   UNL     1       8.471  -1.033  -2.375  0.00  0.00    -0.294 N 
ATOM      4  C   UNL     1       9.038  -0.676  -3.698  0.00  0.00    +0.115 C 
ATOM      5  C   UNL     1       7.899   0.071  -4.419  0.00  0.00    -0.004 C 
ATOM      6  C   UNL     1       8.463   1.223  -5.246  0.00  0.00    -0.010 C 
ATOM      7  C   UNL     1       9.312   0.658  -6.388  0.00  0.00    -0.082 C 
ATOM      8  N   UNL     1       8.484  -0.216  -7.229  0.00  0.00    +0.379 N 
ATOM      9  C   UNL     1       8.023  -1.371  -6.450  0.00  0.00    -0.082 C 
ATOM     10  C   UNL     1       7.119  -0.891  -5.310  0.00  0.00    -0.010 C 
ATOM     11  C   UNL     1       8.646  -2.176  -1.682  0.00  0.00    +0.282 C 
ATOM     12  O   UNL     1       9.343  -3.063  -2.139  0.00  0.00    -0.267 OA
ATOM     13  H   UNL     1       7.686   0.301  -7.566  0.00  0.00    -0.086 HD
ATOM     14  H   UNL     1       9.029  -0.538  -8.015  0.00  0.00    -0.086 HD
ENDROOT
BRANCH  11  15
ATOM     15  C   UNL     1       7.999  -2.349  -0.380  0.00  0.00    +0.190 A 
ATOM     16  C   UNL     1       8.098  -3.458   0.432  0.00  0.00    +0.055 A 
ATOM     17  C   UNL     1       7.326  -3.197   1.568  0.00  0.00    +0.050 A 
ATOM     18  C   UNL     1       6.789  -1.951   1.411  0.00  0.00    +0.136 A 
ATOM     19  O   UNL     1       7.206  -1.448   0.237  0.00  0.00    -0.450 OA
BRANCH  18  20
ATOM     20  C   UNL     1       5.903  -1.268   2.375  0.00  0.00    +0.017 A 
ATOM     21  C   UNL     1       5.551  -1.898   3.571  0.00  0.00    +0.014 A 
ATOM     22  C   UNL     1       4.723  -1.255   4.467  0.00  0.00    +0.039 A 
ATOM     23  C   UNL     1       4.240   0.013   4.183  0.00  0.00    +0.123 A 
ATOM     24  C   UNL     1       4.586   0.642   2.997  0.00  0.00    +0.039 A 
ATOM     25  C   UNL     1       5.418   0.011   2.096  0.00  0.00    +0.014 A 
ATOM     26  F   UNL     1       3.430   0.638   5.064  0.00  0.00    -0.205 F 
ENDBRANCH  18  20
ENDBRANCH  11  15
BRANCH   1  28
ATOM     27  N   UNL     1       4.657   0.680  -4.106  0.00  0.00    -0.314 N 
ATOM     28  C   UNL     1       5.610   0.026  -3.414  0.00  0.00    +0.218 C 
ATOM     29  O   UNL     1       5.355  -1.034  -2.883  0.00  0.00    -0.275 OA
ATOM     30  H   UNL     1       4.861   1.528  -4.530  0.00  0.00    +0.149 HD
BRANCH  27  31
ATOM     31  C   UNL     1       3.312   0.110  -4.217  0.00  0.00    +0.115 C 
BRANCH  31  32
ATOM     32  C   UNL     1       2.429   1.044  -5.048  0.00  0.00    +0.088 C 
BRANCH  32  33
ATOM     33  S   UNL     1       0.764   0.339  -5.186  0.00  0.00    -0.153 S 
BRANCH  33  35
ATOM     34  C   UNL     1       0.534   1.697  -7.549  0.00  0.00    +0.022 C 
ATOM     35  C   UNL     1      -0.144   1.550  -6.186  0.00  0.00    +0.008 C 
ATOM     36  C   UNL     1      -0.148   2.902  -5.470  0.00  0.00    +0.022 C 
ATOM     37  C   UNL     1      -1.585   1.072  -6.381  0.00  0.00    +0.022 C 
ENDBRANCH  33  35
ENDBRANCH  32  33
ENDBRANCH  31  32
ENDBRANCH  27  31
ENDBRANCH   1  28
TORSDOF 7
