REMARK  Name = ZINC35492897
REMARK  9 active torsions:
REMARK  status: ('A' for Active; 'I' for Inactive)
REMARK    1  A    between atoms: C_1  and  C_2
REMARK    2  A    between atoms: C_2  and  C_3
REMARK    3  A    between atoms: C_2  and  C_4
REMARK    4  A    between atoms: C_2  and  C_5
REMARK    5  A    between atoms: C_8  and  C_11
REMARK    6  A    between atoms: N_16  and  C_19
REMARK    7  A    between atoms: N_22  and  C_25
REMARK    8  A    between atoms: C_25  and  C_26
REMARK    9  A    between atoms: N_32  and  C_36
REMARK                            x       y       z     vdW  Elec       q    Type
REMARK                         _______ _______ _______ _____ _____    ______ ____
ROOT
ATOM      1  C   UNL     1       2.707  -1.868  -4.752  0.00  0.00    +0.142 C 
ATOM      2  C   UNL     1       2.628  -0.772  -5.796  0.00  0.00    +0.058 C 
ATOM      3  C   UNL     1       3.788  -0.291  -6.289  0.00  0.00    +0.042 C 
ATOM      4  C   UNL     1       3.413   0.774  -7.295  0.00  0.00    +0.159 C 
ATOM      5  N   UNL     1       1.943   0.805  -7.282  0.00  0.00    -0.289 N 
ATOM      6  C   UNL     1       1.532  -0.115  -6.391  0.00  0.00    +0.247 C 
ATOM      7  O   UNL     1       0.366  -0.350  -6.133  0.00  0.00    -0.270 OA
ATOM      8  N   UNL     1       4.992  -0.774  -5.863  0.00  0.00    -0.260 N 
ATOM      9  C   UNL     1       5.120  -1.741  -4.945  0.00  0.00    +0.307 C 
ATOM     10  O   UNL     1       6.235  -2.107  -4.628  0.00  0.00    -0.252 OA
ATOM     11  N   UNL     1       4.053  -2.319  -4.361  0.00  0.00    -0.288 N 
ATOM     12  C   UNL     1       6.211  -0.204  -6.443  0.00  0.00    +0.139 C 
ATOM     13  H   UNL     1       4.169  -3.017  -3.697  0.00  0.00    +0.151 HD
ENDROOT
BRANCH   5  14
ATOM     14  C   UNL     1       1.085   1.677  -8.089  0.00  0.00    +0.073 C 
ATOM     15  C   UNL     1       0.220   2.541  -7.167  0.00  0.00    +0.004 C 
ATOM     16  C   UNL     1      -0.729   3.391  -8.015  0.00  0.00    -0.077 C 
ATOM     17  N   UNL     1      -1.590   2.515  -8.818  0.00  0.00    +0.382 N 
ATOM     18  C   UNL     1      -0.773   1.735  -9.755  0.00  0.00    -0.077 C 
ATOM     19  C   UNL     1       0.174   0.822  -8.974  0.00  0.00    +0.004 C 
ATOM     20  H   UNL     1      -2.092   1.887  -8.208  0.00  0.00    -0.081 HD
BRANCH  17  21
ATOM     21  C   UNL     1      -2.551   3.332  -9.571  0.00  0.00    -0.043 C 
BRANCH  21  22
ATOM     22  C   UNL     1      -3.514   2.431 -10.300  0.00  0.00    -0.064 A 
ATOM     23  C   UNL     1      -3.223   1.999 -11.580  0.00  0.00    +0.002 A 
ATOM     24  C   UNL     1      -4.106   1.173 -12.249  0.00  0.00    +0.000 A 
ATOM     25  C   UNL     1      -5.282   0.778 -11.637  0.00  0.00    +0.000 A 
ATOM     26  C   UNL     1      -5.573   1.210 -10.356  0.00  0.00    +0.000 A 
ATOM     27  C   UNL     1      -4.687   2.033  -9.686  0.00  0.00    +0.002 A 
ENDBRANCH  21  22
ENDBRANCH  17  21
ENDBRANCH   5  14
BRANCH   1  31
ATOM     28  C   UNL     1       0.707  -0.490  -1.238  0.00  0.00    -0.042 A 
ATOM     29  C   UNL     1       0.036  -1.284  -2.148  0.00  0.00    +0.004 A 
ATOM     30  C   UNL     1       0.683  -1.730  -3.286  0.00  0.00    +0.006 A 
ATOM     31  C   UNL     1       2.001  -1.381  -3.513  0.00  0.00    -0.023 A 
ATOM     32  C   UNL     1       2.672  -0.586  -2.603  0.00  0.00    +0.006 A 
ATOM     33  C   UNL     1       2.024  -0.137  -1.467  0.00  0.00    +0.004 A 
BRANCH  28  35
ATOM     34  C   UNL     1      -0.019   1.526   0.010  0.00  0.00    +0.015 C 
ATOM     35  C   UNL     1       0.002  -0.004   0.002  0.00  0.00    -0.013 C 
ATOM     36  C   UNL     1       0.742  -0.511   1.242  0.00  0.00    +0.015 C 
ATOM     37  C   UNL     1      -1.433  -0.534   0.013  0.00  0.00    +0.015 C 
ENDBRANCH  28  35
ENDBRANCH   1  31
TORSDOF 5
