REMARK  Name = ZINC00818086
REMARK  9 active torsions:
REMARK  status: ('A' for Active; 'I' for Inactive)
REMARK    1  A    between atoms: C_1  and  C_2
REMARK    2  A    between atoms: C_4  and  C_28
REMARK    3  A    between atoms: C_10  and  C_27
REMARK    4  A    between atoms: C_13  and  C_16
REMARK    5  A    between atoms: C_18  and  O_25
REMARK    6  A    between atoms: C_19  and  O_24
REMARK    7  A    between atoms: C_20  and  O_22
REMARK    8  A    between atoms: O_22  and  C_23
REMARK    9  A    between atoms: O_25  and  C_26
REMARK                            x       y       z     vdW  Elec       q    Type
REMARK                         _______ _______ _______ _____ _____    ______ ____
ROOT
ATOM      1  C   UNL     1      -0.018   1.503   0.010  0.00  0.00    +0.044 C 
ATOM      2  C   UNL     1       0.002  -0.004   0.002  0.00  0.00    -0.049 A 
ATOM      3  C   UNL     1       0.006  -0.687  -1.202  0.00  0.00    +0.008 A 
ATOM      4  C   UNL     1       0.019  -2.070  -1.230  0.00  0.00    -0.029 A 
ATOM      5  C   UNL     1       0.032  -2.783  -0.044  0.00  0.00    +0.041 A 
ATOM      6  C   UNL     1       0.037  -2.084   1.180  0.00  0.00    +0.022 A 
ATOM      7  C   UNL     1       0.023  -0.700   1.197  0.00  0.00    +0.015 A 
ATOM      8  C   UNL     1       0.081  -2.906   2.404  0.00  0.00    +0.073 A 
ATOM      9  C   UNL     1      -0.119  -2.596   3.703  0.00  0.00    +0.052 A 
ATOM     10  C   UNL     1       0.036  -3.770   4.449  0.00  0.00    +0.061 A 
ATOM     11  N   UNL     1       0.323  -4.755   3.629  0.00  0.00    -0.174 NA
ATOM     12  N   UNL     1       0.366  -4.251   2.334  0.00  0.00    -0.238 N 
ATOM     13  C   UNL     1       0.657  -4.925   1.067  0.00  0.00    +0.222 C 
ATOM     14  N   UNL     1       0.030  -4.177  -0.031  0.00  0.00    -0.318 N 
ATOM     15  C   UNL     1      -0.102  -3.885   5.945  0.00  0.00    +0.067 C 
ATOM     16  C   UNL     1       0.020  -2.798  -2.549  0.00  0.00    +0.045 C 
ATOM     17  H   UNL     1      -0.392  -4.661  -0.758  0.00  0.00    +0.148 HD
ENDROOT
BRANCH  13  18
ATOM     18  C   UNL     1       2.149  -4.978   0.856  0.00  0.00    +0.002 A 
ATOM     19  C   UNL     1       2.817  -3.864   0.384  0.00  0.00    +0.057 A 
ATOM     20  C   UNL     1       4.189  -3.909   0.187  0.00  0.00    +0.165 A 
ATOM     21  C   UNL     1       4.892  -5.074   0.467  0.00  0.00    +0.201 A 
ATOM     22  C   UNL     1       4.216  -6.192   0.942  0.00  0.00    +0.165 A 
ATOM     23  C   UNL     1       2.845  -6.138   1.140  0.00  0.00    +0.057 A 
BRANCH  22  24
ATOM     24  O   UNL     1       4.899  -7.335   1.217  0.00  0.00    -0.491 OA
ATOM     25  C   UNL     1       4.140  -8.444   1.702  0.00  0.00    +0.277 C 
ENDBRANCH  22  24
BRANCH  21  26
ATOM     26  O   UNL     1       6.239  -5.122   0.275  0.00  0.00    -0.501 OA
ATOM     27  H   UNL     1       6.756  -4.860   1.049  0.00  0.00    +0.292 HD
ENDBRANCH  21  26
BRANCH  20  28
ATOM     28  O   UNL     1       4.846  -2.812  -0.279  0.00  0.00    -0.491 OA
ATOM     29  C   UNL     1       4.060  -1.649  -0.545  0.00  0.00    +0.277 C 
ENDBRANCH  20  28
ENDBRANCH  13  18
TORSDOF 4
