REMARK  Name = ZINC59371681
REMARK  4 active torsions:
REMARK  status: ('A' for Active; 'I' for Inactive)
REMARK    1  A    between atoms: C_4  and  C_7
REMARK    2  A    between atoms: N_8  and  N_9
REMARK    3  A    between atoms: C_10  and  C_12
REMARK    4  A    between atoms: N_14  and  C_15
REMARK                            x       y       z     vdW  Elec       q    Type
REMARK                         _______ _______ _______ _____ _____    ______ ____
ROOT
ATOM      1  C   UNL     1       6.275  -4.745   0.093  0.00  0.00    +0.305 C 
ATOM      2  O   UNL     1       7.318  -4.146   0.252  0.00  0.00    -0.265 OA
ATOM      3  N   UNL     1       6.286  -6.080  -0.094  0.00  0.00    -0.278 N 
ATOM      4  H   UNL     1       5.450  -6.570  -0.143  0.00  0.00    +0.155 HD
ENDROOT
BRANCH   3   5
ATOM      5  C   UNL     1       7.501  -6.758  -0.215  0.00  0.00    +0.034 A 
ATOM      6  C   UNL     1       8.589  -6.126  -0.831  0.00  0.00    +0.024 A 
ATOM      7  C   UNL     1       9.783  -6.762  -0.963  0.00  0.00    +0.010 A 
ATOM      8  C   UNL     1       9.936  -8.072  -0.477  0.00  0.00    -0.018 A 
ATOM      9  C   UNL     1      11.159  -8.754  -0.600  0.00  0.00    +0.008 A 
ATOM     10  C   UNL     1      11.275 -10.022  -0.119  0.00  0.00    +0.001 A 
ATOM     11  C   UNL     1      10.198 -10.659   0.495  0.00  0.00    +0.001 A 
ATOM     12  C   UNL     1       8.999 -10.030   0.631  0.00  0.00    +0.008 A 
ATOM     13  C   UNL     1       8.841  -8.720   0.148  0.00  0.00    -0.016 A 
ATOM     14  C   UNL     1       7.619  -8.039   0.277  0.00  0.00    +0.031 A 
ENDBRANCH   3   5
BRANCH   1  16
ATOM     15  N   UNL     1       4.969  -2.670   0.292  0.00  0.00    -0.199 N 
ATOM     16  C   UNL     1       4.980  -4.005   0.105  0.00  0.00    +0.318 C 
ATOM     17  O   UNL     1       3.936  -4.605  -0.053  0.00  0.00    -0.263 OA
ATOM     18  H   UNL     1       5.803  -2.191   0.418  0.00  0.00    +0.178 HD
BRANCH  15  20
ATOM     19  C   UNL     1       3.742  -0.689   0.483  0.00  0.00    +0.138 C 
ATOM     20  N   UNL     1       3.753  -1.975   0.303  0.00  0.00    -0.187 NA
BRANCH  19  24
ATOM     21  C   UNL     1       0.058   1.418   0.515  0.00  0.00    +0.000 A 
ATOM     22  C   UNL     1       1.246   2.105   0.697  0.00  0.00    +0.001 A 
ATOM     23  C   UNL     1       2.447   1.427   0.688  0.00  0.00    +0.009 A 
ATOM     24  C   UNL     1       2.462   0.043   0.494  0.00  0.00    -0.005 A 
ATOM     25  C   UNL     1       1.259  -0.644   0.312  0.00  0.00    +0.009 A 
ATOM     26  C   UNL     1       0.066   0.048   0.323  0.00  0.00    +0.001 A 
ENDBRANCH  19  24
ENDBRANCH  15  20
ENDBRANCH   1  16
TORSDOF 4
