REMARK  Name = ZINC39666596
REMARK  9 active torsions:
REMARK  status: ('A' for Active; 'I' for Inactive)
REMARK    1  A    between atoms: C_1  and  C_2
REMARK    2  A    between atoms: C_4  and  C_11
REMARK    3  A    between atoms: C_5  and  C_7
REMARK    4  A    between atoms: C_15  and  C_24
REMARK    5  A    between atoms: N_26  and  C_27
REMARK    6  A    between atoms: C_27  and  C_28
REMARK    7  A    between atoms: C_28  and  C_30
REMARK    8  A    between atoms: C_28  and  O_31
REMARK    9  A    between atoms: O_31  and  C_32
REMARK                            x       y       z     vdW  Elec       q    Type
REMARK                         _______ _______ _______ _____ _____    ______ ____
ROOT
ATOM      1  C   UNL     1      -0.349  -1.545  -0.497  0.00  0.00    +0.250 C 
ATOM      2  O   UNL     1       0.302  -2.543  -0.254  0.00  0.00    -0.270 OA
ATOM      3  N   UNL     1      -1.671  -1.524  -0.236  0.00  0.00    -0.296 N 
ATOM      4  C   UNL     1      -2.649  -0.466  -0.585  0.00  0.00    +0.121 C 
ATOM      5  C   UNL     1      -3.921  -1.234  -1.009  0.00  0.00    +0.100 C 
ATOM      6  C   UNL     1      -3.802  -2.602  -0.316  0.00  0.00    -0.004 C 
ATOM      7  C   UNL     1      -2.477  -2.556   0.459  0.00  0.00    +0.115 C 
ATOM      8  C   UNL     1      -4.970  -2.811   0.644  0.00  0.00    -0.010 C 
ATOM      9  C   UNL     1      -4.862  -4.201   1.277  0.00  0.00    -0.082 C 
ATOM     10  N   UNL     1      -4.879  -5.223   0.224  0.00  0.00    +0.379 N 
ATOM     11  C   UNL     1      -3.702  -5.072  -0.640  0.00  0.00    -0.082 C 
ATOM     12  C   UNL     1      -3.761  -3.719  -1.355  0.00  0.00    -0.010 C 
ATOM     13  H   UNL     1      -4.869  -6.140   0.647  0.00  0.00    -0.086 HD
ATOM     14  H   UNL     1      -5.716  -5.120  -0.329  0.00  0.00    -0.086 HD
ENDROOT
BRANCH   1  18
ATOM     15  C   UNL     1       0.535   3.159  -2.261  0.00  0.00    +0.086 C 
ATOM     16  C   UNL     1       0.677   1.717  -1.850  0.00  0.00    +0.103 A 
ATOM     17  C   UNL     1      -0.291   0.963  -1.307  0.00  0.00    +0.058 A 
ATOM     18  C   UNL     1       0.306  -0.360  -1.078  0.00  0.00    +0.087 A 
ATOM     19  C   UNL     1       1.595  -0.262  -1.515  0.00  0.00    +0.220 A 
ATOM     20  O   UNL     1       1.792   0.978  -1.973  0.00  0.00    -0.455 OA
BRANCH  19  21
ATOM     21  C   UNL     1       2.621  -1.365  -1.490  0.00  0.00    +0.451 C 
ATOM     22  F   UNL     1       2.559  -2.087  -2.686  0.00  0.00    -0.163 F 
ATOM     23  F   UNL     1       3.898  -0.812  -1.344  0.00  0.00    -0.163 F 
ATOM     24  F   UNL     1       2.359  -2.221  -0.415  0.00  0.00    -0.163 F 
ENDBRANCH  19  21
ENDBRANCH   1  18
BRANCH   5  25
ATOM     25  C   UNL     1      -3.957  -1.404  -2.506  0.00  0.00    +0.218 C 
ATOM     26  O   UNL     1      -2.922  -1.443  -3.137  0.00  0.00    -0.275 OA
ATOM     27  N   UNL     1      -5.139  -1.511  -3.144  0.00  0.00    -0.312 N 
ATOM     28  H   UNL     1      -5.968  -1.403  -2.651  0.00  0.00    +0.149 HD
BRANCH  27  29
ATOM     29  C   UNL     1      -5.173  -1.791  -4.581  0.00  0.00    +0.148 C 
BRANCH  29  30
ATOM     30  C   UNL     1      -6.620  -1.742  -5.076  0.00  0.00    +0.187 C 
ATOM     31  C   UNL     1      -6.669  -2.146  -6.551  0.00  0.00    +0.053 C 
BRANCH  30  32
ATOM     32  O   UNL     1      -7.129  -0.414  -4.929  0.00  0.00    -0.486 OA
BRANCH  32  33
ATOM     33  C   UNL     1      -8.477  -0.279  -4.813  0.00  0.00    +0.139 A 
ATOM     34  C   UNL     1      -9.300  -1.387  -4.953  0.00  0.00    +0.047 A 
ATOM     35  C   UNL     1     -10.670  -1.247  -4.834  0.00  0.00    +0.004 A 
ATOM     36  C   UNL     1     -11.220  -0.005  -4.577  0.00  0.00    +0.002 A 
ATOM     37  C   UNL     1     -10.402   1.101  -4.438  0.00  0.00    +0.023 A 
ATOM     38  C   UNL     1      -9.031   0.966  -4.550  0.00  0.00    +0.083 A 
ATOM     39 CL   UNL     1      -8.003   2.353  -4.368  0.00  0.00    -0.080 Cl
ENDBRANCH  32  33
ENDBRANCH  30  32
ENDBRANCH  29  30
ENDBRANCH  27  29
ENDBRANCH   5  25
TORSDOF 7
