REMARK  Name = ZINC50675490
REMARK  5 active torsions:
REMARK  status: ('A' for Active; 'I' for Inactive)
REMARK    1  A    between atoms: C_1  and  C_2
REMARK    2  A    between atoms: C_2  and  N_3
REMARK    3  A    between atoms: N_3  and  C_4
REMARK    4  A    between atoms: C_7  and  S_10
REMARK    5  A    between atoms: S_10  and  N_13
REMARK                            x       y       z     vdW  Elec       q    Type
REMARK                         _______ _______ _______ _____ _____    ______ ____
ROOT
ATOM      1  S   UNL     1       1.299  -6.290  -2.178  0.00  0.00    +0.101 S 
ATOM      2  O   UNL     1       2.424  -6.442  -3.034  0.00  0.00    -0.146 OA
ATOM      3  O   UNL     1       1.216  -6.925  -0.910  0.00  0.00    -0.146 OA
ENDROOT
BRANCH   1   4
ATOM      4  N   UNL     1      -0.024  -6.783  -3.043  0.00  0.00    -0.103 NA
ATOM      5  C   UNL     1      -0.144  -8.039  -3.397  0.00  0.00    +0.192 A 
ATOM      6  N   UNL     1       0.695  -9.095  -3.153  0.00  0.00    -0.336 N 
ATOM      7  C   UNL     1       0.368 -10.359  -3.628  0.00  0.00    +0.028 A 
ATOM      8  C   UNL     1      -0.769 -10.481  -4.313  0.00  0.00    +0.012 A 
ATOM      9  S   UNL     1      -1.448  -8.837  -4.319  0.00  0.00    -0.053 S 
ATOM     10  C   UNL     1      -1.014 -11.888  -4.780  0.00  0.00    +0.044 C 
ATOM     11  C   UNL     1       0.361 -12.581  -4.655  0.00  0.00    +0.011 C 
ATOM     12  C   UNL     1       1.032 -11.739  -3.552  0.00  0.00    +0.054 C 
ATOM     13  H   UNL     1       1.514  -8.961  -2.652  0.00  0.00    +0.168 HD
ENDBRANCH   1   4
BRANCH   1  17
ATOM     14  C   UNL     1       0.832  -1.847  -1.433  0.00  0.00    +0.027 A 
ATOM     15  C   UNL     1       0.321  -2.763  -0.523  0.00  0.00    +0.025 A 
ATOM     16  C   UNL     1       0.464  -4.117  -0.753  0.00  0.00    +0.031 A 
ATOM     17  C   UNL     1       1.117  -4.561  -1.889  0.00  0.00    +0.113 A 
ATOM     18  C   UNL     1       1.627  -3.652  -2.797  0.00  0.00    +0.031 A 
ATOM     19  C   UNL     1       1.482  -2.296  -2.575  0.00  0.00    +0.025 A 
BRANCH  14  20
ATOM     20  N   UNL     1       0.688  -0.476  -1.203  0.00  0.00    -0.344 N 
ATOM     21  H   UNL     1       1.042   0.162  -1.842  0.00  0.00    +0.146 HD
BRANCH  20  23
ATOM     22  C   UNL     1      -0.019   1.526   0.010  0.00  0.00    +0.024 C 
ATOM     23  C   UNL     1       0.002  -0.004   0.002  0.00  0.00    +0.098 C 
ENDBRANCH  20  23
ENDBRANCH  14  20
ENDBRANCH   1  17
TORSDOF 4
