REMARK  Name = ZINC14776962
REMARK  14 active torsions:
REMARK  status: ('A' for Active; 'I' for Inactive)
REMARK    1  A    between atoms: C_1  and  C_2
REMARK    2  A    between atoms: C_3  and  C_33
REMARK    3  A    between atoms: N_4  and  C_28
REMARK    4  A    between atoms: C_5  and  N_9
REMARK    5  A    between atoms: C_6  and  C_7
REMARK    6  A    between atoms: C_10  and  C_12
REMARK    7  A    between atoms: C_12  and  O_13
REMARK    8  A    between atoms: O_13  and  C_14
REMARK    9  A    between atoms: C_14  and  C_16
REMARK   10  A    between atoms: C_17  and  C_18
REMARK   11  A    between atoms: C_22  and  O_26
REMARK   12  A    between atoms: C_23  and  O_24
REMARK   13  A    between atoms: O_24  and  C_25
REMARK   14  A    between atoms: O_26  and  C_27
REMARK                            x       y       z     vdW  Elec       q    Type
REMARK                         _______ _______ _______ _____ _____    ______ ____
ROOT
ATOM      1  N   UNL     1       5.240  -8.162   0.009  0.00  0.00    -0.268 N 
ATOM      2  C   UNL     1       5.030  -6.834  -0.083  0.00  0.00    +0.256 C 
ATOM      3  O   UNL     1       5.971  -6.078  -0.195  0.00  0.00    -0.272 OA
ATOM      4  H   UNL     1       4.487  -8.774   0.012  0.00  0.00    +0.156 HD
ENDROOT
BRANCH   1   9
ATOM      5  C   UNL     1      10.172  -8.672   0.988  0.00  0.00    +0.047 C 
ATOM      6  C   UNL     1       8.759  -8.917   0.525  0.00  0.00    -0.011 A 
ATOM      7  C   UNL     1       8.299 -10.014  -0.100  0.00  0.00    +0.022 A 
ATOM      8  N   UNL     1       6.962  -9.863  -0.353  0.00  0.00    -0.329 N 
ATOM      9  C   UNL     1       6.534  -8.655   0.098  0.00  0.00    +0.124 A 
ATOM     10  C   UNL     1       7.618  -8.005   0.669  0.00  0.00    +0.095 A 
ATOM     11  C   UNL     1       9.124 -11.223  -0.459  0.00  0.00    +0.064 C 
BRANCH   8  12
ATOM     12  C   UNL     1       6.117 -10.857  -1.018  0.00  0.00    +0.089 C 
ATOM     13  C   UNL     1       5.361 -10.207  -2.195  0.00  0.00    +0.025 C 
ATOM     14  C   UNL     1       3.969 -10.887  -2.174  0.00  0.00    +0.002 C 
ATOM     15  C   UNL     1       3.678 -11.025  -0.659  0.00  0.00    +0.002 C 
ATOM     16  C   UNL     1       5.047 -11.377  -0.041  0.00  0.00    +0.025 C 
ENDBRANCH   8  12
BRANCH  10  17
ATOM     17  C   UNL     1       7.624  -6.707   1.275  0.00  0.00    +0.103 C 
ATOM     18  N   UNL     1       7.628  -5.678   1.755  0.00  0.00    -0.191 NA
ENDBRANCH  10  17
ENDBRANCH   1   9
BRANCH   2  19
ATOM     19  C   UNL     1       3.626  -6.290  -0.045  0.00  0.00    +0.328 C 
BRANCH  19  20
ATOM     20  O   UNL     1       3.669  -4.861  -0.041  0.00  0.00    -0.452 OA
BRANCH  20  21
ATOM     21  C   UNL     1       2.486  -4.213  -0.009  0.00  0.00    +0.332 C 
ATOM     22  O   UNL     1       1.446  -4.844   0.015  0.00  0.00    -0.246 OA
BRANCH  21  23
ATOM     23  C   UNL     1       2.454  -2.795  -0.002  0.00  0.00    +0.092 C 
ATOM     24  C   UNL     1       1.270  -2.146   0.030  0.00  0.00    +0.018 C 
BRANCH  24  25
ATOM     25  C   UNL     1       1.237  -0.677   0.036  0.00  0.00    +0.021 A 
ATOM     26  C   UNL     1       2.432   0.054   0.009  0.00  0.00    +0.012 A 
ATOM     27  C   UNL     1       2.396   1.430   0.015  0.00  0.00    +0.004 A 
ATOM     28  C   UNL     1       1.183   2.099   0.048  0.00  0.00    +0.049 A 
ATOM     29  C   UNL     1      -0.007   1.391   0.075  0.00  0.00    +0.162 A 
ATOM     30  C   UNL     1       0.010   0.001   0.070  0.00  0.00    +0.169 A 
BRANCH  30  31
ATOM     31  O   UNL     1      -1.155  -0.697   0.096  0.00  0.00    -0.491 OA
ATOM     32  C   UNL     1      -1.743  -1.025  -1.164  0.00  0.00    +0.277 C 
ENDBRANCH  30  31
BRANCH  29  33
ATOM     33  O   UNL     1      -1.194   2.056   0.102  0.00  0.00    -0.491 OA
ATOM     34  C   UNL     1      -1.137   3.484   0.106  0.00  0.00    +0.277 C 
ENDBRANCH  29  33
ENDBRANCH  24  25
ENDBRANCH  21  23
ENDBRANCH  20  21
ENDBRANCH  19  20
ENDBRANCH   2  19
TORSDOF 10
