REMARK  Name = ZINC36187355
REMARK  12 active torsions:
REMARK  status: ('A' for Active; 'I' for Inactive)
REMARK    1  A    between atoms: C_1  and  C_2
REMARK    2  A    between atoms: C_5  and  S_7
REMARK    3  A    between atoms: S_7  and  C_8
REMARK    4  A    between atoms: C_11  and  C_17
REMARK    5  A    between atoms: C_13  and  N_14
REMARK    6  A    between atoms: C_17  and  O_19
REMARK    7  A    between atoms: O_19  and  C_20
REMARK    8  A    between atoms: C_20  and  C_22
REMARK    9  A    between atoms: C_20  and  C_23
REMARK   10  A    between atoms: N_25  and  C_26
REMARK   11  A    between atoms: C_29  and  C_32
REMARK   12  A    between atoms: C_32  and  C_34
REMARK                            x       y       z     vdW  Elec       q    Type
REMARK                         _______ _______ _______ _____ _____    ______ ____
ROOT
ATOM      1  C   UNL     1      -0.092  -8.562   0.098  0.00  0.00    +0.340 C 
ATOM      2  O   UNL     1      -0.012  -9.419   0.956  0.00  0.00    -0.245 OA
ENDROOT
BRANCH   1   6
ATOM      3  C   UNL     1      -0.733  -4.521   1.194  0.00  0.00    +0.045 A 
ATOM      4  C   UNL     1      -0.613  -4.866  -0.150  0.00  0.00    +0.018 A 
ATOM      5  C   UNL     1      -0.406  -6.168  -0.507  0.00  0.00    +0.016 A 
ATOM      6  C   UNL     1      -0.315  -7.156   0.479  0.00  0.00    +0.061 A 
ATOM      7  C   UNL     1      -0.435  -6.807   1.828  0.00  0.00    +0.048 A 
ATOM      8  C   UNL     1      -0.637  -5.502   2.179  0.00  0.00    +0.141 A 
BRANCH   8   9
ATOM      9  N   UNL     1      -0.758  -5.130   3.606  0.00  0.00    +0.058 N 
ATOM     10  O   UNL     1      -0.675  -5.980   4.462  0.00  0.00    -0.126 OA
ATOM     11  O   UNL     1      -0.942  -3.976   3.917  0.00  0.00    -0.126 OA
ENDBRANCH   8   9
BRANCH   3  12
ATOM     12  S   UNL     1      -1.001  -2.841   1.650  0.00  0.00    -0.061 S 
BRANCH  12  17
ATOM     13  C   UNL     1      -5.475  -0.742   3.409  0.00  0.00    +0.066 C 
ATOM     14  C   UNL     1      -4.683  -1.888   2.836  0.00  0.00    +0.047 A 
ATOM     15  C   UNL     1      -5.263  -3.084   2.567  0.00  0.00    +0.070 A 
ATOM     16  S   UNL     1      -3.866  -3.996   1.931  0.00  0.00    -0.069 S 
ATOM     17  C   UNL     1      -2.711  -2.780   2.071  0.00  0.00    +0.139 A 
ATOM     18  N   UNL     1      -3.396  -1.771   2.567  0.00  0.00    -0.238 NA
ENDBRANCH  12  17
ENDBRANCH   3  12
ENDBRANCH   1   6
BRANCH   1  19
ATOM     19  O   UNL     1       0.024  -8.898  -1.202  0.00  0.00    -0.449 OA
BRANCH  19  20
ATOM     20  C   UNL     1       0.239 -10.279  -1.499  0.00  0.00    +0.259 C 
ATOM     21  C   UNL     1      -1.111 -10.978  -1.679  0.00  0.00    +0.062 C 
BRANCH  20  22
ATOM     22  C   UNL     1       1.040 -10.400  -2.769  0.00  0.00    +0.258 C 
ATOM     23  O   UNL     1       1.393  -9.403  -3.362  0.00  0.00    -0.271 OA
ATOM     24  N   UNL     1       1.365 -11.618  -3.247  0.00  0.00    -0.282 N 
ATOM     25  H   UNL     1       1.023 -12.416  -2.814  0.00  0.00    +0.155 HD
BRANCH  24  26
ATOM     26  C   UNL     1       2.194 -11.731  -4.361  0.00  0.00    +0.034 A 
ATOM     27  C   UNL     1       2.005 -12.774  -5.263  0.00  0.00    +0.024 A 
ATOM     28  C   UNL     1       2.817 -12.889  -6.362  0.00  0.00    +0.013 A 
ATOM     29  C   UNL     1       3.838 -11.954  -6.575  0.00  0.00    +0.017 A 
ATOM     30  C   UNL     1       4.025 -10.907  -5.665  0.00  0.00    +0.013 A 
ATOM     31  C   UNL     1       3.204 -10.797  -4.572  0.00  0.00    +0.024 A 
BRANCH  29  32
ATOM     32  C   UNL     1       4.711 -12.073  -7.750  0.00  0.00    +0.160 C 
ATOM     33  O   UNL     1       4.485 -12.918  -8.591  0.00  0.00    -0.292 OA
ATOM     34  C   UNL     1       5.889 -11.147  -7.911  0.00  0.00    +0.091 C 
ENDBRANCH  29  32
ENDBRANCH  24  26
ENDBRANCH  20  22
ENDBRANCH  19  20
ENDBRANCH   1  19
TORSDOF 9
