REMARK  Name = ZINC02896982
REMARK  11 active torsions:
REMARK  status: ('A' for Active; 'I' for Inactive)
REMARK    1  A    between atoms: C_1  and  N_2
REMARK    2  A    between atoms: N_2  and  C_3
REMARK    3  A    between atoms: N_2  and  C_4
REMARK    4  A    between atoms: C_10  and  N_30
REMARK    5  A    between atoms: C_13  and  C_14
REMARK    6  A    between atoms: C_14  and  C_16
REMARK    7  A    between atoms: C_14  and  N_20
REMARK    8  A    between atoms: N_20  and  S_21
REMARK    9  A    between atoms: S_21  and  C_24
REMARK   10  A    between atoms: N_30  and  C_31
REMARK   11  A    between atoms: N_30  and  C_32
REMARK                            x       y       z     vdW  Elec       q    Type
REMARK                         _______ _______ _______ _____ _____    ______ ____
ROOT
ATOM      1  C   UNL     1       3.691   1.519  -7.141  0.00  0.00    +0.039 A 
ATOM      2  C   UNL     1       3.928   2.822  -6.754  0.00  0.00    +0.024 A 
ATOM      3  C   UNL     1       4.273   3.121  -5.440  0.00  0.00    +0.002 A 
ATOM      4  C   UNL     1       4.387   2.140  -4.502  0.00  0.00    +0.009 A 
ATOM      5  C   UNL     1       4.150   0.800  -4.855  0.00  0.00    -0.009 A 
ATOM      6  C   UNL     1       3.802   0.483  -6.191  0.00  0.00    +0.024 A 
ATOM      7  C   UNL     1       3.569  -0.861  -6.545  0.00  0.00    +0.039 A 
ATOM      8  C   UNL     1       3.688  -1.845  -5.585  0.00  0.00    +0.024 A 
ATOM      9  C   UNL     1       4.035  -1.522  -4.276  0.00  0.00    +0.008 A 
ATOM     10  C   UNL     1       4.266  -0.232  -3.908  0.00  0.00    -0.017 A 
ENDROOT
BRANCH   1  12
ATOM     11  C   UNL     1       2.103   1.913  -8.840  0.00  0.00    +0.129 C 
ATOM     12  N   UNL     1       3.346   1.229  -8.459  0.00  0.00    -0.335 N 
ATOM     13  C   UNL     1       4.440   1.573  -9.377  0.00  0.00    +0.129 C 
ENDBRANCH   1  12
BRANCH   7  14
ATOM     14  N   UNL     1       3.221  -1.194  -7.852  0.00  0.00    -0.335 N 
ATOM     15  C   UNL     1       4.207  -2.109  -8.442  0.00  0.00    +0.129 C 
ATOM     16  C   UNL     1       1.871  -1.769  -7.907  0.00  0.00    +0.129 C 
ENDBRANCH   7  14
BRANCH  10  17
ATOM     17  C   UNL     1       4.640   0.090  -2.484  0.00  0.00    +0.158 C 
BRANCH  17  18
ATOM     18  C   UNL     1       6.162   0.046  -2.334  0.00  0.00    +0.211 C 
ATOM     19 CL   UNL     1       6.760  -1.602  -2.754  0.00  0.00    -0.081 Cl
ATOM     20 CL   UNL     1       6.910   1.258  -3.441  0.00  0.00    -0.081 Cl
ATOM     21 CL   UNL     1       6.609   0.432  -0.631  0.00  0.00    -0.081 Cl
ENDBRANCH  17  18
BRANCH  17  22
ATOM     22  N   UNL     1       4.032  -0.894  -1.585  0.00  0.00    -0.178 NA
ATOM     23  H   UNL     1       4.311  -1.822  -1.622  0.00  0.00    +0.149 HD
BRANCH  22  24
ATOM     24  S   UNL     1       2.869  -0.421  -0.506  0.00  0.00    +0.059 S 
ATOM     25  O   UNL     1       3.375   0.728   0.160  0.00  0.00    -0.153 OA
ATOM     26  O   UNL     1       2.464  -1.591   0.193  0.00  0.00    -0.153 OA
BRANCH  24  27
ATOM     27  C   UNL     1       1.475   0.113  -1.442  0.00  0.00    +0.105 A 
ATOM     28  C   UNL     1       0.491  -0.792  -1.794  0.00  0.00    +0.028 A 
ATOM     29  C   UNL     1      -0.603  -0.373  -2.529  0.00  0.00    +0.002 A 
ATOM     30  C   UNL     1      -0.712   0.951  -2.912  0.00  0.00    +0.000 A 
ATOM     31  C   UNL     1       0.273   1.856  -2.560  0.00  0.00    +0.002 A 
ATOM     32  C   UNL     1       1.366   1.437  -1.825  0.00  0.00    +0.028 A 
ENDBRANCH  24  27
ENDBRANCH  22  24
ENDBRANCH  17  22
ENDBRANCH  10  17
TORSDOF 7
