REMARK  Name = ZINC36725465
REMARK  9 active torsions:
REMARK  status: ('A' for Active; 'I' for Inactive)
REMARK    1  A    between atoms: C_1  and  C_2
REMARK    2  A    between atoms: C_2  and  C_4
REMARK    3  A    between atoms: C_2  and  N_14
REMARK    4  A    between atoms: C_15  and  C_17
REMARK    5  A    between atoms: C_17  and  N_18
REMARK    6  A    between atoms: C_24  and  C_27
REMARK    7  A    between atoms: C_27  and  C_28
REMARK    8  A    between atoms: C_27  and  C_29
REMARK    9  A    between atoms: C_27  and  C_30
REMARK                            x       y       z     vdW  Elec       q    Type
REMARK                         _______ _______ _______ _____ _____    ______ ____
ROOT
ATOM      1  C   UNL     1       0.712  -1.094  -3.598  0.00  0.00    +0.213 C 
ENDROOT
BRANCH   1   2
ATOM      2  N   UNL     1      -0.240  -1.150  -4.711  0.00  0.00    -0.215 N 
ATOM      3  C   UNL     1      -0.989  -2.231  -5.015  0.00  0.00    +0.247 C 
ATOM      4  O   UNL     1      -1.002  -3.299  -4.441  0.00  0.00    -0.273 OA
ATOM      5  C   UNL     1      -1.807  -1.828  -6.220  0.00  0.00    +0.113 C 
ATOM      6  C   UNL     1      -3.296  -1.889  -5.895  0.00  0.00    +0.035 C 
ATOM      7  C   UNL     1      -3.692  -3.334  -5.582  0.00  0.00    +0.006 C 
ATOM      8  C   UNL     1      -3.380  -4.220  -6.789  0.00  0.00    -0.005 C 
ATOM      9  C   UNL     1      -1.881  -4.166  -7.090  0.00  0.00    +0.006 C 
ATOM     10  C   UNL     1      -1.477  -2.724  -7.409  0.00  0.00    +0.035 C 
ATOM     11  N   UNL     1      -1.394  -0.445  -6.487  0.00  0.00    -0.285 N 
ATOM     12  C   UNL     1      -0.478  -0.134  -5.549  0.00  0.00    +0.310 C 
ATOM     13  O   UNL     1       0.073   0.947  -5.475  0.00  0.00    -0.252 OA
ATOM     14  H   UNL     1      -1.718   0.132  -7.195  0.00  0.00    +0.151 HD
BRANCH   8  15
ATOM     15  C   UNL     1      -3.786  -5.663  -6.481  0.00  0.00    -0.035 C 
ATOM     16  C   UNL     1      -5.285  -5.718  -6.182  0.00  0.00    +0.011 C 
ATOM     17  C   UNL     1      -3.473  -6.550  -7.688  0.00  0.00    +0.011 C 
ATOM     18  C   UNL     1      -3.005  -6.164  -5.264  0.00  0.00    +0.011 C 
ENDBRANCH   8  15
ENDBRANCH   1   2
BRANCH   1  20
ATOM     19  N   UNL     1       0.688  -0.476  -1.203  0.00  0.00    -0.311 N 
ATOM     20  C   UNL     1       0.006  -0.608  -2.358  0.00  0.00    +0.231 C 
ATOM     21  O   UNL     1      -1.175  -0.336  -2.400  0.00  0.00    -0.274 OA
ATOM     22  H   UNL     1       1.632  -0.695  -1.170  0.00  0.00    +0.149 HD
BRANCH  19  24
ATOM     23  C   UNL     1      -0.019   1.526   0.010  0.00  0.00    +0.028 C 
ATOM     24  C   UNL     1       0.002  -0.004   0.002  0.00  0.00    +0.076 C 
BRANCH  24  25
ATOM     25  C   UNL     1       0.742  -0.511   1.242  0.00  0.00    -0.010 C 
ATOM     26  C   UNL     1       2.178   0.019   1.231  0.00  0.00    +0.012 C 
ATOM     27  C   UNL     1       2.917  -0.488   2.470  0.00  0.00    -0.010 C 
ATOM     28  C   UNL     1       2.201   0.005   3.729  0.00  0.00    +0.007 C 
ATOM     29  C   UNL     1       0.766  -0.524   3.740  0.00  0.00    -0.010 C 
ATOM     30  C   UNL     1       0.026  -0.018   2.500  0.00  0.00    +0.012 C 
ATOM     31  C   UNL     1       0.787  -2.054   3.732  0.00  0.00    +0.007 C 
ATOM     32  C   UNL     1       1.503  -2.548   2.473  0.00  0.00    -0.010 C 
ATOM     33  C   UNL     1       2.938  -2.018   2.462  0.00  0.00    +0.007 C 
ATOM     34  C   UNL     1       0.763  -2.041   1.233  0.00  0.00    +0.012 C 
ENDBRANCH  24  25
ENDBRANCH  19  24
ENDBRANCH   1  20
TORSDOF 5
