REMARK  Name = ZINC06281675
REMARK  7 active torsions:
REMARK  status: ('A' for Active; 'I' for Inactive)
REMARK    1  A    between atoms: C_1  and  C_2
REMARK    2  A    between atoms: C_9  and  C_14
REMARK    3  A    between atoms: C_14  and  C_16
REMARK    4  A    between atoms: C_14  and  N_67
REMARK    5  A    between atoms: N_20  and  C_21
REMARK    6  A    between atoms: C_21  and  C_22
REMARK    7  A    between atoms: N_30  and  C_33
REMARK                            x       y       z     vdW  Elec       q    Type
REMARK                         _______ _______ _______ _____ _____    ______ ____
ROOT
ATOM      1  C   UNL     1       3.645   2.281  -0.018  0.00  0.00    +0.039 C 
ENDROOT
BRANCH   1  10
ATOM      2  C   UNL     1       0.703  -4.527   0.766  0.00  0.00    +0.044 C 
ATOM      3  C   UNL     1       0.544  -3.038   0.595  0.00  0.00    -0.050 A 
ATOM      4  C   UNL     1      -0.728  -2.485   0.530  0.00  0.00    +0.005 A 
ATOM      5  C   UNL     1      -0.897  -1.127   0.373  0.00  0.00    +0.026 A 
ATOM      6  C   UNL     1       0.217  -0.299   0.279  0.00  0.00    +0.049 A 
ATOM      7  C   UNL     1       1.505  -0.863   0.345  0.00  0.00    -0.001 A 
ATOM      8  C   UNL     1       1.652  -2.245   0.504  0.00  0.00    +0.013 A 
ATOM      9  C   UNL     1       2.671   0.017   0.244  0.00  0.00    +0.017 A 
ATOM     10  C   UNL     1       2.467   1.348   0.090  0.00  0.00    +0.011 A 
ATOM     11  C   UNL     1       1.154   1.863   0.027  0.00  0.00    +0.251 A 
ATOM     12  O   UNL     1       0.993   3.063  -0.113  0.00  0.00    -0.268 OA
ATOM     13  N   UNL     1       0.077   1.063   0.120  0.00  0.00    -0.322 N 
ATOM     14  H   UNL     1      -0.811   1.450   0.070  0.00  0.00    +0.169 HD
ENDBRANCH   1  10
BRANCH   1  20
ATOM     15  C   UNL     1       4.679   4.248   0.944  0.00  0.00    -0.058 C 
ATOM     16  C   UNL     1       4.523   5.323   2.023  0.00  0.00    +0.086 C 
ATOM     17  N   UNL     1       4.507   4.685   3.347  0.00  0.00    -0.333 N 
ATOM     18  C   UNL     1       3.400   3.724   3.452  0.00  0.00    +0.086 C 
ATOM     19  C   UNL     1       3.557   2.650   2.374  0.00  0.00    -0.058 C 
ATOM     20  N   UNL     1       3.549   3.302   1.047  0.00  0.00    +0.391 N 
ATOM     21  H   UNL     1       2.669   3.819   0.935  0.00  0.00    -0.080 HD
BRANCH  17  22
ATOM     22  C   UNL     1       4.438   5.643   4.363  0.00  0.00    +0.030 A 
ATOM     23  C   UNL     1       3.407   5.597   5.293  0.00  0.00    +0.026 A 
ATOM     24  C   UNL     1       3.343   6.541   6.299  0.00  0.00    +0.040 A 
ATOM     25  C   UNL     1       4.300   7.540   6.375  0.00  0.00    +0.124 A 
ATOM     26  C   UNL     1       5.325   7.591   5.445  0.00  0.00    +0.040 A 
ATOM     27  C   UNL     1       5.396   6.645   4.441  0.00  0.00    +0.026 A 
ATOM     28  F   UNL     1       4.233   8.465   7.357  0.00  0.00    -0.205 F 
ENDBRANCH  17  22
ENDBRANCH   1  20
BRANCH   1  29
ATOM     29  C   UNL     1       3.621   2.969  -1.359  0.00  0.00    +0.143 A 
ATOM     30  N   UNL     1       2.823   3.942  -1.725  0.00  0.00    -0.115 NA
ATOM     31  N   UNL     1       3.111   4.258  -2.940  0.00  0.00    -0.023 NA
ATOM     32  N   UNL     1       4.072   3.511  -3.359  0.00  0.00    -0.044 NA
ATOM     33  N   UNL     1       4.418   2.707  -2.411  0.00  0.00    -0.228 N 
BRANCH  33  34
ATOM     34  C   UNL     1       5.476   1.696  -2.470  0.00  0.00    +0.178 C 
BRANCH  34  35
ATOM     35  C   UNL     1       4.891   0.373  -2.971  0.00  0.00    +0.140 C 
ATOM     36  C   UNL     1       6.006  -0.696  -3.094  0.00  0.00    +0.035 C 
ATOM     37  C   UNL     1       5.177  -2.002  -2.960  0.00  0.00    +0.031 C 
ATOM     38  C   UNL     1       4.067  -1.586  -1.972  0.00  0.00    +0.160 C 
ATOM     39  O   UNL     1       3.965  -0.158  -2.011  0.00  0.00    -0.375 OA
ENDBRANCH  34  35
ENDBRANCH  33  34
ENDBRANCH   1  29
TORSDOF 6
