REMARK  Name = ZINC31409182
REMARK  10 active torsions:
REMARK  status: ('A' for Active; 'I' for Inactive)
REMARK    1  A    between atoms: C_1  and  C_2
REMARK    2  A    between atoms: C_2  and  C_3
REMARK    3  A    between atoms: C_3  and  C_4
REMARK    4  A    between atoms: C_3  and  C_5
REMARK    5  A    between atoms: C_3  and  C_6
REMARK    6  A    between atoms: N_14  and  C_18
REMARK    7  A    between atoms: C_18  and  C_19
REMARK    8  A    between atoms: N_21  and  C_22
REMARK    9  A    between atoms: C_22  and  C_23
REMARK   10  A    between atoms: N_25  and  C_26
REMARK                            x       y       z     vdW  Elec       q    Type
REMARK                         _______ _______ _______ _____ _____    ______ ____
ROOT
ATOM      1  C   UNL     1      10.653   0.062  -2.620  0.00  0.00    -0.005 C 
ATOM      2  C   UNL     1       9.396  -0.674  -2.152  0.00  0.00    +0.006 C 
ATOM      3  C   UNL     1       9.266  -0.543  -0.632  0.00  0.00    +0.035 C 
ATOM      4  C   UNL     1       9.184   0.931  -0.253  0.00  0.00    +0.113 C 
ATOM      5  C   UNL     1      10.422   1.681  -0.732  0.00  0.00    +0.035 C 
ATOM      6  C   UNL     1      10.548   1.543  -2.251  0.00  0.00    +0.006 C 
ATOM      7  C   UNL     1       7.934   1.555  -0.831  0.00  0.00    +0.247 C 
ATOM      8  O   UNL     1       7.638   1.657  -2.002  0.00  0.00    -0.273 OA
ATOM      9  N   UNL     1       7.217   1.975   0.232  0.00  0.00    -0.215 N 
ATOM     10  C   UNL     1       7.842   1.708   1.385  0.00  0.00    +0.310 C 
ATOM     11  O   UNL     1       7.396   1.996   2.479  0.00  0.00    -0.252 OA
ATOM     12  N   UNL     1       9.020   1.081   1.198  0.00  0.00    -0.285 N 
ATOM     13  H   UNL     1       9.795   0.704   1.882  0.00  0.00    +0.151 HD
ENDROOT
BRANCH   1  14
ATOM     14  C   UNL     1      10.790  -0.077  -4.138  0.00  0.00    -0.032 C 
ATOM     15  C   UNL     1      10.898  -1.558  -4.507  0.00  0.00    +0.011 C 
ATOM     16  C   UNL     1       9.561   0.530  -4.818  0.00  0.00    +0.011 C 
BRANCH  14  18
ATOM     17  C   UNL     1      12.184   0.519  -6.123  0.00  0.00    +0.004 C 
ATOM     18  C   UNL     1      12.047   0.658  -4.606  0.00  0.00    +0.003 C 
ENDBRANCH  14  18
ENDBRANCH   1  14
BRANCH   9  19
ATOM     19  C   UNL     1       5.918   2.646   0.136  0.00  0.00    +0.213 C 
BRANCH  19  20
ATOM     20  C   UNL     1       4.818   1.616   0.159  0.00  0.00    +0.231 C 
ATOM     21  O   UNL     1       5.092   0.438   0.247  0.00  0.00    -0.274 OA
ATOM     22  N   UNL     1       3.530   2.004   0.082  0.00  0.00    -0.305 N 
ATOM     23  H   UNL     1       3.281   3.072   0.002  0.00  0.00    +0.149 HD
BRANCH  22  24
ATOM     24  C   UNL     1       2.460   1.003   0.104  0.00  0.00    +0.200 C 
BRANCH  24  25
ATOM     25  C   UNL     1       1.124   1.692   0.005  0.00  0.00    +0.234 C 
ATOM     26  O   UNL     1       1.070   2.901  -0.076  0.00  0.00    -0.274 OA
ATOM     27  N   UNL     1      -0.011   0.966   0.007  0.00  0.00    -0.284 N 
ATOM     28  H   UNL     1       0.039  -0.133   0.009  0.00  0.00    +0.155 HD
BRANCH  27  29
ATOM     29  C   UNL     1      -1.254   1.610   0.007  0.00  0.00    +0.036 A 
ATOM     30  C   UNL     1      -2.325   1.054   0.695  0.00  0.00    +0.026 A 
ATOM     31  C   UNL     1      -3.550   1.693   0.700  0.00  0.00    +0.043 A 
ATOM     32  C   UNL     1      -3.714   2.882   0.009  0.00  0.00    +0.159 A 
ATOM     33  C   UNL     1      -2.649   3.436  -0.684  0.00  0.00    +0.160 A 
ATOM     34  C   UNL     1      -1.420   2.802  -0.685  0.00  0.00    +0.064 A 
ATOM     35  F   UNL     1      -2.811   4.596  -1.357  0.00  0.00    -0.202 F 
ATOM     36  F   UNL     1      -4.915   3.502   0.011  0.00  0.00    -0.202 F 
ENDBRANCH  27  29
ENDBRANCH  24  25
ENDBRANCH  22  24
ENDBRANCH  19  20
ENDBRANCH   9  19
TORSDOF 7
