REMARK  Name = ZINC09600927
REMARK  10 active torsions:
REMARK  status: ('A' for Active; 'I' for Inactive)
REMARK    1  A    between atoms: C_1  and  C_2
REMARK    2  A    between atoms: C_5  and  N_8
REMARK    3  A    between atoms: N_8  and  C_9
REMARK    4  A    between atoms: N_8  and  S_27
REMARK    5  A    between atoms: C_9  and  C_10
REMARK    6  A    between atoms: N_12  and  C_13
REMARK    7  A    between atoms: C_14  and  C_26
REMARK    8  A    between atoms: N_15  and  C_25
REMARK    9  A    between atoms: N_16  and  C_19
REMARK   10  A    between atoms: S_27  and  C_30
REMARK                            x       y       z     vdW  Elec       q    Type
REMARK                         _______ _______ _______ _____ _____    ______ ____
ROOT
ATOM      1  C   UNL     1       5.495   0.006  -3.500  0.00  0.00    +0.227 C 
ENDROOT
BRANCH   1   2
ATOM      2  C   UNL     1       6.810  -0.244  -2.807  0.00  0.00    +0.237 C 
ATOM      3  O   UNL     1       7.064  -1.346  -2.368  0.00  0.00    -0.274 OA
ATOM      4  N   UNL     1       7.702   0.757  -2.674  0.00  0.00    -0.278 N 
ATOM      5  H   UNL     1       7.472   1.654  -2.962  0.00  0.00    +0.155 HD
BRANCH   4   6
ATOM      6  C   UNL     1       8.970   0.501  -2.115  0.00  0.00    +0.121 A 
ATOM      7  C   UNL     1       9.515   1.120  -1.045  0.00  0.00    +0.059 A 
ATOM      8  N   UNL     1      10.756   0.588  -0.816  0.00  0.00    -0.282 N 
ATOM      9  N   UNL     1      11.017  -0.398  -1.775  0.00  0.00    -0.216 N 
ATOM     10  C   UNL     1       9.946  -0.481  -2.591  0.00  0.00    +0.293 A 
ATOM     11  O   UNL     1       9.815  -1.232  -3.541  0.00  0.00    -0.264 OA
ATOM     12  C   UNL     1      11.668   0.989   0.259  0.00  0.00    +0.171 C 
ATOM     13  C   UNL     1       8.865   2.213  -0.236  0.00  0.00    +0.067 C 
BRANCH   9  14
ATOM     14  C   UNL     1      12.184  -1.163  -1.871  0.00  0.00    +0.067 A 
ATOM     15  C   UNL     1      13.426  -0.543  -1.839  0.00  0.00    +0.028 A 
ATOM     16  C   UNL     1      14.577  -1.301  -1.928  0.00  0.00    +0.002 A 
ATOM     17  C   UNL     1      14.493  -2.675  -2.061  0.00  0.00    +0.000 A 
ATOM     18  C   UNL     1      13.257  -3.295  -2.099  0.00  0.00    +0.002 A 
ATOM     19  C   UNL     1      12.103  -2.543  -2.004  0.00  0.00    +0.028 A 
ENDBRANCH   9  14
ENDBRANCH   4   6
ENDBRANCH   1   2
BRANCH   1  20
ATOM     20  N   UNL     1       4.709  -1.230  -3.515  0.00  0.00    -0.194 N 
BRANCH  20  25
ATOM     21  C   UNL     1       5.524  -5.062  -7.615  0.00  0.00    +0.044 C 
ATOM     22  C   UNL     1       5.307  -4.044  -6.526  0.00  0.00    -0.050 A 
ATOM     23  C   UNL     1       5.530  -4.388  -5.205  0.00  0.00    +0.005 A 
ATOM     24  C   UNL     1       5.333  -3.457  -4.204  0.00  0.00    +0.025 A 
ATOM     25  C   UNL     1       4.910  -2.174  -4.525  0.00  0.00    +0.052 A 
ATOM     26  C   UNL     1       4.681  -1.833  -5.852  0.00  0.00    +0.025 A 
ATOM     27  C   UNL     1       4.885  -2.767  -6.848  0.00  0.00    +0.005 A 
ENDBRANCH  20  25
BRANCH  20  28
ATOM     28  S   UNL     1       3.581  -1.508  -2.335  0.00  0.00    +0.075 S 
ATOM     29  O   UNL     1       4.021  -0.807  -1.180  0.00  0.00    -0.150 OA
ATOM     30  O   UNL     1       3.335  -2.908  -2.329  0.00  0.00    -0.150 OA
BRANCH  28  31
ATOM     31  C   UNL     1       2.084  -0.736  -2.852  0.00  0.00    +0.109 A 
ATOM     32  C   UNL     1       1.167  -1.443  -3.608  0.00  0.00    +0.029 A 
ATOM     33  C   UNL     1      -0.007  -0.837  -4.014  0.00  0.00    +0.002 A 
ATOM     34  C   UNL     1      -0.265   0.475  -3.665  0.00  0.00    +0.000 A 
ATOM     35  C   UNL     1       0.652   1.182  -2.909  0.00  0.00    +0.002 A 
ATOM     36  C   UNL     1       1.827   0.577  -2.503  0.00  0.00    +0.029 A 
ENDBRANCH  28  31
ENDBRANCH  20  28
ENDBRANCH   1  20
TORSDOF 7
