REMARK  Name = ZINC26954119
REMARK  5 active torsions:
REMARK  status: ('A' for Active; 'I' for Inactive)
REMARK    1  A    between atoms: C_4  and  C_7
REMARK    2  A    between atoms: C_7  and  N_8
REMARK    3  A    between atoms: N_18  and  C_30
REMARK    4  A    between atoms: N_21  and  N_22
REMARK    5  A    between atoms: C_23  and  C_24
REMARK                            x       y       z     vdW  Elec       q    Type
REMARK                         _______ _______ _______ _____ _____    ______ ____
ROOT
ATOM      1  N   UNL     1       2.610   2.063  -2.874  0.00  0.00    +0.386 N 
ATOM      2  C   UNL     1       3.906   2.700  -2.596  0.00  0.00    -0.073 C 
ATOM      3  C   UNL     1       4.501   3.263  -3.889  0.00  0.00    +0.018 C 
ATOM      4  C   UNL     1       3.448   4.141  -4.559  0.00  0.00    -0.026 A 
ATOM      5  C   UNL     1       2.147   4.020  -4.201  0.00  0.00    -0.021 A 
ATOM      6  S   UNL     1       1.278   5.200  -5.199  0.00  0.00    -0.075 S 
ATOM      7  C   UNL     1       2.655   5.852  -6.092  0.00  0.00    +0.117 A 
ATOM      8  C   UNL     1       3.755   5.125  -5.581  0.00  0.00    +0.076 A 
ATOM      9  C   UNL     1       5.048   5.430  -6.118  0.00  0.00    +0.268 A 
ATOM     10  O   UNL     1       6.056   4.857  -5.742  0.00  0.00    -0.266 OA
ATOM     11  N   UNL     1       5.081   6.392  -7.070  0.00  0.00    -0.247 N 
ATOM     12  C   UNL     1       3.965   7.045  -7.504  0.00  0.00    +0.224 A 
ATOM     13  N   UNL     1       2.755   6.787  -7.029  0.00  0.00    -0.207 NA
ATOM     14  N   UNL     1       4.101   8.008  -8.474  0.00  0.00    -0.206 N 
ATOM     15  C   UNL     1       1.587   3.081  -3.179  0.00  0.00    -0.035 C 
ATOM     16  H   UNL     1       5.096   8.245  -8.879  0.00  0.00    +0.177 HD
ATOM     17  H   UNL     1       2.730   1.416  -3.755  0.00  0.00    -0.081 HD
ENDROOT
BRANCH  11  18
ATOM     18  C   UNL     1       6.317   6.733  -7.633  0.00  0.00    +0.053 A 
ATOM     19  C   UNL     1       6.775   6.067  -8.763  0.00  0.00    +0.026 A 
ATOM     20  C   UNL     1       7.991   6.410  -9.319  0.00  0.00    +0.002 A 
ATOM     21  C   UNL     1       8.759   7.408  -8.747  0.00  0.00    +0.000 A 
ATOM     22  C   UNL     1       8.309   8.069  -7.619  0.00  0.00    +0.002 A 
ATOM     23  C   UNL     1       7.090   7.735  -7.061  0.00  0.00    +0.026 A 
ENDBRANCH  11  18
BRANCH  14  24
ATOM     24  N   UNL     1       2.971   8.688  -8.949  0.00  0.00    -0.188 NA
ATOM     25  C   UNL     1       3.099   9.598  -9.866  0.00  0.00    +0.138 C 
BRANCH  25  26
ATOM     26  C   UNL     1       1.911  10.314 -10.365  0.00  0.00    -0.005 A 
ATOM     27  C   UNL     1       0.645  10.011  -9.858  0.00  0.00    +0.009 A 
ATOM     28  C   UNL     1      -0.462  10.689 -10.326  0.00  0.00    +0.001 A 
ATOM     29  C   UNL     1      -0.322  11.658 -11.303  0.00  0.00    +0.000 A 
ATOM     30  C   UNL     1       0.929  11.959 -11.814  0.00  0.00    +0.001 A 
ATOM     31  C   UNL     1       2.045  11.294 -11.351  0.00  0.00    +0.009 A 
ENDBRANCH  25  26
ENDBRANCH  14  24
BRANCH   1  32
ATOM     32  C   UNL     1       2.190   1.214  -1.751  0.00  0.00    -0.043 C 
BRANCH  32  36
ATOM     33  C   UNL     1      -1.856  -0.021  -2.344  0.00  0.00    +0.000 A 
ATOM     34  C   UNL     1      -0.819  -0.792  -2.834  0.00  0.00    +0.000 A 
ATOM     35  C   UNL     1       0.490  -0.392  -2.644  0.00  0.00    +0.002 A 
ATOM     36  C   UNL     1       0.763   0.777  -1.959  0.00  0.00    -0.064 A 
ATOM     37  C   UNL     1      -0.274   1.546  -1.463  0.00  0.00    +0.002 A 
ATOM     38  C   UNL     1      -1.583   1.145  -1.654  0.00  0.00    +0.000 A 
ENDBRANCH  32  36
ENDBRANCH   1  32
TORSDOF 5
