REMARK  Name = ZINC01170439
REMARK  5 active torsions:
REMARK  status: ('A' for Active; 'I' for Inactive)
REMARK    1  A    between atoms: C_3  and  C_10
REMARK    2  A    between atoms: C_5  and  N_7
REMARK    3  A    between atoms: C_10  and  C_12
REMARK    4  A    between atoms: N_20  and  C_23
REMARK    5  A    between atoms: C_28  and  O_29
REMARK                            x       y       z     vdW  Elec       q    Type
REMARK                         _______ _______ _______ _____ _____    ______ ____
ROOT
ATOM      1  C   UNL     1       1.205   1.797   0.200  0.00  0.00    +0.023 A 
ATOM      2  C   UNL     1       1.215   3.170   0.448  0.00  0.00    +0.012 A 
ATOM      3  C   UNL     1       0.027   3.851   0.650  0.00  0.00    +0.014 A 
ATOM      4  C   UNL     1      -1.178   3.168   0.606  0.00  0.00    +0.050 A 
ATOM      5  C   UNL     1      -1.195   1.781   0.351  0.00  0.00    +0.050 A 
ATOM      6  C   UNL     1      -0.007   1.100   0.154  0.00  0.00    +0.025 A 
ATOM      7  C   UNL     1      -2.618   1.382   0.379  0.00  0.00    +0.258 C 
ATOM      8  O   UNL     1      -3.042   0.257   0.204  0.00  0.00    -0.269 OA
ATOM      9  N   UNL     1      -3.365   2.473   0.626  0.00  0.00    -0.199 N 
ATOM     10  C   UNL     1      -2.595   3.565   0.772  0.00  0.00    +0.258 C 
ATOM     11  O   UNL     1      -2.994   4.689   1.001  0.00  0.00    -0.269 OA
ENDROOT
BRANCH   9  12
ATOM     12  C   UNL     1      -4.766   2.471   0.718  0.00  0.00    +0.087 A 
ATOM     13  C   UNL     1      -5.537   2.689  -0.413  0.00  0.00    +0.047 A 
ATOM     14  C   UNL     1      -6.917   2.683  -0.321  0.00  0.00    +0.043 A 
ATOM     15  C   UNL     1      -7.530   2.469   0.901  0.00  0.00    +0.023 A 
ATOM     16  C   UNL     1      -6.767   2.257   2.034  0.00  0.00    +0.049 A 
ATOM     17  C   UNL     1      -5.384   2.256   1.948  0.00  0.00    +0.139 A 
ATOM     18 CL   UNL     1      -7.881   2.949  -1.740  0.00  0.00    -0.083 Cl
BRANCH  17  19
ATOM     19  O   UNL     1      -4.632   2.047   3.061  0.00  0.00    -0.505 OA
ATOM     20  H   UNL     1      -4.404   2.855   3.540  0.00  0.00    +0.292 HD
ENDBRANCH  17  19
ENDBRANCH   9  12
BRANCH   1  21
ATOM     21  C   UNL     1       2.479   1.077  -0.015  0.00  0.00    +0.193 C 
ATOM     22  O   UNL     1       2.486  -0.136  -0.094  0.00  0.00    -0.287 OA
BRANCH  21  25
ATOM     23  C   UNL     1       4.938   3.791  -0.847  0.00  0.00    +0.003 A 
ATOM     24  C   UNL     1       3.755   3.089  -0.743  0.00  0.00    +0.012 A 
ATOM     25  C   UNL     1       3.743   1.832  -0.135  0.00  0.00    +0.024 A 
ATOM     26  C   UNL     1       4.934   1.289   0.355  0.00  0.00    +0.044 A 
ATOM     27  C   UNL     1       6.110   1.999   0.239  0.00  0.00    +0.127 A 
ATOM     28  C   UNL     1       6.113   3.247  -0.360  0.00  0.00    +0.033 A 
BRANCH  27  29
ATOM     29  N   UNL     1       7.373   1.426   0.757  0.00  0.00    +0.056 N 
ATOM     30  O   UNL     1       7.372   0.328   1.285  0.00  0.00    -0.126 OA
ATOM     31  O   UNL     1       8.413   2.052   0.656  0.00  0.00    -0.126 OA
ENDBRANCH  27  29
ENDBRANCH  21  25
ENDBRANCH   1  21
TORSDOF 5
