REMARK  Name = ZINC33780836
REMARK  8 active torsions:
REMARK  status: ('A' for Active; 'I' for Inactive)
REMARK    1  A    between atoms: C_2  and  C_3
REMARK    2  A    between atoms: C_3  and  N_4
REMARK    3  A    between atoms: C_7  and  C_22
REMARK    4  A    between atoms: N_11  and  N_12
REMARK    5  A    between atoms: C_13  and  C_15
REMARK    6  A    between atoms: C_20  and  O_21
REMARK    7  A    between atoms: C_22  and  C_23
REMARK    8  A    between atoms: N_25  and  C_26
REMARK                            x       y       z     vdW  Elec       q    Type
REMARK                         _______ _______ _______ _____ _____    ______ ____
ROOT
ATOM      1  N   UNL     1       1.373  -1.663   1.115  0.00  0.00    -0.245 N 
ATOM      2  C   UNL     1       1.863  -1.253   2.272  0.00  0.00    +0.235 C 
ATOM      3  O   UNL     1       2.275  -0.124   2.432  0.00  0.00    -0.274 OA
ATOM      4  C   UNL     1       1.876  -2.282   3.390  0.00  0.00    +0.149 C 
ATOM      5  S   UNL     1       1.142  -3.728   2.519  0.00  0.00    -0.075 S 
ATOM      6  C   UNL     1       0.895  -2.952   0.929  0.00  0.00    +0.181 C 
ATOM      7  N   UNL     1       0.387  -3.474  -0.150  0.00  0.00    -0.157 NA
ENDROOT
BRANCH   7   8
ATOM      8  N   UNL     1      -0.047  -4.806  -0.147  0.00  0.00    -0.201 N 
ATOM      9  C   UNL     1      -0.573  -5.346  -1.264  0.00  0.00    +0.267 C 
ATOM     10  O   UNL     1      -0.671  -4.677  -2.276  0.00  0.00    -0.268 OA
ATOM     11  H   UNL     1       0.031  -5.340   0.659  0.00  0.00    +0.178 HD
BRANCH   9  12
ATOM     12  C   UNL     1      -1.030  -6.749  -1.261  0.00  0.00    +0.080 A 
ATOM     13  C   UNL     1      -0.924  -7.520  -0.101  0.00  0.00    +0.017 A 
ATOM     14  C   UNL     1      -1.353  -8.829  -0.104  0.00  0.00    +0.001 A 
ATOM     15  C   UNL     1      -1.888  -9.387  -1.254  0.00  0.00    +0.004 A 
ATOM     16  C   UNL     1      -1.998  -8.636  -2.407  0.00  0.00    +0.046 A 
ATOM     17  C   UNL     1      -1.577  -7.315  -2.420  0.00  0.00    +0.129 A 
BRANCH  17  18
ATOM     18  O   UNL     1      -1.690  -6.575  -3.552  0.00  0.00    -0.506 OA
ATOM     19  H   UNL     1      -0.917  -6.623  -4.132  0.00  0.00    +0.292 HD
ENDBRANCH  17  18
ENDBRANCH   9  12
ENDBRANCH   7   8
BRANCH   1  20
ATOM     20  C   UNL     1       1.329  -0.723  -0.008  0.00  0.00    +0.142 C 
BRANCH  20  22
ATOM     21  C   UNL     1       0.010   1.331   0.022  0.00  0.00    +0.005 C 
ATOM     22  C   UNL     1       0.019   0.021   0.011  0.00  0.00    -0.015 C 
ENDBRANCH  20  22
ENDBRANCH   1  20
BRANCH   4  23
ATOM     23  C   UNL     1       1.001  -1.838   4.563  0.00  0.00    +0.120 C 
BRANCH  23  24
ATOM     24  C   UNL     1       1.139  -2.824   5.695  0.00  0.00    +0.219 C 
ATOM     25  O   UNL     1       1.866  -3.787   5.575  0.00  0.00    -0.275 OA
ATOM     26  N   UNL     1       0.454  -2.635   6.840  0.00  0.00    -0.285 N 
ATOM     27  H   UNL     1      -0.074  -1.831   6.962  0.00  0.00    +0.155 HD
BRANCH  26  28
ATOM     28  C   UNL     1       0.506  -3.599   7.854  0.00  0.00    +0.033 A 
ATOM     29  C   UNL     1      -0.615  -3.850   8.633  0.00  0.00    +0.024 A 
ATOM     30  C   UNL     1      -0.561  -4.802   9.632  0.00  0.00    +0.017 A 
ATOM     31  C   UNL     1       0.609  -5.505   9.857  0.00  0.00    +0.018 A 
ATOM     32  C   UNL     1       1.728  -5.256   9.082  0.00  0.00    +0.017 A 
ATOM     33  C   UNL     1       1.678  -4.309   8.078  0.00  0.00    +0.024 A 
ATOM     34 BR   UNL     1       0.679  -6.808  11.226  0.00  0.00    -0.050 Br
ENDBRANCH  26  28
ENDBRANCH  23  24
ENDBRANCH   4  23
TORSDOF 8
