REMARK  Name = ZINC35777524
REMARK  18 active torsions:
REMARK  status: ('A' for Active; 'I' for Inactive)
REMARK    1  A    between atoms: C_1  and  C_2
REMARK    2  A    between atoms: C_2  and  C_3
REMARK    3  A    between atoms: C_4  and  C_22
REMARK    4  A    between atoms: C_5  and  O_14
REMARK    5  A    between atoms: N_6  and  C_8
REMARK    6  A    between atoms: O_14  and  C_15
REMARK    7  A    between atoms: C_22  and  N_23
REMARK    8  A    between atoms: N_23  and  C_24
REMARK    9  A    between atoms: N_23  and  C_31
REMARK   10  A    between atoms: C_24  and  C_25
REMARK   11  A    between atoms: C_31  and  C_32
REMARK   12  A    between atoms: C_32  and  C_34
REMARK   13  A    between atoms: C_32  and  O_40
REMARK   14  A    between atoms: C_34  and  O_35
REMARK   15  A    between atoms: O_35  and  C_36
REMARK   16  A    between atoms: C_36  and  C_37
REMARK   17  A    between atoms: C_36  and  C_38
REMARK   18  A    between atoms: C_36  and  C_39
REMARK                            x       y       z     vdW  Elec       q    Type
REMARK                         _______ _______ _______ _____ _____    ______ ____
ROOT
ATOM      1  C   UNL     1      -3.599  -2.676   3.313  0.00  0.00    +0.068 A 
ATOM      2  C   UNL     1      -2.480  -1.875   3.061  0.00  0.00    +0.021 A 
ATOM      3  C   UNL     1      -1.628  -2.006   4.113  0.00  0.00    +0.225 A 
ATOM      4  N   UNL     1      -2.200  -2.866   4.998  0.00  0.00    -0.200 N 
ATOM      5  N   UNL     1      -3.435  -3.264   4.471  0.00  0.00    -0.168 NA
ENDROOT
BRANCH   4   6
ATOM      6  C   UNL     1      -1.653  -3.276   6.221  0.00  0.00    +0.069 A 
ATOM      7  C   UNL     1      -0.313  -3.634   6.300  0.00  0.00    +0.028 A 
ATOM      8  C   UNL     1       0.223  -4.038   7.507  0.00  0.00    +0.002 A 
ATOM      9  C   UNL     1      -0.573  -4.087   8.636  0.00  0.00    +0.000 A 
ATOM     10  C   UNL     1      -1.907  -3.732   8.562  0.00  0.00    +0.002 A 
ATOM     11  C   UNL     1      -2.448  -3.321   7.359  0.00  0.00    +0.028 A 
ENDBRANCH   4   6
BRANCH   1  13
ATOM     12  C   UNL     1      -5.807  -1.725   2.707  0.00  0.00    +0.010 C 
ATOM     13  C   UNL     1      -4.793  -2.831   2.407  0.00  0.00    +0.054 C 
ENDBRANCH   1  13
BRANCH   3  14
ATOM     14  O   UNL     1      -0.426  -1.390   4.253  0.00  0.00    -0.435 OA
BRANCH  14  15
ATOM     15  C   UNL     1       0.656  -1.962   3.662  0.00  0.00    +0.165 A 
ATOM     16  C   UNL     1       0.498  -3.078   2.854  0.00  0.00    +0.049 A 
ATOM     17  C   UNL     1       1.599  -3.657   2.253  0.00  0.00    +0.004 A 
ATOM     18  C   UNL     1       2.860  -3.125   2.457  0.00  0.00    +0.003 A 
ATOM     19  C   UNL     1       3.022  -2.013   3.261  0.00  0.00    +0.042 A 
ATOM     20  C   UNL     1       1.922  -1.425   3.861  0.00  0.00    +0.165 A 
ATOM     21  F   UNL     1       2.080  -0.335   4.643  0.00  0.00    -0.202 F 
ENDBRANCH  14  15
ENDBRANCH   3  14
BRANCH   2  22
ATOM     22  C   UNL     1      -2.259  -1.019   1.841  0.00  0.00    -0.036 C 
BRANCH  22  23
ATOM     23  N   UNL     1      -2.857   0.305   2.056  0.00  0.00    +0.386 N 
ATOM     24  H   UNL     1      -3.814   0.196   2.357  0.00  0.00    -0.081 HD
BRANCH  23  25
ATOM     25  C   UNL     1      -2.821   1.068   0.801  0.00  0.00    -0.046 C 
BRANCH  25  26
ATOM     26  C   UNL     1      -1.367   1.317   0.397  0.00  0.00    +0.102 C 
ATOM     27  C   UNL     1      -1.317   2.256  -0.827  0.00  0.00    +0.032 C 
ATOM     28  C   UNL     1      -0.163   1.643  -1.666  0.00  0.00    +0.030 C 
ATOM     29  C   UNL     1      -0.343   0.136  -1.357  0.00  0.00    +0.160 C 
ATOM     30  O   UNL     1      -0.748   0.081   0.022  0.00  0.00    -0.378 OA
ENDBRANCH  25  26
ENDBRANCH  23  25
BRANCH  23  31
ATOM     31  C   UNL     1      -2.098   1.024   3.088  0.00  0.00    -0.044 C 
BRANCH  31  32
ATOM     32  C   UNL     1      -2.808   2.337   3.421  0.00  0.00    +0.124 C 
BRANCH  32  33
ATOM     33  O   UNL     1      -2.702   3.231   2.311  0.00  0.00    -0.391 OA
ATOM     34  H   UNL     1      -1.792   3.452   2.070  0.00  0.00    +0.210 HD
ENDBRANCH  32  33
BRANCH  32  35
ATOM     35  C   UNL     1      -2.156   2.972   4.651  0.00  0.00    +0.189 C 
BRANCH  35  36
ATOM     36  O   UNL     1      -2.890   4.137   5.032  0.00  0.00    -0.372 OA
BRANCH  36  37
ATOM     37  C   UNL     1      -2.361   4.809   6.177  0.00  0.00    +0.061 C 
ATOM     38  C   UNL     1      -0.926   5.254   5.889  0.00  0.00    +0.041 C 
ATOM     39  C   UNL     1      -3.222   6.034   6.492  0.00  0.00    +0.041 C 
ATOM     40  C   UNL     1      -2.370   3.857   7.376  0.00  0.00    +0.041 C 
ENDBRANCH  36  37
ENDBRANCH  35  36
ENDBRANCH  32  35
ENDBRANCH  31  32
ENDBRANCH  23  31
ENDBRANCH  22  23
ENDBRANCH   2  22
TORSDOF 14
