REMARK  Name = ZINC04147850
REMARK  11 active torsions:
REMARK  status: ('A' for Active; 'I' for Inactive)
REMARK    1  A    between atoms: C_1  and  C_2
REMARK    2  A    between atoms: C_2  and  N_3
REMARK    3  A    between atoms: C_7  and  C_9
REMARK    4  A    between atoms: C_9  and  N_10
REMARK    5  A    between atoms: C_11  and  C_13
REMARK    6  A    between atoms: C_13  and  C_15
REMARK    7  A    between atoms: C_13  and  N_18
REMARK    8  A    between atoms: C_15  and  C_16
REMARK    9  A    between atoms: C_15  and  C_17
REMARK   10  A    between atoms: C_19  and  C_21
REMARK   11  A    between atoms: C_24  and  C_27
REMARK                            x       y       z     vdW  Elec       q    Type
REMARK                         _______ _______ _______ _____ _____    ______ ____
ROOT
ATOM      1  N   UNL     1      -4.481  -2.172   1.913  0.00  0.00    -0.300 N 
ATOM      2  C   UNL     1      -5.485  -1.398   2.371  0.00  0.00    +0.245 C 
ATOM      3  O   UNL     1      -5.804  -0.394   1.765  0.00  0.00    -0.270 OA
ATOM      4  H   UNL     1      -4.227  -2.973   2.397  0.00  0.00    +0.150 HD
ENDROOT
BRANCH   2   5
ATOM      5  C   UNL     1      -6.198  -1.770   3.612  0.00  0.00    +0.037 A 
ATOM      6  C   UNL     1      -5.831  -2.919   4.314  0.00  0.00    +0.013 A 
ATOM      7  C   UNL     1      -6.500  -3.260   5.471  0.00  0.00    +0.005 A 
ATOM      8  C   UNL     1      -7.534  -2.467   5.935  0.00  0.00    -0.041 A 
ATOM      9  C   UNL     1      -7.904  -1.327   5.244  0.00  0.00    +0.005 A 
ATOM     10  C   UNL     1      -7.238  -0.971   4.089  0.00  0.00    +0.013 A 
BRANCH   8  11
ATOM     11  C   UNL     1      -8.261  -2.846   7.200  0.00  0.00    -0.003 C 
ATOM     12  C   UNL     1      -7.270  -2.886   8.365  0.00  0.00    +0.015 C 
ATOM     13  C   UNL     1      -8.008  -3.271   9.649  0.00  0.00    -0.010 C 
ATOM     14  C   UNL     1      -9.098  -2.238   9.941  0.00  0.00    +0.007 C 
ATOM     15  C   UNL     1     -10.088  -2.198   8.775  0.00  0.00    -0.010 C 
ATOM     16  C   UNL     1      -9.350  -1.813   7.491  0.00  0.00    +0.015 C 
ATOM     17  C   UNL     1     -10.727  -3.577   8.602  0.00  0.00    +0.007 C 
ATOM     18  C   UNL     1      -9.638  -4.611   8.310  0.00  0.00    -0.010 C 
ATOM     19  C   UNL     1      -8.647  -4.651   9.475  0.00  0.00    +0.007 C 
ATOM     20  C   UNL     1      -8.900  -4.226   7.026  0.00  0.00    +0.015 C 
ENDBRANCH   8  11
ENDBRANCH   2   5
BRANCH   1  21
ATOM     21  C   UNL     1      -3.775  -1.803   0.684  0.00  0.00    +0.162 C 
BRANCH  21  23
ATOM     22  N   UNL     1      -1.389  -1.798   0.028  0.00  0.00    -0.315 N 
ATOM     23  C   UNL     1      -2.390  -2.397   0.703  0.00  0.00    +0.234 C 
ATOM     24  O   UNL     1      -2.176  -3.416   1.325  0.00  0.00    -0.274 OA
ATOM     25  H   UNL     1      -1.575  -1.026  -0.529  0.00  0.00    +0.149 HD
BRANCH  22  26
ATOM     26  C   UNL     1      -0.022  -2.311   0.136  0.00  0.00    +0.089 C 
BRANCH  26  31
ATOM     27  N   UNL     1       2.321  -1.853  -0.459  0.00  0.00    +0.382 N 
ATOM     28  C   UNL     1       2.861  -2.200  -1.791  0.00  0.00    -0.078 C 
ATOM     29  C   UNL     1       2.015  -1.370  -2.789  0.00  0.00    -0.020 C 
ATOM     30  C   UNL     1       0.611  -1.424  -2.131  0.00  0.00    -0.016 C 
ATOM     31  C   UNL     1       0.932  -1.386  -0.622  0.00  0.00    -0.051 C 
ATOM     32  H   UNL     1       2.880  -1.121  -0.048  0.00  0.00    -0.081 HD
BRANCH  27  34
ATOM     33  C   UNL     1       3.793  -3.463   0.653  0.00  0.00    -0.017 C 
ATOM     34  C   UNL     1       2.344  -3.039   0.408  0.00  0.00    -0.082 C 
ENDBRANCH  27  34
ENDBRANCH  26  31
ENDBRANCH  22  26
ENDBRANCH  21  23
BRANCH  21  35
ATOM     35  C   UNL     1      -4.543  -2.338  -0.526  0.00  0.00    +0.012 C 
ATOM     36  C   UNL     1      -5.908  -1.651  -0.608  0.00  0.00    +0.009 C 
ATOM     37  C   UNL     1      -3.750  -2.049  -1.802  0.00  0.00    +0.009 C 
ENDBRANCH  21  35
ENDBRANCH   1  21
TORSDOF 8
