REMARK  Name = ZINC20704197
REMARK  4 active torsions:
REMARK  status: ('A' for Active; 'I' for Inactive)
REMARK    1  A    between atoms: C_4  and  N_33
REMARK    2  A    between atoms: C_6  and  C_7
REMARK    3  A    between atoms: C_18  and  S_23
REMARK    4  A    between atoms: S_23  and  N_26
REMARK                            x       y       z     vdW  Elec       q    Type
REMARK                         _______ _______ _______ _____ _____    ______ ____
ROOT
ATOM      1  C   UNL     1       2.451   3.936  -0.001  0.00  0.00    +0.105 C 
ATOM      2  C   UNL     1       3.077   3.894  -1.384  0.00  0.00    +0.029 C 
ATOM      3  C   UNL     1       2.197   4.331  -2.563  0.00  0.00    +0.033 C 
ATOM      4  C   UNL     1       2.780   3.499  -3.707  0.00  0.00    -0.030 C 
ATOM      5  C   UNL     1       3.350   2.401  -3.225  0.00  0.00    -0.023 C 
ATOM      6  C   UNL     1       3.173   2.383  -1.751  0.00  0.00    +0.049 C 
ATOM      7  C   UNL     1       4.166   1.759  -0.850  0.00  0.00    -0.018 A 
ATOM      8  C   UNL     1       5.002   0.743  -1.260  0.00  0.00    +0.034 A 
ATOM      9  C   UNL     1       5.904   0.181  -0.376  0.00  0.00    +0.106 A 
ATOM     10  C   UNL     1       5.969   0.638   0.928  0.00  0.00    +0.030 A 
ATOM     11  C   UNL     1       5.141   1.659   1.347  0.00  0.00    +0.025 A 
ATOM     12  C   UNL     1       4.237   2.236   0.463  0.00  0.00    +0.031 A 
ATOM     13  N   UNL     1       3.433   3.296   0.901  0.00  0.00    -0.336 N 
ATOM     14  H   UNL     1       3.542   3.651   1.936  0.00  0.00    +0.147 HD
ENDROOT
BRANCH   1  20
ATOM     15  C   UNL     1      -0.028   3.801  -0.315  0.00  0.00    +0.007 A 
ATOM     16  C   UNL     1      -1.216   3.095  -0.307  0.00  0.00    +0.022 A 
ATOM     17  C   UNL     1      -1.220   1.753   0.029  0.00  0.00    +0.071 A 
ATOM     18  C   UNL     1      -0.034   1.116   0.348  0.00  0.00    +0.145 A 
ATOM     19  C   UNL     1       1.153   1.823   0.339  0.00  0.00    +0.039 A 
ATOM     20  C   UNL     1       1.156   3.165   0.007  0.00  0.00    -0.025 A 
ATOM     21 CL   UNL     1      -2.713   0.867   0.047  0.00  0.00    -0.081 Cl
BRANCH  18  22
ATOM     22  N   UNL     1      -0.037  -0.321   0.702  0.00  0.00    +0.058 N 
ATOM     23  O   UNL     1       1.007  -0.880   0.986  0.00  0.00    -0.126 OA
ATOM     24  O   UNL     1      -1.083  -0.944   0.710  0.00  0.00    -0.126 OA
ENDBRANCH  18  22
ENDBRANCH   1  20
BRANCH   9  25
ATOM     25  S   UNL     1       6.969  -1.118  -0.909  0.00  0.00    +0.061 S 
ATOM     26  O   UNL     1       7.339  -1.843   0.256  0.00  0.00    -0.153 OA
ATOM     27  O   UNL     1       6.332  -1.735  -2.020  0.00  0.00    -0.153 OA
BRANCH  25  28
ATOM     28  N   UNL     1       8.351  -0.412  -1.487  0.00  0.00    -0.177 NA
ATOM     29  C   UNL     1       8.418  -0.066  -2.889  0.00  0.00    +0.109 C 
ATOM     30  C   UNL     1       8.969  -1.259  -3.698  0.00  0.00    +0.017 C 
ATOM     31  C   UNL     1      10.402  -1.444  -3.424  0.00  0.00    +0.001 C 
ATOM     32  C   UNL     1      10.725  -1.789  -1.973  0.00  0.00    +0.001 C 
ATOM     33  C   UNL     1      10.830  -0.517  -1.169  0.00  0.00    +0.017 C 
ATOM     34  C   UNL     1       9.465  -0.167  -0.550  0.00  0.00    +0.109 C 
ENDBRANCH  25  28
ENDBRANCH   9  25
TORSDOF 4
