REMARK  Name = ZINC54540058
REMARK  9 active torsions:
REMARK  status: ('A' for Active; 'I' for Inactive)
REMARK    1  A    between atoms: C_1  and  C_2
REMARK    2  A    between atoms: C_5  and  C_24
REMARK    3  A    between atoms: N_8  and  C_10
REMARK    4  A    between atoms: C_10  and  C_11
REMARK    5  A    between atoms: C_10  and  C_12
REMARK    6  A    between atoms: C_10  and  C_13
REMARK    7  A    between atoms: C_13  and  N_14
REMARK    8  A    between atoms: N_17  and  C_18
REMARK    9  A    between atoms: C_18  and  C_19
REMARK                            x       y       z     vdW  Elec       q    Type
REMARK                         _______ _______ _______ _____ _____    ______ ____
ROOT
ATOM      1  C   UNL     1       2.993  -2.028   2.239  0.00  0.00    +0.093 C 
ENDROOT
BRANCH   1   2
ATOM      2  N   UNL     1       3.474  -2.390   0.904  0.00  0.00    -0.301 N 
ATOM      3  C   UNL     1       4.768  -2.196   0.578  0.00  0.00    +0.300 C 
ATOM      4  O   UNL     1       5.535  -1.721   1.393  0.00  0.00    -0.253 OA
ATOM      5  N   UNL     1       5.210  -2.529  -0.651  0.00  0.00    -0.295 N 
ATOM      6  H   UNL     1       2.862  -2.769   0.254  0.00  0.00    +0.150 HD
ATOM      7  H   UNL     1       4.598  -2.908  -1.301  0.00  0.00    +0.151 HD
BRANCH   5   8
ATOM      8  C   UNL     1       6.616  -2.318  -1.005  0.00  0.00    +0.148 C 
BRANCH   8   9
ATOM      9  C   UNL     1       6.850  -2.768  -2.424  0.00  0.00    +0.007 A 
ATOM     10  C   UNL     1       6.756  -2.055  -3.572  0.00  0.00    +0.013 A 
ATOM     11  C   UNL     1       7.019  -2.683  -4.775  0.00  0.00    +0.008 A 
ATOM     12  C   UNL     1       7.364  -3.994  -4.770  0.00  0.00    +0.045 A 
ATOM     13  S   UNL     1       7.331  -4.378  -3.027  0.00  0.00    -0.100 S 
ENDBRANCH   8   9
ENDBRANCH   5   8
ENDBRANCH   1   2
BRANCH   1  14
ATOM     14  C   UNL     1       1.478  -2.227   2.306  0.00  0.00    -0.055 C 
ATOM     15  C   UNL     1       0.963  -1.768   3.672  0.00  0.00    -0.008 C 
ATOM     16  C   UNL     1       1.148  -3.707   2.108  0.00  0.00    -0.008 C 
BRANCH  14  22
ATOM     17  C   UNL     1       0.932   2.275   0.461  0.00  0.00    +0.005 C 
ATOM     18  C   UNL     1       0.574   0.799   0.277  0.00  0.00    -0.031 C 
ATOM     19  C   UNL     1      -0.949   0.636   0.288  0.00  0.00    +0.003 C 
ATOM     20  C   UNL     1      -1.294  -0.852   0.182  0.00  0.00    -0.031 C 
ATOM     21  C   UNL     1      -0.623  -1.609   1.330  0.00  0.00    -0.075 C 
ATOM     22  N   UNL     1       0.833  -1.436   1.250  0.00  0.00    +0.384 N 
ATOM     23  C   UNL     1       1.177  -0.019   1.421  0.00  0.00    -0.075 C 
ATOM     24  C   UNL     1      -0.791  -1.399  -1.155  0.00  0.00    +0.005 C 
ATOM     25  H   UNL     1       1.159  -1.753   0.349  0.00  0.00    -0.081 HD
ENDBRANCH  14  22
ENDBRANCH   1  14
TORSDOF 5
