REMARK  Name = ZINC21944540
REMARK  6 active torsions:
REMARK  status: ('A' for Active; 'I' for Inactive)
REMARK    1  A    between atoms: C_1  and  C_2
REMARK    2  A    between atoms: C_2  and  O_3
REMARK    3  A    between atoms: O_3  and  C_4
REMARK    4  A    between atoms: C_4  and  C_6
REMARK    5  A    between atoms: C_6  and  C_7
REMARK    6  A    between atoms: C_7  and  N_13
REMARK                            x       y       z     vdW  Elec       q    Type
REMARK                         _______ _______ _______ _____ _____    ______ ____
ROOT
ATOM      1  N   UNL     1      -0.719  10.583   1.495  0.00  0.00    -0.293 N 
ATOM      2  C   UNL     1      -0.753   9.343   2.023  0.00  0.00    +0.303 C 
ATOM      3  O   UNL     1      -0.971   9.193   3.209  0.00  0.00    -0.253 OA
ATOM      4  N   UNL     1      -0.545   8.269   1.235  0.00  0.00    -0.285 N 
ATOM      5  C   UNL     1      -0.469   6.921   1.813  0.00  0.00    +0.112 C 
ATOM      6  C   UNL     1       0.839   6.263   1.361  0.00  0.00    +0.051 C 
ATOM      7  C   UNL     1       0.925   6.304  -0.165  0.00  0.00    +0.075 C 
ATOM      8  C   UNL     1       0.918   7.754  -0.648  0.00  0.00    +0.051 C 
ATOM      9  C   UNL     1      -0.390   8.426  -0.218  0.00  0.00    +0.112 C 
ATOM     10  C   UNL     1       2.187   5.619  -0.625  0.00  0.00    +0.047 A 
ATOM     11  C   UNL     1       3.430   6.100  -0.729  0.00  0.00    +0.025 A 
ATOM     12  C   UNL     1       4.255   5.045  -1.177  0.00  0.00    +0.020 A 
ATOM     13  C   UNL     1       3.472   3.954  -1.334  0.00  0.00    +0.092 A 
ATOM     14  N   UNL     1       2.202   4.296  -1.012  0.00  0.00    -0.316 N 
ATOM     15  C   UNL     1       1.028   3.527  -1.017  0.00  0.00    +0.067 A 
ATOM     16  C   UNL     1       1.058   2.155  -1.171  0.00  0.00    +0.028 A 
ATOM     17  C   UNL     1      -0.123   1.435  -1.152  0.00  0.00    +0.002 A 
ATOM     18  C   UNL     1      -1.331   2.087  -0.985  0.00  0.00    +0.002 A 
ATOM     19  C   UNL     1      -1.369   3.461  -0.833  0.00  0.00    +0.025 A 
ATOM     20  C   UNL     1      -0.192   4.193  -0.860  0.00  0.00    +0.052 A 
ATOM     21  N   UNL     1      -0.221   5.588  -0.743  0.00  0.00    -0.331 N 
ATOM     22  H   UNL     1      -0.601  10.715   0.409  0.00  0.00    +0.151 HD
ATOM     23  H   UNL     1      -1.104   6.147  -1.085  0.00  0.00    +0.147 HD
ENDROOT
BRANCH   1  24
ATOM     24  C   UNL     1      -0.839  11.754   2.367  0.00  0.00    +0.046 C 
ATOM     25  C   UNL     1      -0.786  13.027   1.521  0.00  0.00    +0.026 C 
ATOM     26  C   UNL     1       0.546  13.085   0.770  0.00  0.00    +0.002 C 
ATOM     27  C   UNL     1       1.699  13.092   1.776  0.00  0.00    +0.000 C 
ATOM     28  C   UNL     1       1.646  11.819   2.622  0.00  0.00    +0.002 C 
ATOM     29  C   UNL     1       0.314  11.761   3.373  0.00  0.00    +0.026 C 
BRANCH  24  30
ATOM     30  C   UNL     1      -2.171  11.695   3.118  0.00  0.00    +0.146 C 
BRANCH  30  31
ATOM     31  C   UNL     1      -3.298  11.541   2.131  0.00  0.00    +0.309 C 
ATOM     32  O   UNL     1      -3.056  11.362   0.960  0.00  0.00    -0.251 OA
BRANCH  31  33
ATOM     33  O   UNL     1      -4.572  11.602   2.551  0.00  0.00    -0.465 OA
BRANCH  33  35
ATOM     34  C   UNL     1      -6.982  11.543   2.207  0.00  0.00    +0.048 C 
ATOM     35  C   UNL     1      -5.606  11.445   1.544  0.00  0.00    +0.229 C 
ENDBRANCH  33  35
ENDBRANCH  31  33
ENDBRANCH  30  31
ENDBRANCH  24  30
ENDBRANCH   1  24
TORSDOF 5
