REMARK  Name = ZINC09834943
REMARK  12 active torsions:
REMARK  status: ('A' for Active; 'I' for Inactive)
REMARK    1  A    between atoms: C_1  and  C_2
REMARK    2  A    between atoms: C_2  and  O_3
REMARK    3  A    between atoms: O_3  and  C_4
REMARK    4  A    between atoms: C_4  and  C_5
REMARK    5  A    between atoms: C_5  and  C_6
REMARK    6  A    between atoms: C_6  and  N_7
REMARK    7  A    between atoms: C_8  and  C_10
REMARK    8  A    between atoms: C_10  and  C_12
REMARK    9  A    between atoms: C_10  and  N_19
REMARK   10  A    between atoms: N_19  and  C_20
REMARK   11  A    between atoms: C_20  and  C_21
REMARK   12  A    between atoms: C_26  and  C_28
REMARK                            x       y       z     vdW  Elec       q    Type
REMARK                         _______ _______ _______ _____ _____    ______ ____
ROOT
ATOM      1  C   UNL     1      -0.283   1.374  -0.121  0.00  0.00    +0.193 C 
ENDROOT
BRANCH   1   2
ATOM      2  C   UNL     1      -0.055   1.397   1.369  0.00  0.00    -0.018 A 
ATOM      3  C   UNL     1      -0.593   0.403   2.165  0.00  0.00    +0.007 A 
ATOM      4  C   UNL     1      -0.379   0.420   3.531  0.00  0.00    +0.020 A 
ATOM      5  C   UNL     1       0.363   1.438   4.102  0.00  0.00    +0.041 A 
ATOM      6  C   UNL     1       0.897   2.436   3.305  0.00  0.00    +0.020 A 
ATOM      7  C   UNL     1       0.687   2.414   1.939  0.00  0.00    +0.007 A 
ATOM      8 CL   UNL     1       0.625   1.465   5.818  0.00  0.00    -0.084 Cl
ENDBRANCH   1   2
BRANCH   1  10
ATOM      9  N   UNL     1       1.336   1.043  -1.961  0.00  0.00    -0.313 N 
ATOM     10  C   UNL     1       0.833   0.612  -0.788  0.00  0.00    +0.238 C 
ATOM     11  O   UNL     1       1.275  -0.393  -0.272  0.00  0.00    -0.273 OA
ATOM     12  H   UNL     1       0.983   1.847  -2.374  0.00  0.00    +0.149 HD
BRANCH   9  13
ATOM     13  C   UNL     1       2.417   0.299  -2.613  0.00  0.00    +0.106 C 
BRANCH  13  14
ATOM     14  C   UNL     1       2.801   0.997  -3.920  0.00  0.00    +0.047 C 
BRANCH  14  15
ATOM     15  C   UNL     1       3.929   0.220  -4.600  0.00  0.00    +0.161 C 
BRANCH  15  16
ATOM     16  O   UNL     1       4.288   0.871  -5.821  0.00  0.00    -0.380 OA
BRANCH  16  18
ATOM     17  C   UNL     1       5.638   1.002  -7.821  0.00  0.00    +0.034 C 
ATOM     18  C   UNL     1       5.339   0.222  -6.539  0.00  0.00    +0.156 C 
ENDBRANCH  16  18
ENDBRANCH  15  16
ENDBRANCH  14  15
ENDBRANCH  13  14
ENDBRANCH   9  13
ENDBRANCH   1  10
BRANCH   1  19
ATOM     19  N   UNL     1      -1.561   0.719  -0.409  0.00  0.00    -0.277 N 
ATOM     20  C   UNL     1      -2.655   1.463  -0.671  0.00  0.00    +0.248 C 
ATOM     21  O   UNL     1      -3.582   0.982  -1.294  0.00  0.00    -0.270 OA
BRANCH  20  22
ATOM     22  C   UNL     1      -2.727   2.860  -0.202  0.00  0.00    +0.041 A 
ATOM     23  C   UNL     1      -1.660   3.417   0.508  0.00  0.00    +0.017 A 
ATOM     24  C   UNL     1      -1.727   4.723   0.941  0.00  0.00    +0.050 A 
ATOM     25  C   UNL     1      -2.857   5.487   0.683  0.00  0.00    +0.166 A 
ATOM     26  C   UNL     1      -3.928   4.936  -0.021  0.00  0.00    +0.167 A 
ATOM     27  C   UNL     1      -3.864   3.629  -0.462  0.00  0.00    +0.062 A 
ATOM     28  O   UNL     1      -4.904   5.883  -0.140  0.00  0.00    -0.453 OA
ATOM     29  C   UNL     1      -4.592   6.883   0.848  0.00  0.00    +0.466 C 
ATOM     30  O   UNL     1      -3.164   6.777   1.003  0.00  0.00    -0.453 OA
ENDBRANCH  20  22
BRANCH  19  31
ATOM     31  C   UNL     1      -1.652  -0.743  -0.413  0.00  0.00    +0.151 C 
BRANCH  31  32
ATOM     32  C   UNL     1      -1.401  -1.258  -1.806  0.00  0.00    +0.007 A 
ATOM     33  C   UNL     1      -0.249  -1.264  -2.520  0.00  0.00    +0.013 A 
ATOM     34  C   UNL     1      -0.253  -1.796  -3.796  0.00  0.00    +0.008 A 
ATOM     35  C   UNL     1      -1.409  -2.296  -4.296  0.00  0.00    +0.045 A 
ATOM     36  S   UNL     1      -2.543  -2.027  -2.943  0.00  0.00    -0.100 S 
ENDBRANCH  31  32
ENDBRANCH  19  31
ENDBRANCH   1  19
TORSDOF 11
