REMARK  Name = ZINC34849400
REMARK  13 active torsions:
REMARK  status: ('A' for Active; 'I' for Inactive)
REMARK    1  A    between atoms: C_1  and  C_2
REMARK    2  A    between atoms: C_5  and  S_8
REMARK    3  A    between atoms: S_8  and  N_11
REMARK    4  A    between atoms: N_11  and  C_12
REMARK    5  A    between atoms: N_11  and  C_16
REMARK    6  A    between atoms: C_12  and  C_13
REMARK    7  A    between atoms: C_13  and  C_14
REMARK    8  A    between atoms: C_13  and  C_15
REMARK    9  A    between atoms: C_16  and  C_17
REMARK   10  A    between atoms: N_19  and  C_20
REMARK   11  A    between atoms: N_19  and  C_30
REMARK   12  A    between atoms: C_20  and  C_21
REMARK   13  A    between atoms: C_30  and  C_31
REMARK                            x       y       z     vdW  Elec       q    Type
REMARK                         _______ _______ _______ _____ _____    ______ ____
ROOT
ATOM      1  C   UNL     1       3.567  -4.156  -1.565  0.00  0.00    +0.232 C 
ATOM      2  O   UNL     1       3.607  -3.191  -0.833  0.00  0.00    -0.274 OA
ATOM      3  N   UNL     1       4.374  -4.218  -2.643  0.00  0.00    -0.291 N 
ENDROOT
BRANCH   1   4
ATOM      4  C   UNL     1       2.615  -5.287  -1.271  0.00  0.00    +0.205 C 
BRANCH   4   5
ATOM      5  N   UNL     1       1.856  -4.982  -0.056  0.00  0.00    -0.168 NA
BRANCH   5   6
ATOM      6  S   UNL     1       0.356  -4.289  -0.169  0.00  0.00    +0.061 S 
ATOM      7  O   UNL     1      -0.336  -4.621   1.027  0.00  0.00    -0.153 OA
ATOM      8  O   UNL     1      -0.147  -4.618  -1.456  0.00  0.00    -0.153 OA
BRANCH   6  13
ATOM      9  C   UNL     1       1.141   1.693  -0.103  0.00  0.00    +0.044 C 
ATOM     10  C   UNL     1       0.945   0.199  -0.119  0.00  0.00    -0.050 A 
ATOM     11  C   UNL     1       0.947  -0.485  -1.320  0.00  0.00    +0.005 A 
ATOM     12  C   UNL     1       0.767  -1.856  -1.336  0.00  0.00    +0.029 A 
ATOM     13  C   UNL     1       0.586  -2.542  -0.149  0.00  0.00    +0.106 A 
ATOM     14  C   UNL     1       0.585  -1.858   1.052  0.00  0.00    +0.029 A 
ATOM     15  C   UNL     1       0.769  -0.488   1.067  0.00  0.00    +0.005 A 
ENDBRANCH   6  13
ENDBRANCH   5   6
BRANCH   5  16
ATOM     16  C   UNL     1       2.423  -5.290   1.259  0.00  0.00    +0.113 C 
BRANCH  16  17
ATOM     17  C   UNL     1       2.084  -6.734   1.636  0.00  0.00    -0.001 C 
ATOM     18  C   UNL     1       2.783  -7.690   0.667  0.00  0.00    +0.008 C 
ATOM     19  C   UNL     1       2.561  -7.014   3.062  0.00  0.00    +0.008 C 
ENDBRANCH  16  17
ENDBRANCH   5  16
ENDBRANCH   4   5
ENDBRANCH   1   4
BRANCH   3  20
ATOM     20  C   UNL     1       5.299  -3.119  -2.929  0.00  0.00    +0.143 C 
BRANCH  20  21
ATOM     21  C   UNL     1       6.615  -3.378  -2.243  0.00  0.00    -0.026 A 
ATOM     22  C   UNL     1       6.824  -2.920  -0.956  0.00  0.00    +0.009 A 
ATOM     23  C   UNL     1       8.030  -3.156  -0.322  0.00  0.00    +0.050 A 
ATOM     24  C   UNL     1       9.033  -3.853  -0.977  0.00  0.00    +0.166 A 
ATOM     25  C   UNL     1       8.822  -4.315  -2.273  0.00  0.00    +0.167 A 
ATOM     26  C   UNL     1       7.609  -4.080  -2.900  0.00  0.00    +0.054 A 
ATOM     27  O   UNL     1       9.947  -4.964  -2.693  0.00  0.00    -0.453 OA
ATOM     28  C   UNL     1      10.992  -4.541  -1.797  0.00  0.00    +0.466 C 
ATOM     29  O   UNL     1      10.290  -4.213  -0.584  0.00  0.00    -0.453 OA
ENDBRANCH  20  21
ENDBRANCH   3  20
BRANCH   3  30
ATOM     30  C   UNL     1       4.326  -5.384  -3.528  0.00  0.00    +0.150 C 
BRANCH  30  31
ATOM     31  C   UNL     1       3.310  -5.147  -4.616  0.00  0.00    +0.007 A 
ATOM     32  C   UNL     1       3.484  -4.590  -5.840  0.00  0.00    +0.013 A 
ATOM     33  C   UNL     1       2.395  -4.474  -6.684  0.00  0.00    +0.008 A 
ATOM     34  C   UNL     1       1.187  -4.920  -6.263  0.00  0.00    +0.045 A 
ATOM     35  S   UNL     1       1.567  -5.535  -4.631  0.00  0.00    -0.100 S 
ENDBRANCH  30  31
ENDBRANCH   3  30
TORSDOF 10
