REMARK  Name = ZINC36017332
REMARK  17 active torsions:
REMARK  status: ('A' for Active; 'I' for Inactive)
REMARK    1  A    between atoms: C_1  and  C_2
REMARK    2  A    between atoms: C_2  and  C_3
REMARK    3  A    between atoms: C_3  and  N_4
REMARK    4  A    between atoms: N_10  and  C_15
REMARK    5  A    between atoms: C_12  and  C_14
REMARK    6  A    between atoms: C_15  and  C_16
REMARK    7  A    between atoms: C_17  and  C_36
REMARK    8  A    between atoms: C_18  and  C_26
REMARK    9  A    between atoms: N_23  and  C_24
REMARK   10  A    between atoms: C_24  and  C_25
REMARK   11  A    between atoms: C_28  and  O_34
REMARK   12  A    between atoms: C_31  and  O_32
REMARK   13  A    between atoms: O_32  and  C_33
REMARK   14  A    between atoms: O_34  and  C_35
REMARK   15  A    between atoms: C_36  and  O_38
REMARK   16  A    between atoms: O_38  and  C_39
REMARK   17  A    between atoms: C_39  and  C_40
REMARK                            x       y       z     vdW  Elec       q    Type
REMARK                         _______ _______ _______ _____ _____    ______ ____
ROOT
ATOM      1  C   UNL     1      -1.105  -9.432  -1.919  0.00  0.00    +0.041 C 
ATOM      2  C   UNL     1      -0.702 -10.685  -1.616  0.00  0.00    +0.080 C 
ATOM      3  C   UNL     1       0.788 -10.954  -1.564  0.00  0.00    +0.147 C 
ATOM      4  N   UNL     1       1.681  -9.818  -1.850  0.00  0.00    -0.288 N 
ATOM      5  C   UNL     1       1.128  -8.623  -2.137  0.00  0.00    +0.307 C 
ATOM      6  O   UNL     1       1.857  -7.680  -2.375  0.00  0.00    -0.252 OA
ATOM      7  N   UNL     1      -0.198  -8.443  -2.175  0.00  0.00    -0.258 N 
ATOM      8  H   UNL     1       2.645  -9.928  -1.832  0.00  0.00    +0.151 HD
ENDROOT
BRANCH   3   9
ATOM      9  C   UNL     1       1.120 -11.469  -0.188  0.00  0.00    +0.023 A 
ATOM     10  C   UNL     1       1.512 -10.590   0.803  0.00  0.00    +0.055 A 
ATOM     11  C   UNL     1       1.817 -11.065   2.070  0.00  0.00    +0.121 A 
ATOM     12  C   UNL     1       1.727 -12.422   2.343  0.00  0.00    +0.049 A 
ATOM     13  C   UNL     1       1.335 -13.301   1.352  0.00  0.00    +0.049 A 
ATOM     14  C   UNL     1       1.025 -12.825   0.086  0.00  0.00    +0.126 A 
BRANCH  14  15
ATOM     15  O   UNL     1       0.633 -13.690  -0.887  0.00  0.00    -0.495 OA
ATOM     16  C   UNL     1       0.455 -15.056  -0.509  0.00  0.00    +0.277 C 
ENDBRANCH  14  15
BRANCH  11  17
ATOM     17  O   UNL     1       2.203 -10.199   3.046  0.00  0.00    -0.495 OA
ATOM     18  C   UNL     1       2.502 -10.757   4.327  0.00  0.00    +0.277 C 
ENDBRANCH  11  17
ENDBRANCH   3   9
BRANCH   7  19
ATOM     19  C   UNL     1      -0.705  -7.108  -2.502  0.00  0.00    +0.111 C 
ATOM     20  C   UNL     1      -0.755  -6.256  -1.233  0.00  0.00    +0.025 C 
ENDBRANCH   7  19
BRANCH   2  21
ATOM     21  C   UNL     1      -1.640 -11.711  -1.356  0.00  0.00    +0.339 C 
ATOM     22  O   UNL     1      -1.810 -12.600  -2.169  0.00  0.00    -0.245 OA
BRANCH  21  23
ATOM     23  O   UNL     1      -2.346 -11.705  -0.206  0.00  0.00    -0.462 OA
BRANCH  23  24
ATOM     24  C   UNL     1      -3.354 -12.707  -0.057  0.00  0.00    +0.229 C 
ATOM     25  C   UNL     1      -4.124 -12.466   1.242  0.00  0.00    +0.048 C 
ENDBRANCH  23  24
ENDBRANCH  21  23
ENDBRANCH   2  21
BRANCH   1  26
ATOM     26  C   UNL     1      -2.578  -9.121  -1.981  0.00  0.00    +0.136 C 
BRANCH  26  33
ATOM     27  N   UNL     1      -5.228 -10.180  -7.411  0.00  0.00    -0.299 N 
ATOM     28  C   UNL     1      -5.334  -9.069  -6.654  0.00  0.00    +0.303 C 
ATOM     29  O   UNL     1      -6.298  -8.338  -6.781  0.00  0.00    -0.253 OA
ATOM     30  N   UNL     1      -4.374  -8.769  -5.758  0.00  0.00    -0.280 N 
ATOM     31  C   UNL     1      -3.142  -9.568  -5.676  0.00  0.00    +0.125 C 
ATOM     32  C   UNL     1      -2.927  -9.983  -4.216  0.00  0.00    +0.104 C 
ATOM     33  N   UNL     1      -2.950  -8.788  -3.362  0.00  0.00    -0.294 NA
ATOM     34  C   UNL     1      -4.260  -8.125  -3.409  0.00  0.00    +0.107 C 
ATOM     35  C   UNL     1      -4.527  -7.630  -4.840  0.00  0.00    +0.088 C 
ATOM     36  C   UNL     1      -5.950  -7.079  -4.938  0.00  0.00    +0.029 C 
ATOM     37  H   UNL     1      -4.426 -10.723  -7.363  0.00  0.00    +0.150 HD
BRANCH  27  38
ATOM     38  C   UNL     1      -6.323 -10.566  -8.304  0.00  0.00    +0.105 C 
BRANCH  38  40
ATOM     39  C   UNL     1      -7.093 -12.256  -9.974  0.00  0.00    +0.005 C 
ATOM     40  C   UNL     1      -5.949 -11.853  -9.042  0.00  0.00    +0.015 C 
ENDBRANCH  38  40
ENDBRANCH  27  38
ENDBRANCH  26  33
ENDBRANCH   1  26
TORSDOF 11
