REMARK  Name = ZINC21781279
REMARK  13 active torsions:
REMARK  status: ('A' for Active; 'I' for Inactive)
REMARK    1  A    between atoms: C_1  and  C_2
REMARK    2  A    between atoms: C_2  and  O_3
REMARK    3  A    between atoms: O_3  and  C_4
REMARK    4  A    between atoms: C_4  and  C_6
REMARK    5  A    between atoms: C_12  and  C_24
REMARK    6  A    between atoms: C_12  and  C_25
REMARK    7  A    between atoms: N_13  and  C_16
REMARK    8  A    between atoms: C_21  and  C_22
REMARK    9  A    between atoms: N_27  and  C_28
REMARK   10  A    between atoms: C_28  and  C_29
REMARK   11  A    between atoms: C_29  and  C_30
REMARK   12  A    between atoms: C_30  and  C_31
REMARK   13  A    between atoms: C_30  and  C_32
REMARK                            x       y       z     vdW  Elec       q    Type
REMARK                         _______ _______ _______ _____ _____    ______ ____
ROOT
ATOM      1  C   UNL     1       2.878   2.109   3.077  0.00  0.00    +0.170 A 
ATOM      2  C   UNL     1       3.225   2.423   1.742  0.00  0.00    +0.069 A 
ATOM      3  C   UNL     1       2.847   1.345   1.016  0.00  0.00    +0.125 A 
ATOM      4  N   UNL     1       2.309   0.424   1.891  0.00  0.00    -0.256 N 
ATOM      5  N   UNL     1       2.335   0.902   3.075  0.00  0.00    -0.164 NA
ATOM      6  C   UNL     1       1.823  -0.878   1.420  0.00  0.00    +0.179 C 
ATOM      7  C   UNL     1       1.317  -0.740  -0.015  0.00  0.00    +0.135 C 
ATOM      8  N   UNL     1       2.251  -0.017  -0.871  0.00  0.00    -0.250 N 
ATOM      9  C   UNL     1       2.918   1.076  -0.429  0.00  0.00    +0.270 C 
ATOM     10  O   UNL     1       3.543   1.795  -1.186  0.00  0.00    -0.268 OA
ATOM     11  C   UNL     1       1.094  -2.137  -0.597  0.00  0.00    +0.044 C 
ENDROOT
BRANCH   8  12
ATOM     12  C   UNL     1       2.462  -0.464  -2.181  0.00  0.00    +0.041 A 
ATOM     13  C   UNL     1       1.667   0.013  -3.215  0.00  0.00    +0.026 A 
ATOM     14  C   UNL     1       1.880  -0.424  -4.507  0.00  0.00    +0.040 A 
ATOM     15  C   UNL     1       2.880  -1.346  -4.771  0.00  0.00    +0.124 A 
ATOM     16  C   UNL     1       3.670  -1.827  -3.740  0.00  0.00    +0.043 A 
ATOM     17  C   UNL     1       3.463  -1.388  -2.447  0.00  0.00    -0.026 A 
ATOM     18  C   UNL     1       4.324  -1.911  -1.326  0.00  0.00    +0.046 C 
ATOM     19  F   UNL     1       3.084  -1.777  -6.035  0.00  0.00    -0.205 F 
ENDBRANCH   8  12
BRANCH   7  20
ATOM     20  C   UNL     1       0.002  -0.004   0.002  0.00  0.00    +0.239 C 
ATOM     21  O   UNL     1      -1.040  -0.625   0.009  0.00  0.00    -0.273 OA
ATOM     22  N   UNL     1      -0.016   1.344   0.009  0.00  0.00    -0.313 N 
ATOM     23  H   UNL     1       0.929   1.907   0.008  0.00  0.00    +0.149 HD
BRANCH  22  24
ATOM     24  C   UNL     1      -1.295   2.059   0.019  0.00  0.00    +0.104 C 
BRANCH  24  25
ATOM     25  C   UNL     1      -1.036   3.567   0.026  0.00  0.00    +0.022 C 
BRANCH  25  26
ATOM     26  C   UNL     1      -2.371   4.314   0.037  0.00  0.00    -0.016 C 
ATOM     27  C   UNL     1      -3.107   4.023   1.346  0.00  0.00    +0.007 C 
ATOM     28  C   UNL     1      -2.115   5.817  -0.082  0.00  0.00    +0.007 C 
ENDBRANCH  25  26
ENDBRANCH  24  25
ENDBRANCH  22  24
ENDBRANCH   7  20
BRANCH   1  29
ATOM     29  C   UNL     1       3.085   2.971   4.258  0.00  0.00    +0.359 C 
ATOM     30  O   UNL     1       3.598   4.064   4.129  0.00  0.00    -0.243 OA
BRANCH  29  31
ATOM     31  O   UNL     1       2.705   2.544   5.478  0.00  0.00    -0.460 OA
BRANCH  31  33
ATOM     32  C   UNL     1       2.447   2.792   7.886  0.00  0.00    +0.048 C 
ATOM     33  C   UNL     1       2.940   3.444   6.593  0.00  0.00    +0.229 C 
ENDBRANCH  31  33
ENDBRANCH  29  31
ENDBRANCH   1  29
TORSDOF 8
