REMARK  Name = ZINC05237515
REMARK  5 active torsions:
REMARK  status: ('A' for Active; 'I' for Inactive)
REMARK    1  A    between atoms: C_1  and  C_2
REMARK    2  A    between atoms: C_8  and  S_10
REMARK    3  A    between atoms: S_10  and  C_11
REMARK    4  A    between atoms: C_11  and  C_12
REMARK    5  A    between atoms: N_14  and  C_15
REMARK                            x       y       z     vdW  Elec       q    Type
REMARK                         _______ _______ _______ _____ _____    ______ ____
ROOT
ATOM      1  C   UNL     1       5.377  -1.973  -0.041  0.00  0.00    +0.228 C 
ATOM      2  O   UNL     1       5.550  -3.174  -0.045  0.00  0.00    -0.275 OA
ATOM      3  N   UNL     1       6.435  -1.139  -0.035  0.00  0.00    -0.284 N 
ATOM      4  H   UNL     1       6.298  -0.181  -0.098  0.00  0.00    +0.155 HD
ENDROOT
BRANCH   3   5
ATOM      5  C   UNL     1       7.733  -1.656   0.061  0.00  0.00    +0.053 A 
ATOM      6  C   UNL     1       8.045  -2.869  -0.538  0.00  0.00    +0.046 A 
ATOM      7  C   UNL     1       9.327  -3.376  -0.441  0.00  0.00    +0.061 A 
ATOM      8  C   UNL     1      10.300  -2.676   0.254  0.00  0.00    +0.061 A 
ATOM      9  C   UNL     1       9.991  -1.468   0.852  0.00  0.00    +0.043 A 
ATOM     10  C   UNL     1       8.712  -0.953   0.753  0.00  0.00    +0.064 A 
ATOM     11 CL   UNL     1       8.328   0.568   1.497  0.00  0.00    -0.082 Cl
ATOM     12 CL   UNL     1      11.909  -3.317   0.374  0.00  0.00    -0.082 Cl
ATOM     13 CL   UNL     1       9.718  -4.893  -1.190  0.00  0.00    -0.082 Cl
ENDBRANCH   3   5
BRANCH   1  14
ATOM     14  C   UNL     1       3.977  -1.415  -0.043  0.00  0.00    +0.173 C 
BRANCH  14  15
ATOM     15  S   UNL     1       2.781  -2.779  -0.052  0.00  0.00    -0.078 S 
BRANCH  15  23
ATOM     16  C   UNL     1      -0.019   1.500  -0.044  0.00  0.00    +0.066 C 
ATOM     17  C   UNL     1       0.002  -0.006  -0.049  0.00  0.00    +0.046 A 
ATOM     18  C   UNL     1      -1.172  -0.704  -0.055  0.00  0.00    +0.093 A 
ATOM     19  C   UNL     1      -1.127  -2.109  -0.060  0.00  0.00    +0.252 A 
ATOM     20  O   UNL     1      -2.157  -2.764  -0.066  0.00  0.00    -0.268 OA
ATOM     21  N   UNL     1       0.077  -2.720  -0.059  0.00  0.00    -0.302 N 
ATOM     22  H   UNL     1       0.131  -3.689  -0.063  0.00  0.00    +0.171 HD
ATOM     23  C   UNL     1       1.215  -1.972  -0.053  0.00  0.00    +0.170 A 
ATOM     24  N   UNL     1       1.164  -0.654  -0.054  0.00  0.00    -0.228 NA
ENDBRANCH  15  23
ENDBRANCH  14  15
ENDBRANCH   1  14
TORSDOF 4
