REMARK  Name = ZINC36305241
REMARK  15 active torsions:
REMARK  status: ('A' for Active; 'I' for Inactive)
REMARK    1  A    between atoms: C_1  and  N_2
REMARK    2  A    between atoms: C_3  and  O_28
REMARK    3  A    between atoms: C_4  and  C_13
REMARK    4  A    between atoms: C_5  and  C_7
REMARK    5  A    between atoms: C_13  and  N_14
REMARK    6  A    between atoms: N_14  and  C_15
REMARK    7  A    between atoms: N_14  and  C_19
REMARK    8  A    between atoms: C_15  and  C_16
REMARK    9  A    between atoms: C_19  and  C_20
REMARK   10  A    between atoms: C_20  and  C_22
REMARK   11  A    between atoms: C_20  and  O_27
REMARK   12  A    between atoms: C_22  and  O_23
REMARK   13  A    between atoms: O_23  and  C_24
REMARK   14  A    between atoms: C_24  and  C_25
REMARK   15  A    between atoms: O_28  and  C_29
REMARK                            x       y       z     vdW  Elec       q    Type
REMARK                         _______ _______ _______ _____ _____    ______ ____
ROOT
ATOM      1  C   UNL     1       1.983   1.120   0.840  0.00  0.00    +0.176 C 
ATOM      2  N   UNL     1       1.322  -0.187   0.864  0.00  0.00    -0.235 N 
ATOM      3  C   UNL     1       1.225  -1.051  -0.179  0.00  0.00    +0.221 A 
ATOM      4  C   UNL     1       0.541  -2.143   0.249  0.00  0.00    +0.025 A 
ATOM      5  C   UNL     1       0.208  -1.938   1.601  0.00  0.00    +0.098 A 
ATOM      6  N   UNL     1       0.683  -0.767   1.968  0.00  0.00    -0.168 NA
ENDROOT
BRANCH   5   7
ATOM      7  C   UNL     1      -0.543  -2.882   2.466  0.00  0.00    +0.002 A 
ATOM      8  C   UNL     1      -0.117  -3.126   3.770  0.00  0.00    +0.010 A 
ATOM      9  C   UNL     1      -0.819  -4.005   4.569  0.00  0.00    +0.001 A 
ATOM     10  C   UNL     1      -1.943  -4.644   4.079  0.00  0.00    +0.000 A 
ATOM     11  C   UNL     1      -2.371  -4.405   2.785  0.00  0.00    +0.001 A 
ATOM     12  C   UNL     1      -1.680  -3.523   1.979  0.00  0.00    +0.010 A 
ENDBRANCH   5   7
BRANCH   4  13
ATOM     13  C   UNL     1       0.199  -3.356  -0.576  0.00  0.00    -0.035 C 
BRANCH  13  14
ATOM     14  N   UNL     1       1.352  -4.266  -0.611  0.00  0.00    +0.384 N 
ATOM     15  H   UNL     1       2.147  -3.786  -1.007  0.00  0.00    -0.081 HD
BRANCH  14  16
ATOM     16  C   UNL     1       1.673  -4.701   0.755  0.00  0.00    -0.075 C 
BRANCH  16  17
ATOM     17  C   UNL     1       2.947  -5.549   0.734  0.00  0.00    -0.028 C 
ATOM     18  C   UNL     1       4.188  -4.976   1.421  0.00  0.00    +0.002 C 
ATOM     19  C   UNL     1       3.426  -6.138   2.062  0.00  0.00    +0.002 C 
ENDBRANCH  16  17
ENDBRANCH  14  16
BRANCH  14  20
ATOM     20  C   UNL     1       1.027  -5.438  -1.435  0.00  0.00    -0.044 C 
BRANCH  20  21
ATOM     21  C   UNL     1       0.875  -5.008  -2.895  0.00  0.00    +0.124 C 
BRANCH  21  22
ATOM     22  O   UNL     1      -0.300  -4.206  -3.036  0.00  0.00    -0.391 OA
ATOM     23  H   UNL     1      -1.117  -4.657  -2.785  0.00  0.00    +0.210 HD
ENDBRANCH  21  22
BRANCH  21  24
ATOM     24  C   UNL     1       0.754  -6.249  -3.782  0.00  0.00    +0.189 C 
BRANCH  24  25
ATOM     25  O   UNL     1       0.729  -5.853  -5.154  0.00  0.00    -0.373 OA
BRANCH  25  26
ATOM     26  C   UNL     1       0.618  -6.943  -6.072  0.00  0.00    +0.186 C 
BRANCH  26  27
ATOM     27  C   UNL     1       0.601  -6.412  -7.482  0.00  0.00    -0.007 C 
ATOM     28  C   UNL     1       1.330  -6.987  -8.407  0.00  0.00    +0.006 C 
ENDBRANCH  26  27
ENDBRANCH  25  26
ENDBRANCH  24  25
ENDBRANCH  21  24
ENDBRANCH  20  21
ENDBRANCH  14  20
ENDBRANCH  13  14
ENDBRANCH   4  13
BRANCH   3  29
ATOM     29  O   UNL     1       1.723  -0.858  -1.427  0.00  0.00    -0.438 OA
BRANCH  29  30
ATOM     30  C   UNL     1       0.941  -0.215  -2.334  0.00  0.00    +0.130 A 
ATOM     31  C   UNL     1      -0.278   0.320  -1.944  0.00  0.00    +0.048 A 
ATOM     32  C   UNL     1      -1.071   0.974  -2.867  0.00  0.00    +0.023 A 
ATOM     33  C   UNL     1      -0.651   1.094  -4.180  0.00  0.00    +0.041 A 
ATOM     34  C   UNL     1       0.565   0.562  -4.571  0.00  0.00    +0.023 A 
ATOM     35  C   UNL     1       1.364  -0.088  -3.649  0.00  0.00    +0.048 A 
ATOM     36 CL   UNL     1      -1.650   1.915  -5.338  0.00  0.00    -0.084 Cl
ENDBRANCH  29  30
ENDBRANCH   3  29
TORSDOF 14
