REMARK  Name = ZINC64020407
REMARK  13 active torsions:
REMARK  status: ('A' for Active; 'I' for Inactive)
REMARK    1  A    between atoms: C_1  and  O_2
REMARK    2  A    between atoms: O_2  and  C_3
REMARK    3  A    between atoms: C_7  and  C_11
REMARK    4  A    between atoms: C_8  and  O_9
REMARK    5  A    between atoms: O_9  and  C_10
REMARK    6  A    between atoms: C_11  and  C_13
REMARK    7  A    between atoms: C_11  and  C_30
REMARK    8  A    between atoms: C_13  and  N_14
REMARK    9  A    between atoms: C_15  and  C_17
REMARK   10  A    between atoms: C_17  and  C_18
REMARK   11  A    between atoms: C_18  and  N_19
REMARK   12  A    between atoms: C_20  and  C_22
REMARK   13  A    between atoms: C_23  and  C_24
REMARK                            x       y       z     vdW  Elec       q    Type
REMARK                         _______ _______ _______ _____ _____    ______ ____
ROOT
ATOM      1  C   UNL     1       1.394  -4.134   2.219  0.00  0.00    +0.068 C 
ENDROOT
BRANCH   1   2
ATOM      2  C   UNL     1       2.837  -4.570   2.229  0.00  0.00    -0.033 C 
ATOM      3  C   UNL     1       3.455  -5.356   1.318  0.00  0.00    -0.000 A 
ATOM      4  C   UNL     1       2.986  -6.016   0.093  0.00  0.00    +0.010 A 
ATOM      5  C   UNL     1       3.859  -6.756  -0.628  0.00  0.00    +0.001 A 
ATOM      6  C   UNL     1       5.196  -6.910  -0.235  0.00  0.00    +0.002 A 
ATOM      7  C   UNL     1       5.699  -6.335   0.877  0.00  0.00    +0.026 A 
ATOM      8  C   UNL     1       4.871  -5.533   1.710  0.00  0.00    +0.043 A 
ATOM      9  N   UNL     1       5.119  -4.882   2.821  0.00  0.00    -0.380 N 
ATOM     10  C   UNL     1       3.888  -4.212   3.255  0.00  0.00    +0.145 C 
ATOM     11  H   UNL     1       5.974  -4.846   3.276  0.00  0.00    +0.160 HD
ENDBRANCH   1   2
BRANCH   1  16
ATOM     12  C   UNL     1       0.626  -0.619   1.042  0.00  0.00    +0.162 A 
ATOM     13  C   UNL     1       1.202   0.137   2.051  0.00  0.00    +0.049 A 
ATOM     14  C   UNL     1       1.836  -0.490   3.108  0.00  0.00    +0.004 A 
ATOM     15  C   UNL     1       1.897  -1.870   3.161  0.00  0.00    +0.008 A 
ATOM     16  C   UNL     1       1.325  -2.630   2.158  0.00  0.00    +0.007 A 
ATOM     17  C   UNL     1       0.683  -2.008   1.099  0.00  0.00    +0.165 A 
BRANCH  12  19
ATOM     18  C   UNL     1      -0.017   1.425   0.010  0.00  0.00    +0.277 C 
ATOM     19  O   UNL     1       0.002  -0.004   0.002  0.00  0.00    -0.491 OA
ENDBRANCH  12  19
BRANCH  17  20
ATOM     20  O   UNL     1       0.115  -2.754   0.114  0.00  0.00    -0.491 OA
ATOM     21  C   UNL     1       0.940  -3.091  -1.003  0.00  0.00    +0.277 C 
ENDBRANCH  17  20
ENDBRANCH   1  16
BRANCH   1  22
ATOM     22  C   UNL     1       0.704  -4.625   3.493  0.00  0.00    +0.116 C 
BRANCH  22  23
ATOM     23  N   UNL     1      -0.724  -4.305   3.430  0.00  0.00    -0.314 N 
ATOM     24  C   UNL     1      -1.537  -4.645   4.449  0.00  0.00    +0.215 C 
ATOM     25  O   UNL     1      -1.086  -5.216   5.420  0.00  0.00    -0.276 OA
ATOM     26  H   UNL     1      -1.084  -3.848   2.654  0.00  0.00    +0.149 HD
BRANCH  24  27
ATOM     27  C   UNL     1      -3.006  -4.316   4.384  0.00  0.00    +0.114 C 
BRANCH  27  28
ATOM     28  C   UNL     1      -3.696  -4.807   5.658  0.00  0.00    +0.113 C 
BRANCH  28  29
ATOM     29  N   UNL     1      -5.124  -4.487   5.595  0.00  0.00    -0.311 N 
ATOM     30  C   UNL     1      -5.937  -4.827   6.614  0.00  0.00    +0.237 C 
ATOM     31  O   UNL     1      -5.484  -5.400   7.588  0.00  0.00    -0.271 OA
ATOM     32  H   UNL     1      -5.485  -4.030   4.818  0.00  0.00    +0.149 HD
BRANCH  30  33
ATOM     33  C   UNL     1      -7.364  -4.507   6.551  0.00  0.00    +0.068 C 
ATOM     34  C   UNL     1      -8.178  -4.848   7.571  0.00  0.00    +0.013 C 
BRANCH  34  35
ATOM     35  C   UNL     1      -9.613  -4.526   7.507  0.00  0.00    -0.025 A 
ATOM     36  C   UNL     1     -10.137  -3.873   6.387  0.00  0.00    +0.008 A 
ATOM     37  C   UNL     1     -11.483  -3.575   6.335  0.00  0.00    +0.001 A 
ATOM     38  C   UNL     1     -12.313  -3.921   7.386  0.00  0.00    +0.000 A 
ATOM     39  C   UNL     1     -11.801  -4.568   8.498  0.00  0.00    +0.001 A 
ATOM     40  C   UNL     1     -10.459  -4.877   8.563  0.00  0.00    +0.008 A 
ENDBRANCH  34  35
ENDBRANCH  30  33
ENDBRANCH  28  29
ENDBRANCH  27  28
ENDBRANCH  24  27
ENDBRANCH  22  23
ENDBRANCH   1  22
TORSDOF 11
