REMARK  Name = ZINC48987666
REMARK  8 active torsions:
REMARK  status: ('A' for Active; 'I' for Inactive)
REMARK    1  A    between atoms: C_1  and  C_2
REMARK    2  A    between atoms: C_5  and  C_9
REMARK    3  A    between atoms: C_7  and  C_8
REMARK    4  A    between atoms: C_15  and  C_21
REMARK    5  A    between atoms: C_21  and  C_22
REMARK    6  A    between atoms: C_22  and  C_23
REMARK    7  A    between atoms: N_25  and  C_26
REMARK    8  A    between atoms: C_26  and  C_27
REMARK                            x       y       z     vdW  Elec       q    Type
REMARK                         _______ _______ _______ _____ _____    ______ ____
ROOT
ATOM      1  C   UNL     1       0.061  -4.256  -0.021  0.00  0.00    +0.094 A 
ATOM      2  C   UNL     1       0.171  -5.067  -1.160  0.00  0.00    +0.061 A 
ATOM      3  C   UNL     1       0.152  -6.377  -0.739  0.00  0.00    +0.112 A 
ATOM      4  C   UNL     1       0.230  -7.666  -1.431  0.00  0.00    +0.187 A 
ATOM      5  N   UNL     1       0.345  -8.031  -2.688  0.00  0.00    -0.127 NA
ATOM      6  N   UNL     1       0.369  -9.316  -2.763  0.00  0.00    -0.134 NA
ATOM      7  C   UNL     1       0.272  -9.840  -1.568  0.00  0.00    +0.138 A 
ATOM      8  N   UNL     1       0.181  -8.816  -0.681  0.00  0.00    -0.283 N 
ATOM      9  C   UNL     1       0.060  -8.737   0.693  0.00  0.00    +0.114 A 
ATOM     10  C   UNL     1      -0.011  -7.568   1.319  0.00  0.00    +0.131 A 
ATOM     11  N   UNL     1       0.033  -6.370   0.628  0.00  0.00    -0.234 N 
ATOM     12  N   UNL     1      -0.016  -5.034   1.042  0.00  0.00    -0.166 NA
ENDROOT
BRANCH   1  17
ATOM     13  C   UNL     1      -0.018   1.503   0.010  0.00  0.00    +0.044 C 
ATOM     14  C   UNL     1       0.002  -0.004   0.002  0.00  0.00    -0.047 A 
ATOM     15  C   UNL     1       0.006  -0.687  -1.201  0.00  0.00    +0.004 A 
ATOM     16  C   UNL     1       0.025  -2.066  -1.215  0.00  0.00    +0.010 A 
ATOM     17  C   UNL     1       0.041  -2.772  -0.013  0.00  0.00    +0.002 A 
ATOM     18  C   UNL     1       0.037  -2.080   1.196  0.00  0.00    +0.013 A 
ATOM     19  C   UNL     1       0.023  -0.699   1.197  0.00  0.00    -0.047 A 
ATOM     20  C   UNL     1       0.025   0.051   2.504  0.00  0.00    +0.044 C 
ENDBRANCH   1  17
BRANCH   7  21
ATOM     21  C   UNL     1       0.263 -11.310  -1.236  0.00  0.00    +0.086 C 
BRANCH  21  22
ATOM     22  C   UNL     1       1.697 -11.788  -0.999  0.00  0.00    +0.103 C 
BRANCH  22  23
ATOM     23  C   UNL     1       1.688 -13.258  -0.667  0.00  0.00    +0.214 C 
ATOM     24  O   UNL     1       0.638 -13.864  -0.625  0.00  0.00    -0.276 OA
ATOM     25  N   UNL     1       2.846 -13.900  -0.417  0.00  0.00    -0.311 N 
ATOM     26  H   UNL     1       3.686 -13.416  -0.451  0.00  0.00    +0.149 HD
BRANCH  25  27
ATOM     27  C   UNL     1       2.837 -15.329  -0.095  0.00  0.00    +0.139 C 
BRANCH  27  28
ATOM     28  C   UNL     1       4.250 -15.800   0.139  0.00  0.00    -0.029 A 
ATOM     29  C   UNL     1       5.004 -16.274  -0.919  0.00  0.00    +0.008 A 
ATOM     30  C   UNL     1       6.299 -16.706  -0.706  0.00  0.00    +0.040 A 
ATOM     31  C   UNL     1       6.843 -16.664   0.567  0.00  0.00    +0.142 A 
ATOM     32  C   UNL     1       6.086 -16.190   1.626  0.00  0.00    +0.076 A 
ATOM     33  C   UNL     1       4.792 -15.753   1.410  0.00  0.00    +0.028 A 
ATOM     34 CL   UNL     1       6.765 -16.137   3.223  0.00  0.00    -0.081 Cl
ATOM     35  F   UNL     1       8.109 -17.087   0.776  0.00  0.00    -0.204 F 
ENDBRANCH  27  28
ENDBRANCH  25  27
ENDBRANCH  22  23
ENDBRANCH  21  22
ENDBRANCH   7  21
TORSDOF 6
