REMARK  Name = ZINC36825318
REMARK  5 active torsions:
REMARK  status: ('A' for Active; 'I' for Inactive)
REMARK    1  A    between atoms: C_4  and  N_9
REMARK    2  A    between atoms: C_5  and  C_6
REMARK    3  A    between atoms: N_9  and  S_10
REMARK    4  A    between atoms: S_10  and  C_13
REMARK    5  A    between atoms: C_15  and  C_19
REMARK                            x       y       z     vdW  Elec       q    Type
REMARK                         _______ _______ _______ _____ _____    ______ ____
ROOT
ATOM      1  S   UNL     1       3.123  -2.463  -0.041  0.00  0.00    +0.094 S 
ATOM      2  O   UNL     1       3.666  -2.055  -1.290  0.00  0.00    -0.148 OA
ATOM      3  O   UNL     1       3.689  -2.069   1.201  0.00  0.00    -0.148 OA
ENDROOT
BRANCH   1   4
ATOM      4  C   UNL     1       3.105  -4.225  -0.051  0.00  0.00    +0.132 A 
ATOM      5  C   UNL     1       3.592  -4.919  -1.129  0.00  0.00    +0.053 A 
ATOM      6  C   UNL     1       3.530  -6.304  -1.032  0.00  0.00    +0.103 A 
ATOM      7  S   UNL     1       2.789  -6.527   0.573  0.00  0.00    -0.073 S 
ATOM      8  C   UNL     1       2.613  -4.915   1.012  0.00  0.00    +0.082 A 
ATOM      9 BR   UNL     1       1.893  -4.219   2.616  0.00  0.00    -0.041 Br
BRANCH   6  10
ATOM     10  C   UNL     1       3.948  -7.284  -1.967  0.00  0.00    +0.393 C 
ATOM     11  O   UNL     1       4.443  -6.941  -3.034  0.00  0.00    -0.240 OA
ATOM     12  O   UNL     1       3.814  -8.474  -1.708  0.00  0.00    -0.240 OA
ENDBRANCH   6  10
ENDBRANCH   1   4
BRANCH   1  13
ATOM     13  N   UNL     1       1.546  -1.957  -0.024  0.00  0.00    -0.090 NA
BRANCH  13  17
ATOM     14  C   UNL     1      -0.018   1.442   0.010  0.00  0.00    +0.022 A 
ATOM     15  C   UNL     1       1.185   2.045   0.002  0.00  0.00    +0.048 A 
ATOM     16  S   UNL     1       2.328   0.682  -0.017  0.00  0.00    -0.078 S 
ATOM     17  C   UNL     1       1.253  -0.607  -0.013  0.00  0.00    +0.124 A 
ATOM     18  C   UNL     1       0.002  -0.004   0.002  0.00  0.00    +0.068 A 
BRANCH  18  19
ATOM     19  C   UNL     1      -1.233  -0.792   0.010  0.00  0.00    +0.244 C 
ATOM     20  O   UNL     1      -1.179  -2.008   0.003  0.00  0.00    -0.270 OA
ATOM     21  N   UNL     1      -2.428  -0.170   0.025  0.00  0.00    -0.325 N 
ATOM     22  H   UNL     1      -2.471   0.799   0.030  0.00  0.00    +0.145 HD
ATOM     23  H   UNL     1      -3.246  -0.692   0.030  0.00  0.00    +0.145 HD
ENDBRANCH  18  19
ENDBRANCH  13  17
ENDBRANCH   1  13
TORSDOF 5
