REMARK  Name = ZINC06135908
REMARK  5 active torsions:
REMARK  status: ('A' for Active; 'I' for Inactive)
REMARK    1  A    between atoms: C_1  and  N_2
REMARK    2  A    between atoms: N_2  and  C_3
REMARK    3  A    between atoms: N_2  and  C_4
REMARK    4  A    between atoms: C_7  and  C_10
REMARK    5  A    between atoms: C_27  and  C_29
REMARK                            x       y       z     vdW  Elec       q    Type
REMARK                         _______ _______ _______ _____ _____    ______ ____
ROOT
ATOM      1  C   UNL     1       0.133  -2.562  -4.933  0.00  0.00    +0.234 C 
ATOM      2  C   UNL     1       1.512  -2.746  -5.493  0.00  0.00    +0.027 C 
ATOM      3  C   UNL     1       2.045  -1.828  -6.325  0.00  0.00    +0.083 C 
ATOM      4  C   UNL     1       1.211  -0.648  -6.667  0.00  0.00    +0.042 A 
ATOM      5  C   UNL     1       1.763   0.492  -7.234  0.00  0.00    +0.013 A 
ATOM      6  C   UNL     1       0.950   1.568  -7.534  0.00  0.00    +0.001 A 
ATOM      7  C   UNL     1      -0.408   1.510  -7.269  0.00  0.00    +0.004 A 
ATOM      8  C   UNL     1      -0.966   0.378  -6.705  0.00  0.00    +0.046 A 
ATOM      9  C   UNL     1      -0.163  -0.708  -6.401  0.00  0.00    +0.131 A 
ATOM     10  O   UNL     1      -0.681  -1.830  -5.851  0.00  0.00    -0.479 OA
ATOM     11  N   UNL     1       3.293  -1.973  -6.836  0.00  0.00    -0.213 NA
ATOM     12  C   UNL     1       4.081  -2.993  -6.587  0.00  0.00    +0.237 C 
ATOM     13  N   UNL     1       5.330  -3.291  -7.007  0.00  0.00    -0.205 NA
ATOM     14  C   UNL     1       5.721  -4.427  -6.497  0.00  0.00    +0.203 C 
ATOM     15  N   UNL     1       4.734  -4.934  -5.707  0.00  0.00    -0.251 N 
ATOM     16  N   UNL     1       3.679  -4.021  -5.757  0.00  0.00    -0.208 N 
ATOM     17  C   UNL     1       2.346  -3.960  -5.146  0.00  0.00    +0.160 C 
ATOM     18  H   UNL     1       4.760  -5.766  -5.209  0.00  0.00    +0.171 HD
ENDROOT
BRANCH  17  19
ATOM     19  C   UNL     1       2.513  -4.003  -3.649  0.00  0.00    -0.003 A 
ATOM     20  C   UNL     1       3.505  -3.255  -3.042  0.00  0.00    +0.009 A 
ATOM     21  C   UNL     1       3.659  -3.294  -1.669  0.00  0.00    +0.020 A 
ATOM     22  C   UNL     1       2.819  -4.081  -0.901  0.00  0.00    +0.042 A 
ATOM     23  C   UNL     1       1.826  -4.829  -1.507  0.00  0.00    +0.040 A 
ATOM     24  C   UNL     1       1.670  -4.786  -2.881  0.00  0.00    +0.048 A 
ATOM     25 CL   UNL     1       0.420  -5.720  -3.642  0.00  0.00    -0.083 Cl
ATOM     26 CL   UNL     1       3.013  -4.130   0.824  0.00  0.00    -0.083 Cl
ENDBRANCH  17  19
BRANCH   1  30
ATOM     27  C   UNL     1       0.383  -0.414  -1.246  0.00  0.00    +0.029 A 
ATOM     28  C   UNL     1       0.014  -1.753  -1.248  0.00  0.00    +0.023 A 
ATOM     29  C   UNL     1      -0.066  -2.444  -2.441  0.00  0.00    +0.009 A 
ATOM     30  C   UNL     1       0.221  -1.804  -3.633  0.00  0.00    -0.003 A 
ATOM     31  C   UNL     1       0.589  -0.471  -3.635  0.00  0.00    +0.009 A 
ATOM     32  C   UNL     1       0.665   0.227  -2.445  0.00  0.00    +0.023 A 
BRANCH  27  34
ATOM     33  C   UNL     1       0.848   1.702  -0.042  0.00  0.00    +0.129 C 
ATOM     34  N   UNL     1       0.465   0.288  -0.041  0.00  0.00    -0.336 N 
ATOM     35  C   UNL     1       0.167  -0.390   1.223  0.00  0.00    +0.129 C 
ENDBRANCH  27  34
ENDBRANCH   1  30
TORSDOF 3
