REMARK  Name = ZINC02412031
REMARK  5 active torsions:
REMARK  status: ('A' for Active; 'I' for Inactive)
REMARK    1  A    between atoms: C_1  and  C_2
REMARK    2  A    between atoms: C_9  and  N_27
REMARK    3  A    between atoms: C_10  and  C_13
REMARK    4  A    between atoms: N_17  and  C_21
REMARK    5  A    between atoms: C_30  and  C_33
REMARK                            x       y       z     vdW  Elec       q    Type
REMARK                         _______ _______ _______ _____ _____    ______ ____
ROOT
ATOM      1  C   UNL     1       0.985   3.592  -0.771  0.00  0.00    +0.047 C 
ATOM      2  C   UNL     1       1.054   2.103  -0.552  0.00  0.00    -0.007 A 
ATOM      3  C   UNL     1       2.255   1.458  -0.598  0.00  0.00    +0.008 A 
ATOM      4  C   UNL     1       2.303   0.072  -0.392  0.00  0.00    +0.019 A 
ATOM      5  C   UNL     1       1.166  -0.617  -0.150  0.00  0.00    +0.096 A 
ATOM      6  N   UNL     1      -0.039   0.018  -0.102  0.00  0.00    -0.267 N 
ATOM      7  C   UNL     1      -0.118   1.369  -0.298  0.00  0.00    +0.145 A 
ATOM      8  N   UNL     1      -1.287   2.010  -0.249  0.00  0.00    -0.213 NA
ATOM      9  C   UNL     1      -2.423   1.367  -0.021  0.00  0.00    +0.136 A 
ATOM     10  C   UNL     1      -2.402  -0.032   0.191  0.00  0.00    +0.081 A 
ATOM     11  C   UNL     1      -1.156  -0.700   0.143  0.00  0.00    +0.267 A 
ATOM     12  O   UNL     1      -1.091  -1.905   0.320  0.00  0.00    -0.267 OA
ENDROOT
BRANCH  10  13
ATOM     13  C   UNL     1      -3.598  -0.744   0.444  0.00  0.00    +0.037 C 
ATOM     14  C   UNL     1      -4.401  -0.383   1.487  0.00  0.00    +0.077 C 
ATOM     15  C   UNL     1      -5.601  -0.987   1.958  0.00  0.00    +0.259 C 
ATOM     16  O   UNL     1      -6.058  -1.978   1.416  0.00  0.00    -0.269 OA
ATOM     17  N   UNL     1      -6.202  -0.445   3.003  0.00  0.00    -0.252 N 
ATOM     18  C   UNL     1      -5.698   0.658   3.600  0.00  0.00    +0.121 C 
ATOM     19  S   UNL     1      -6.307   1.522   4.947  0.00  0.00    -0.027 S 
ATOM     20  S   UNL     1      -4.235   0.984   2.628  0.00  0.00    -0.061 S 
BRANCH  17  21
ATOM     21  C   UNL     1      -7.436  -1.045   3.517  0.00  0.00    +0.083 C 
ATOM     22  C   UNL     1      -8.571  -0.023   3.439  0.00  0.00    +0.023 C 
ATOM     23  C   UNL     1      -9.860  -0.649   3.976  0.00  0.00    +0.002 C 
ATOM     24  C   UNL     1      -9.653  -1.071   5.432  0.00  0.00    +0.000 C 
ATOM     25  C   UNL     1      -8.517  -2.094   5.510  0.00  0.00    +0.002 C 
ATOM     26  C   UNL     1      -7.229  -1.468   4.973  0.00  0.00    +0.023 C 
ENDBRANCH  17  21
ENDBRANCH  10  13
BRANCH   9  27
ATOM     27  N   UNL     1      -3.615   2.057   0.017  0.00  0.00    -0.314 N 
ATOM     28  C   UNL     1      -4.500   1.639  -1.077  0.00  0.00    +0.107 C 
ATOM     29  C   UNL     1      -5.863   2.316  -0.919  0.00  0.00    +0.031 C 
ATOM     30  C   UNL     1      -5.678   3.836  -0.939  0.00  0.00    +0.078 C 
ATOM     31  C   UNL     1      -4.714   4.240   0.180  0.00  0.00    +0.031 C 
ATOM     32  C   UNL     1      -3.384   3.507  -0.010  0.00  0.00    +0.107 C 
BRANCH  30  33
ATOM     33  C   UNL     1      -7.010   4.508  -0.724  0.00  0.00    +0.214 C 
ATOM     34  O   UNL     1      -7.173   5.239   0.230  0.00  0.00    -0.276 OA
ATOM     35  N   UNL     1      -8.019   4.298  -1.592  0.00  0.00    -0.329 N 
ATOM     36  H   UNL     1      -7.888   3.713  -2.355  0.00  0.00    +0.145 HD
ATOM     37  H   UNL     1      -8.876   4.731  -1.454  0.00  0.00    +0.145 HD
ENDBRANCH  30  33
ENDBRANCH   9  27
TORSDOF 4
