REMARK  Name = ZINC00909167
REMARK  10 active torsions:
REMARK  status: ('A' for Active; 'I' for Inactive)
REMARK    1  A    between atoms: C_1  and  C_2
REMARK    2  A    between atoms: C_2  and  C_3
REMARK    3  A    between atoms: C_3  and  C_4
REMARK    4  A    between atoms: C_3  and  C_5
REMARK    5  A    between atoms: C_3  and  N_6
REMARK    6  A    between atoms: C_7  and  C_11
REMARK    7  A    between atoms: C_11  and  C_13
REMARK    8  A    between atoms: C_11  and  N_65
REMARK    9  A    between atoms: C_18  and  C_26
REMARK   10  A    between atoms: C_19  and  C_25
REMARK                            x       y       z     vdW  Elec       q    Type
REMARK                         _______ _______ _______ _____ _____    ______ ____
ROOT
ATOM      1  C   UNL     1      -0.945  -0.513  -0.223  0.00  0.00    +0.039 C 
ENDROOT
BRANCH   1   2
ATOM      2  C   UNL     1       0.273   0.237  -0.699  0.00  0.00    +0.011 A 
ATOM      3  C   UNL     1       1.380  -0.446  -1.082  0.00  0.00    +0.017 A 
ATOM      4  C   UNL     1       2.546   0.312  -1.538  0.00  0.00    -0.001 A 
ATOM      5  C   UNL     1       3.716  -0.337  -1.947  0.00  0.00    +0.010 A 
ATOM      6  C   UNL     1       4.787   0.399  -2.368  0.00  0.00    +0.004 A 
ATOM      7  C   UNL     1       4.724   1.786  -2.395  0.00  0.00    -0.046 A 
ATOM      8  C   UNL     1       3.582   2.446  -1.997  0.00  0.00    -0.024 A 
ATOM      9  C   UNL     1       2.479   1.718  -1.564  0.00  0.00    +0.052 A 
ATOM     10  N   UNL     1       1.323   2.352  -1.162  0.00  0.00    -0.322 N 
ATOM     11  H   UNL     1       1.277   3.351  -1.181  0.00  0.00    +0.169 HD
ATOM     12  C   UNL     1       0.257   1.647  -0.744  0.00  0.00    +0.251 A 
ATOM     13  O   UNL     1      -0.750   2.241  -0.400  0.00  0.00    -0.268 OA
ATOM     14  C   UNL     1       3.528   3.952  -2.031  0.00  0.00    +0.046 C 
ATOM     15  C   UNL     1       5.918   2.577  -2.863  0.00  0.00    +0.044 C 
ENDBRANCH   1   2
BRANCH   1  22
ATOM     16  C   UNL     1      -0.131  -0.055   2.021  0.00  0.00    -0.077 C 
ATOM     17  C   UNL     1      -0.498   0.145   3.466  0.00  0.00    -0.019 C 
ATOM     18  C   UNL     1      -0.656  -1.241   4.127  0.00  0.00    -0.002 C 
ATOM     19  C   UNL     1      -1.936  -1.862   3.805  0.00  0.00    -0.002 C 
ATOM     20  C   UNL     1      -2.103  -2.099   2.289  0.00  0.00    -0.019 C 
ATOM     21  C   UNL     1      -2.479  -0.795   1.641  0.00  0.00    -0.077 C 
ATOM     22  N   UNL     1      -1.321  -0.002   1.105  0.00  0.00    +0.389 N 
ATOM     23  H   UNL     1      -1.615   0.978   1.012  0.00  0.00    -0.080 HD
ENDBRANCH   1  22
BRANCH   1  25
ATOM     24  N   UNL     1      -2.621  -1.134  -2.042  0.00  0.00    -0.225 N 
ATOM     25  C   UNL     1      -2.092  -0.259  -1.167  0.00  0.00    +0.143 A 
ATOM     26  N   UNL     1      -2.772   0.854  -1.291  0.00  0.00    -0.115 NA
ATOM     27  N   UNL     1      -3.666   0.675  -2.201  0.00  0.00    -0.023 NA
ATOM     28  N   UNL     1      -3.579  -0.526  -2.655  0.00  0.00    -0.043 NA
BRANCH  24  29
ATOM     29  C   UNL     1      -2.188  -2.517  -2.259  0.00  0.00    +0.061 C 
ATOM     30  C   UNL     1      -0.701  -2.537  -2.615  0.00  0.00    +0.036 C 
ATOM     31  C   UNL     1      -2.418  -3.329  -0.983  0.00  0.00    +0.036 C 
BRANCH  29  33
ATOM     32  C   UNL     1      -2.544  -4.574  -3.632  0.00  0.00    +0.006 C 
ATOM     33  C   UNL     1      -2.995  -3.130  -3.405  0.00  0.00    +0.026 C 
ENDBRANCH  29  33
ENDBRANCH  24  29
ENDBRANCH   1  25
TORSDOF 5
