REMARK  Name = ZINC13811680
REMARK  6 active torsions:
REMARK  status: ('A' for Active; 'I' for Inactive)
REMARK    1  A    between atoms: C_1  and  C_2
REMARK    2  A    between atoms: C_7  and  C_12
REMARK    3  A    between atoms: C_13  and  C_14
REMARK    4  A    between atoms: C_13  and  C_16
REMARK    5  A    between atoms: N_18  and  C_19
REMARK    6  A    between atoms: C_20  and  C_28
REMARK                            x       y       z     vdW  Elec       q    Type
REMARK                         _______ _______ _______ _____ _____    ______ ____
ROOT
ATOM      1  C   UNL     1      -2.969   1.168   5.939  0.00  0.00    +0.259 C 
ATOM      2  O   UNL     1      -3.902   1.897   5.663  0.00  0.00    -0.269 OA
ATOM      3  N   UNL     1      -2.483   0.316   5.014  0.00  0.00    -0.275 N 
ATOM      4  H   UNL     1      -1.739  -0.266   5.234  0.00  0.00    +0.156 HD
ENDROOT
BRANCH   3   5
ATOM      5  C   UNL     1      -3.048   0.271   3.750  0.00  0.00    +0.085 A 
ATOM      6  C   UNL     1      -2.691  -0.531   2.674  0.00  0.00    +0.068 A 
ATOM      7  C   UNL     1      -3.452  -0.383   1.445  0.00  0.00    -0.023 A 
ATOM      8  C   UNL     1      -4.444   0.536   1.485  0.00  0.00    -0.004 A 
ATOM      9  S   UNL     1      -4.378   1.199   3.126  0.00  0.00    -0.077 S 
ATOM     10  C   UNL     1      -5.381   0.904   0.377  0.00  0.00    +0.043 C 
ATOM     11  C   UNL     1      -4.817   0.348  -0.939  0.00  0.00    +0.005 C 
ATOM     12  C   UNL     1      -4.415  -1.115  -0.724  0.00  0.00    +0.005 C 
ATOM     13  C   UNL     1      -3.184  -1.189   0.180  0.00  0.00    +0.037 C 
BRANCH   6  14
ATOM     14  C   UNL     1      -1.589  -1.492   2.775  0.00  0.00    +0.244 C 
ATOM     15  O   UNL     1      -0.456  -1.151   2.488  0.00  0.00    -0.270 OA
ATOM     16  N   UNL     1      -1.829  -2.753   3.185  0.00  0.00    -0.325 N 
ATOM     17  H   UNL     1      -2.732  -3.025   3.413  0.00  0.00    +0.145 HD
ATOM     18  H   UNL     1      -1.100  -3.389   3.251  0.00  0.00    +0.145 HD
ENDBRANCH   6  14
ENDBRANCH   3   5
BRANCH   1  20
ATOM     19  C   UNL     1      -2.766   2.183   8.179  0.00  0.00    +0.032 C 
ATOM     20  C   UNL     1      -2.369   1.216   7.281  0.00  0.00    +0.114 C 
BRANCH  19  26
ATOM     21  C   UNL     1      -6.002   7.864   8.591  0.00  0.00    +0.052 C 
ATOM     22  C   UNL     1      -6.760   6.742   7.877  0.00  0.00    +0.175 C 
ATOM     23  C   UNL     1      -6.687   5.428   8.691  0.00  0.00    +0.083 C 
ATOM     24  C   UNL     1      -5.475   4.749   8.081  0.00  0.00    -0.002 A 
ATOM     25  C   UNL     1      -4.701   3.712   8.506  0.00  0.00    +0.015 A 
ATOM     26  C   UNL     1      -3.607   3.296   7.732  0.00  0.00    -0.023 A 
ATOM     27  C   UNL     1      -3.323   3.959   6.529  0.00  0.00    +0.011 A 
ATOM     28  C   UNL     1      -4.112   4.990   6.112  0.00  0.00    +0.046 A 
ATOM     29  C   UNL     1      -5.204   5.402   6.881  0.00  0.00    +0.124 A 
ATOM     30  O   UNL     1      -6.107   6.391   6.645  0.00  0.00    -0.488 OA
ENDBRANCH  19  26
BRANCH  20  31
ATOM     31  C   UNL     1      -1.373   0.257   7.655  0.00  0.00    +0.104 C 
ATOM     32  N   UNL     1      -0.583  -0.503   7.952  0.00  0.00    -0.191 NA
ENDBRANCH  20  31
ENDBRANCH   1  20
TORSDOF 5
