REMARK  Name = ZINC36064735
REMARK  13 active torsions:
REMARK  status: ('A' for Active; 'I' for Inactive)
REMARK    1  A    between atoms: C_1  and  C_2
REMARK    2  A    between atoms: C_2  and  C_3
REMARK    3  A    between atoms: C_4  and  C_34
REMARK    4  A    between atoms: C_5  and  C_26
REMARK    5  A    between atoms: C_8  and  C_13
REMARK    6  A    between atoms: C_14  and  N_16
REMARK    7  A    between atoms: N_16  and  C_17
REMARK    8  A    between atoms: C_17  and  C_19
REMARK    9  A    between atoms: C_17  and  C_20
REMARK   10  A    between atoms: C_29  and  C_33
REMARK   11  A    between atoms: C_31  and  C_32
REMARK   12  A    between atoms: C_34  and  O_36
REMARK   13  A    between atoms: O_36  and  C_37
REMARK                            x       y       z     vdW  Elec       q    Type
REMARK                         _______ _______ _______ _____ _____    ______ ____
ROOT
ATOM      1  C   UNL     1       1.135  -0.534  -1.283  0.00  0.00    +0.056 C 
ATOM      2  C   UNL     1       2.455  -0.860  -1.532  0.00  0.00    +0.083 C 
ATOM      3  C   UNL     1       2.809  -1.353  -2.917  0.00  0.00    +0.150 C 
ATOM      4  N   UNL     1       1.703  -1.447  -3.906  0.00  0.00    -0.267 N 
ATOM      5  C   UNL     1       1.794  -1.868  -5.218  0.00  0.00    +0.048 C 
ATOM      6  C   UNL     1       0.660  -1.880  -5.953  0.00  0.00    +0.072 C 
ATOM      7  S   UNL     1      -0.545  -1.292  -4.780  0.00  0.00    -0.060 S 
ATOM      8  C   UNL     1       0.466  -1.076  -3.458  0.00  0.00    +0.166 C 
ATOM      9  N   UNL     1       0.223  -0.659  -2.233  0.00  0.00    -0.229 NA
ENDROOT
BRANCH   3  10
ATOM     10  C   UNL     1       3.858  -0.430  -3.483  0.00  0.00    -0.019 A 
ATOM     11  C   UNL     1       3.481   0.670  -4.231  0.00  0.00    +0.006 A 
ATOM     12  C   UNL     1       4.443   1.515  -4.750  0.00  0.00    +0.004 A 
ATOM     13  C   UNL     1       5.783   1.262  -4.521  0.00  0.00    -0.050 A 
ATOM     14  C   UNL     1       6.160   0.162  -3.773  0.00  0.00    +0.007 A 
ATOM     15  C   UNL     1       5.197  -0.681  -3.250  0.00  0.00    -0.045 A 
ATOM     16  C   UNL     1       5.609  -1.877  -2.430  0.00  0.00    +0.044 C 
ATOM     17  C   UNL     1       6.832   2.183  -5.088  0.00  0.00    +0.044 C 
ENDBRANCH   3  10
BRANCH   5  18
ATOM     18  C   UNL     1       3.079  -2.288  -5.795  0.00  0.00    +0.091 C 
ATOM     19  C   UNL     1       3.120  -2.820  -7.032  0.00  0.00    +0.239 C 
ATOM     20  O   UNL     1       1.998  -2.861  -7.789  0.00  0.00    -0.271 OA
BRANCH  19  21
ATOM     21  N   UNL     1       4.311  -3.324  -7.529  0.00  0.00    -0.305 N 
ATOM     22  H   UNL     1       5.097  -3.360  -6.962  0.00  0.00    +0.150 HD
BRANCH  21  23
ATOM     23  C   UNL     1       4.382  -3.802  -8.912  0.00  0.00    +0.100 C 
ATOM     24  C   UNL     1       3.821  -5.223  -8.990  0.00  0.00    +0.033 C 
BRANCH  23  25
ATOM     25  C   UNL     1       5.818  -3.803  -9.370  0.00  0.00    -0.027 A 
ATOM     26  C   UNL     1       6.818  -4.213  -8.508  0.00  0.00    +0.005 A 
ATOM     27  C   UNL     1       8.135  -4.214  -8.927  0.00  0.00    +0.000 A 
ATOM     28  C   UNL     1       8.452  -3.805 -10.209  0.00  0.00    +0.000 A 
ATOM     29  C   UNL     1       7.452  -3.396 -11.071  0.00  0.00    +0.000 A 
ATOM     30  C   UNL     1       6.135  -3.399 -10.653  0.00  0.00    +0.005 A 
ENDBRANCH  23  25
ENDBRANCH  21  23
ENDBRANCH  19  21
ENDBRANCH   5  18
BRANCH   1  32
ATOM     31  C   UNL     1       0.825   1.488   0.118  0.00  0.00    +0.010 C 
ATOM     32  C   UNL     1       0.732  -0.038   0.082  0.00  0.00    +0.053 C 
ENDBRANCH   1  32
BRANCH   2  33
ATOM     33  C   UNL     1       3.431  -0.737  -0.536  0.00  0.00    +0.339 C 
ATOM     34  O   UNL     1       4.136   0.255  -0.493  0.00  0.00    -0.245 OA
BRANCH  33  35
ATOM     35  O   UNL     1       3.590  -1.720   0.378  0.00  0.00    -0.465 OA
ATOM     36  C   UNL     1       4.605  -1.529   1.366  0.00  0.00    +0.280 C 
ENDBRANCH  33  35
ENDBRANCH   2  33
TORSDOF 8
