REMARK  Name = ZINC22553882
REMARK  7 active torsions:
REMARK  status: ('A' for Active; 'I' for Inactive)
REMARK    1  A    between atoms: C_1  and  C_2
REMARK    2  A    between atoms: C_4  and  C_27
REMARK    3  A    between atoms: C_6  and  C_26
REMARK    4  A    between atoms: C_9  and  C_12
REMARK    5  A    between atoms: C_12  and  N_13
REMARK    6  A    between atoms: C_14  and  C_15
REMARK    7  A    between atoms: C_17  and  N_23
REMARK                            x       y       z     vdW  Elec       q    Type
REMARK                         _______ _______ _______ _____ _____    ______ ____
ROOT
ATOM      1  C   UNL     1       0.988  -1.460  -2.106  0.00  0.00    +0.119 C 
ENDROOT
BRANCH   1  10
ATOM      2  C   UNL     1      -1.799   2.666  -1.686  0.00  0.00    +0.011 C 
ATOM      3  C   UNL     1      -1.513   1.286  -1.091  0.00  0.00    -0.031 C 
ATOM      4  C   UNL     1      -2.783   0.434  -1.146  0.00  0.00    +0.013 C 
ATOM      5  C   UNL     1      -2.497  -0.946  -0.551  0.00  0.00    -0.031 C 
ATOM      6  C   UNL     1      -2.049  -0.791   0.904  0.00  0.00    +0.013 C 
ATOM      7  C   UNL     1      -0.779   0.061   0.959  0.00  0.00    -0.031 C 
ATOM      8  C   UNL     1      -1.065   1.441   0.364  0.00  0.00    +0.013 C 
ATOM      9  C   UNL     1       0.329  -0.622   0.154  0.00  0.00    +0.015 C 
ATOM     10  C   UNL     1      -0.119  -0.777  -1.301  0.00  0.00    -0.010 C 
ATOM     11  C   UNL     1      -0.405   0.603  -1.896  0.00  0.00    +0.015 C 
ATOM     12  C   UNL     1      -1.389  -1.629  -1.355  0.00  0.00    +0.015 C 
ATOM     13  C   UNL     1      -0.331   0.215   2.413  0.00  0.00    +0.011 C 
ATOM     14  C   UNL     1      -3.766  -1.798  -0.605  0.00  0.00    +0.011 C 
ENDBRANCH   1  10
BRANCH   1  15
ATOM     15  N   UNL     1       0.559  -1.609  -3.498  0.00  0.00    -0.389 N 
ATOM     16  C   UNL     1       1.305  -1.096  -4.488  0.00  0.00    +0.090 C 
ATOM     17  H   UNL     1      -0.265  -2.077  -3.705  0.00  0.00    +0.159 HD
BRANCH  16  18
ATOM     18  C   UNL     1       2.605  -0.656  -4.227  0.00  0.00    +0.041 A 
ATOM     19  C   UNL     1       3.383  -1.262  -3.215  0.00  0.00    +0.046 A 
ATOM     20  C   UNL     1       4.646  -0.819  -2.975  0.00  0.00    +0.128 A 
ATOM     21  C   UNL     1       5.201   0.227  -3.707  0.00  0.00    +0.051 A 
ATOM     22  C   UNL     1       4.505   0.854  -4.695  0.00  0.00    +0.067 A 
ATOM     23  C   UNL     1       3.195   0.443  -5.001  0.00  0.00    +0.201 A 
ATOM     24  O   UNL     1       2.559   0.993  -5.890  0.00  0.00    -0.286 OA
ATOM     25 BR   UNL     1       5.302   2.271  -5.661  0.00  0.00    -0.046 Br
BRANCH  20  26
ATOM     26  N   UNL     1       5.448  -1.464  -1.912  0.00  0.00    +0.056 N 
ATOM     27  O   UNL     1       4.979  -2.373  -1.268  0.00  0.00    -0.126 OA
ATOM     28  O   UNL     1       6.573  -1.081  -1.687  0.00  0.00    -0.126 OA
ENDBRANCH  20  26
ENDBRANCH  16  18
ENDBRANCH   1  15
TORSDOF 4
