REMARK  Name = ZINC01801533
REMARK  9 active torsions:
REMARK  status: ('A' for Active; 'I' for Inactive)
REMARK    1  A    between atoms: C_1  and  C_2
REMARK    2  A    between atoms: C_5  and  N_8
REMARK    3  A    between atoms: C_20  and  S_21
REMARK    4  A    between atoms: S_21  and  C_22
REMARK    5  A    between atoms: C_22  and  C_23
REMARK    6  A    between atoms: C_23  and  C_25
REMARK    7  A    between atoms: C_34  and  C_37
REMARK    8  A    between atoms: C_37  and  C_38
REMARK    9  A    between atoms: C_37  and  C_39
REMARK                            x       y       z     vdW  Elec       q    Type
REMARK                         _______ _______ _______ _____ _____    ______ ____
ROOT
ATOM      1  N   UNL     1       0.059  -4.170  -0.021  0.00  0.00    -0.245 N 
ATOM      2  C   UNL     1      -0.035  -4.823  -1.191  0.00  0.00    +0.268 A 
ATOM      3  O   UNL     1      -0.136  -4.199  -2.232  0.00  0.00    -0.266 OA
ATOM      4  C   UNL     1      -0.016  -6.303  -1.211  0.00  0.00    +0.075 A 
ATOM      5  C   UNL     1      -0.102  -7.192  -2.367  0.00  0.00    -0.018 A 
ATOM      6  C   UNL     1      -0.059  -8.510  -2.078  0.00  0.00    +0.021 A 
ATOM      7  S   UNL     1       0.090  -8.576  -0.319  0.00  0.00    -0.072 S 
ATOM      8  C   UNL     1       0.099  -6.938   0.022  0.00  0.00    +0.102 A 
ATOM      9  N   UNL     1       0.193  -6.224   1.198  0.00  0.00    -0.249 N 
ATOM     10  C   UNL     1       0.179  -4.854   1.179  0.00  0.00    +0.245 A 
ATOM     11  N   UNL     1       0.290  -4.431   2.416  0.00  0.00    -0.109 NA
ATOM     12  N   UNL     1       0.382  -5.550   3.252  0.00  0.00    -0.120 NA
ATOM     13  C   UNL     1       0.313  -6.623   2.503  0.00  0.00    +0.198 A 
ATOM     14  C   UNL     1      -0.124  -9.630  -3.068  0.00  0.00    +0.203 C 
ATOM     15  O   UNL     1       0.086  -9.072  -4.375  0.00  0.00    -0.371 OA
ATOM     16  C   UNL     1      -0.718  -7.921  -4.645  0.00  0.00    +0.126 C 
ATOM     17  C   UNL     1      -0.232  -6.729  -3.812  0.00  0.00    +0.068 C 
ENDROOT
BRANCH   1  22
ATOM     18  C   UNL     1      -0.017   1.503   0.008  0.00  0.00    +0.044 C 
ATOM     19  C   UNL     1       0.003  -0.004   0.001  0.00  0.00    -0.050 A 
ATOM     20  C   UNL     1       1.206  -0.677  -0.110  0.00  0.00    +0.005 A 
ATOM     21  C   UNL     1       1.228  -2.058  -0.117  0.00  0.00    +0.026 A 
ATOM     22  C   UNL     1       0.040  -2.771  -0.013  0.00  0.00    +0.053 A 
ATOM     23  C   UNL     1      -1.166  -2.091   0.098  0.00  0.00    +0.026 A 
ATOM     24  C   UNL     1      -1.181  -0.710   0.110  0.00  0.00    +0.005 A 
ENDBRANCH   1  22
BRANCH  16  25
ATOM     25  C   UNL     1      -0.619  -7.570  -6.131  0.00  0.00    +0.012 C 
ATOM     26  C   UNL     1      -1.117  -8.749  -6.968  0.00  0.00    +0.010 C 
ATOM     27  C   UNL     1      -1.478  -6.338  -6.423  0.00  0.00    +0.010 C 
ENDBRANCH  16  25
BRANCH  13  28
ATOM     28  S   UNL     1       0.384  -8.289   3.073  0.00  0.00    -0.078 S 
BRANCH  28  29
ATOM     29  C   UNL     1       0.541  -8.130   4.874  0.00  0.00    +0.157 C 
BRANCH  29  30
ATOM     30  C   UNL     1       0.612  -9.502   5.494  0.00  0.00    +0.173 C 
ATOM     31  O   UNL     1       0.563 -10.489   4.792  0.00  0.00    -0.291 OA
BRANCH  30  32
ATOM     32  C   UNL     1       0.743  -9.643   6.953  0.00  0.00    +0.018 A 
ATOM     33  C   UNL     1       0.794  -8.507   7.767  0.00  0.00    +0.013 A 
ATOM     34  C   UNL     1       0.916  -8.646   9.133  0.00  0.00    +0.020 A 
ATOM     35  C   UNL     1       0.987  -9.909   9.700  0.00  0.00    +0.041 A 
ATOM     36  C   UNL     1       0.937 -11.039   8.899  0.00  0.00    +0.020 A 
ATOM     37  C   UNL     1       0.810 -10.914   7.532  0.00  0.00    +0.013 A 
ATOM     38 CL   UNL     1       1.142 -10.075  11.421  0.00  0.00    -0.084 Cl
ENDBRANCH  30  32
ENDBRANCH  29  30
ENDBRANCH  28  29
ENDBRANCH  13  28
TORSDOF 6
