REMARK  Name = ZINC65302355
REMARK  7 active torsions:
REMARK  status: ('A' for Active; 'I' for Inactive)
REMARK    1  A    between atoms: C_1  and  C_2
REMARK    2  A    between atoms: C_3  and  C_9
REMARK    3  A    between atoms: C_4  and  C_8
REMARK    4  A    between atoms: N_5  and  C_7
REMARK    5  A    between atoms: C_9  and  C_10
REMARK    6  A    between atoms: C_9  and  N_11
REMARK    7  A    between atoms: N_14  and  C_15
REMARK                            x       y       z     vdW  Elec       q    Type
REMARK                         _______ _______ _______ _____ _____    ______ ____
ROOT
ATOM      1  N   UNL     1       0.967   0.741  -2.722  0.00  0.00    -0.292 N 
ATOM      2  C   UNL     1       1.496   1.000  -3.934  0.00  0.00    +0.304 C 
ATOM      3  O   UNL     1       1.179   0.324  -4.894  0.00  0.00    -0.252 OA
ATOM      4  N   UNL     1       2.377   2.010  -4.083  0.00  0.00    -0.268 N 
ATOM      5  H   UNL     1       1.220   1.281  -1.957  0.00  0.00    +0.151 HD
ATOM      6  H   UNL     1       2.569   2.600  -3.338  0.00  0.00    +0.156 HD
ENDROOT
BRANCH   4   7
ATOM      7  C   UNL     1       3.016   2.205  -5.314  0.00  0.00    +0.049 A 
ATOM      8  C   UNL     1       3.172   1.143  -6.194  0.00  0.00    +0.024 A 
ATOM      9  C   UNL     1       3.802   1.339  -7.407  0.00  0.00    +0.002 A 
ATOM     10  C   UNL     1       4.278   2.593  -7.746  0.00  0.00    +0.001 A 
ATOM     11  C   UNL     1       4.125   3.653  -6.872  0.00  0.00    +0.017 A 
ATOM     12  C   UNL     1       3.490   3.465  -5.659  0.00  0.00    +0.039 A 
ATOM     13 BR   UNL     1       3.275   4.917  -4.468  0.00  0.00    -0.048 Br
ENDBRANCH   4   7
BRANCH   1  14
ATOM     14  C   UNL     1       0.010  -0.356  -2.561  0.00  0.00    +0.105 C 
ATOM     15  C   UNL     1      -1.396   0.139  -2.906  0.00  0.00    +0.033 C 
BRANCH  14  18
ATOM     16  C   UNL     1       0.014   1.476   0.026  0.00  0.00    +0.068 C 
ATOM     17  C   UNL     1       0.037  -0.031   0.009  0.00  0.00    +0.065 A 
ATOM     18  C   UNL     1       0.036  -0.839  -1.133  0.00  0.00    +0.016 A 
ATOM     19  C   UNL     1       0.061  -2.130  -0.730  0.00  0.00    +0.041 A 
ATOM     20  N   UNL     1       0.078  -2.139   0.619  0.00  0.00    -0.271 N 
ATOM     21  N   UNL     1       0.068  -0.810   1.060  0.00  0.00    -0.176 NA
ATOM     22  C   UNL     1       0.107  -3.330   1.473  0.00  0.00    +0.172 C 
ATOM     23  C   UNL     1       0.069  -3.341  -1.627  0.00  0.00    +0.065 C 
ENDBRANCH  14  18
ENDBRANCH   1  14
TORSDOF 3
