REMARK  Name = ZINC16260581
REMARK  6 active torsions:
REMARK  status: ('A' for Active; 'I' for Inactive)
REMARK    1  A    between atoms: C_1  and  C_2
REMARK    2  A    between atoms: C_3  and  C_16
REMARK    3  A    between atoms: N_6  and  C_9
REMARK    4  A    between atoms: C_16  and  C_17
REMARK    5  A    between atoms: C_17  and  C_18
REMARK    6  A    between atoms: N_20  and  C_21
REMARK                            x       y       z     vdW  Elec       q    Type
REMARK                         _______ _______ _______ _____ _____    ______ ____
ROOT
ATOM      1  C   UNL     1      -1.841  -3.748   1.436  0.00  0.00    +0.101 C 
ENDROOT
BRANCH   1   2
ATOM      2  C   UNL     1      -2.706  -4.982   1.436  0.00  0.00    +0.218 C 
ATOM      3  O   UNL     1      -2.994  -5.521   0.389  0.00  0.00    -0.275 OA
ATOM      4  N   UNL     1      -3.161  -5.486   2.601  0.00  0.00    -0.285 N 
ATOM      5  H   UNL     1      -2.877  -5.096   3.442  0.00  0.00    +0.155 HD
BRANCH   4   6
ATOM      6  C   UNL     1      -4.043  -6.574   2.596  0.00  0.00    +0.035 A 
ATOM      7  C   UNL     1      -5.040  -6.663   3.561  0.00  0.00    +0.025 A 
ATOM      8  C   UNL     1      -5.915  -7.730   3.558  0.00  0.00    +0.029 A 
ATOM      9  C   UNL     1      -5.795  -8.722   2.597  0.00  0.00    +0.067 A 
ATOM     10  C   UNL     1      -4.792  -8.638   1.629  0.00  0.00    +0.069 A 
ATOM     11  C   UNL     1      -3.917  -7.562   1.631  0.00  0.00    +0.051 A 
ATOM     12  N   UNL     1      -4.921  -9.761   0.816  0.00  0.00    -0.306 N 
ATOM     13  H   UNL     1      -4.362  -9.978   0.054  0.00  0.00    +0.170 HD
ATOM     14  C   UNL     1      -5.956 -10.495   1.268  0.00  0.00    +0.325 A 
ATOM     15  O   UNL     1      -6.337 -11.543   0.780  0.00  0.00    -0.247 OA
ATOM     16  N   UNL     1      -6.504  -9.896   2.341  0.00  0.00    -0.306 N 
ATOM     17  H   UNL     1      -7.262 -10.224   2.850  0.00  0.00    +0.170 HD
ENDBRANCH   4   6
ENDBRANCH   1   2
BRANCH   1  18
ATOM     18  C   UNL     1      -1.464  -3.389  -0.003  0.00  0.00    +0.051 C 
BRANCH  18  21
ATOM     19  C   UNL     1       1.649  -3.343  -0.044  0.00  0.00    +0.065 C 
ATOM     20  C   UNL     1       0.749  -2.134  -0.021  0.00  0.00    +0.038 A 
ATOM     21  C   UNL     1      -0.599  -2.155  -0.003  0.00  0.00    +0.040 A 
ATOM     22  C   UNL     1      -1.059  -0.818   0.016  0.00  0.00    +0.275 A 
ATOM     23  O   UNL     1      -2.222  -0.458   0.035  0.00  0.00    -0.266 OA
ATOM     24  N   UNL     1       0.024  -0.014   0.008  0.00  0.00    -0.219 N 
ATOM     25  N   UNL     1       1.161  -0.832  -0.020  0.00  0.00    -0.294 N 
ATOM     26  H   UNL     1       2.082  -0.526  -0.035  0.00  0.00    +0.187 HD
BRANCH  24  27
ATOM     27  C   UNL     1       0.013   1.386   0.021  0.00  0.00    +0.067 A 
ATOM     28  C   UNL     1      -1.194   2.072   0.037  0.00  0.00    +0.030 A 
ATOM     29  C   UNL     1      -1.203   3.453   0.056  0.00  0.00    +0.040 A 
ATOM     30  C   UNL     1      -0.008   4.154   0.045  0.00  0.00    +0.124 A 
ATOM     31  C   UNL     1       1.197   3.471   0.024  0.00  0.00    +0.040 A 
ATOM     32  C   UNL     1       1.210   2.091   0.011  0.00  0.00    +0.030 A 
ATOM     33  F   UNL     1      -0.019   5.504   0.057  0.00  0.00    -0.205 F 
ENDBRANCH  24  27
ENDBRANCH  18  21
ENDBRANCH   1  18
TORSDOF 5
