REMARK  Name = ZINC09915829
REMARK  10 active torsions:
REMARK  status: ('A' for Active; 'I' for Inactive)
REMARK    1  A    between atoms: C_1  and  C_2
REMARK    2  A    between atoms: C_2  and  C_17
REMARK    3  A    between atoms: C_3  and  O_16
REMARK    4  A    between atoms: C_6  and  C_13
REMARK    5  A    between atoms: C_6  and  C_14
REMARK    6  A    between atoms: C_7  and  C_11
REMARK    7  A    between atoms: C_7  and  O_12
REMARK    8  A    between atoms: C_8  and  C_9
REMARK    9  A    between atoms: C_8  and  O_10
REMARK   10  A    between atoms: C_14  and  O_15
REMARK                            x       y       z     vdW  Elec       q    Type
REMARK                         _______ _______ _______ _____ _____    ______ ____
ROOT
ATOM      1  C   UNL     1       2.007   1.790  -1.398  0.00  0.00    +0.019 C 
ATOM      2  C   UNL     1       1.399   1.973  -0.001  0.00  0.00    +0.047 C 
ATOM      3  C   UNL     1      -0.017   1.411   0.010  0.00  0.00    +0.256 C 
ATOM      4  O   UNL     1       0.002  -0.004   0.002  0.00  0.00    -0.340 OA
ATOM      5  C   UNL     1       0.685  -0.671   1.047  0.00  0.00    +0.123 C 
ATOM      6  C   UNL     1       2.103  -0.158   1.250  0.00  0.00    +0.123 C 
ATOM      7  C   UNL     1       2.293   1.333   1.048  0.00  0.00    +0.104 C 
ATOM      8  C   UNL     1       2.115   2.066   2.389  0.00  0.00    +0.045 C 
ATOM      9  C   UNL     1       3.053  -0.936   0.324  0.00  0.00    +0.047 C 
ATOM     10  C   UNL     1      -0.103  -0.590   2.359  0.00  0.00    +0.047 C 
ATOM     11  C   UNL     1       1.320   3.486   0.282  0.00  0.00    +0.019 C 
ENDROOT
BRANCH   7  12
ATOM     12  O   UNL     1       3.666   1.547   0.639  0.00  0.00    -0.385 OA
ATOM     13  H   UNL     1       4.320   1.244   1.283  0.00  0.00    +0.210 HD
ENDBRANCH   7  12
BRANCH   6  14
ATOM     14  O   UNL     1       2.491  -0.475   2.607  0.00  0.00    -0.383 OA
ATOM     15  H   UNL     1       2.479  -1.420   2.809  0.00  0.00    +0.210 HD
ENDBRANCH   6  14
BRANCH   3  16
ATOM     16  O   UNL     1      -0.759   1.933   1.109  0.00  0.00    -0.366 OA
ATOM     17  H   UNL     1      -1.687   1.660   1.122  0.00  0.00    +0.212 HD
ENDBRANCH   3  16
BRANCH   5  18
ATOM     18  C   UNL     1       0.778  -2.166   0.664  0.00  0.00    +0.193 C 
BRANCH  18  19
ATOM     19  O   UNL     1      -0.538  -2.701   0.508  0.00  0.00    -0.392 OA
ATOM     20  H   UNL     1      -0.557  -3.637   0.267  0.00  0.00    +0.210 HD
ENDBRANCH  18  19
ENDBRANCH   5  18
TORSDOF 5
