REMARK  Name = ZINC01374213
REMARK  13 active torsions:
REMARK  status: ('A' for Active; 'I' for Inactive)
REMARK    1  A    between atoms: C_1  and  C_2
REMARK    2  A    between atoms: C_2  and  C_3
REMARK    3  A    between atoms: C_3  and  C_5
REMARK    4  A    between atoms: C_3  and  N_19
REMARK    5  A    between atoms: N_9  and  C_10
REMARK    6  A    between atoms: C_10  and  C_11
REMARK    7  A    between atoms: C_14  and  O_17
REMARK    8  A    between atoms: O_17  and  C_18
REMARK    9  A    between atoms: N_19  and  C_20
REMARK   10  A    between atoms: N_19  and  C_26
REMARK   11  A    between atoms: C_20  and  C_21
REMARK   12  A    between atoms: C_26  and  C_27
REMARK   13  A    between atoms: C_32  and  C_39
REMARK                            x       y       z     vdW  Elec       q    Type
REMARK                         _______ _______ _______ _____ _____    ______ ____
ROOT
ATOM      1  N   UNL     1       1.902   0.717  -1.193  0.00  0.00    -0.281 NA
ENDROOT
BRANCH   1   2
ATOM      2  C   UNL     1       1.433  -0.630  -0.840  0.00  0.00    +0.127 C 
BRANCH   2   3
ATOM      3  C   UNL     1       0.672  -0.572   0.459  0.00  0.00    +0.169 A 
ATOM      4  N   UNL     1       0.313   0.508   1.109  0.00  0.00    -0.112 NA
ATOM      5  N   UNL     1      -0.318   0.143   2.171  0.00  0.00    -0.023 NA
ATOM      6  N   UNL     1      -0.370  -1.143   2.216  0.00  0.00    -0.044 NA
ATOM      7  N   UNL     1       0.225  -1.620   1.176  0.00  0.00    -0.223 N 
BRANCH   7   8
ATOM      8  C   UNL     1       0.385  -3.037   0.839  0.00  0.00    +0.182 C 
BRANCH   8   9
ATOM      9  C   UNL     1       1.665  -3.555   1.442  0.00  0.00    -0.026 A 
ATOM     10  C   UNL     1       2.845  -3.482   0.725  0.00  0.00    +0.009 A 
ATOM     11  C   UNL     1       4.020  -3.957   1.276  0.00  0.00    +0.046 A 
ATOM     12  C   UNL     1       4.016  -4.505   2.550  0.00  0.00    +0.120 A 
ATOM     13  C   UNL     1       2.830  -4.576   3.268  0.00  0.00    +0.046 A 
ATOM     14  C   UNL     1       1.659  -4.096   2.715  0.00  0.00    +0.009 A 
BRANCH  12  15
ATOM     15  O   UNL     1       5.170  -4.973   3.094  0.00  0.00    -0.495 OA
ATOM     16  C   UNL     1       5.090  -5.525   4.410  0.00  0.00    +0.277 C 
ENDBRANCH  12  15
ENDBRANCH   8   9
ENDBRANCH   7   8
ENDBRANCH   2   3
BRANCH   2  18
ATOM     17  C   UNL     1       1.286  -1.211  -3.266  0.00  0.00    +0.006 C 
ATOM     18  C   UNL     1       0.515  -1.157  -1.945  0.00  0.00    +0.023 C 
ENDBRANCH   2  18
ENDBRANCH   1   2
BRANCH   1  19
ATOM     19  C   UNL     1       3.043   0.652  -2.116  0.00  0.00    +0.159 C 
BRANCH  19  20
ATOM     20  C   UNL     1       3.736   1.990  -2.153  0.00  0.00    +0.119 A 
ATOM     21  C   UNL     1       4.782   2.356  -1.391  0.00  0.00    +0.046 A 
ATOM     22  C   UNL     1       5.108   3.683  -1.753  0.00  0.00    +0.041 A 
ATOM     23  C   UNL     1       4.242   4.049  -2.714  0.00  0.00    +0.195 A 
ATOM     24  O   UNL     1       3.416   3.017  -2.957  0.00  0.00    -0.467 OA
ENDBRANCH  19  20
ENDBRANCH   1  19
BRANCH   1  25
ATOM     25  C   UNL     1       0.812   1.522  -1.761  0.00  0.00    +0.126 C 
BRANCH  25  26
ATOM     26  C   UNL     1      -0.080   2.014  -0.650  0.00  0.00    +0.031 A 
ATOM     27  C   UNL     1       0.322   3.046   0.132  0.00  0.00    +0.020 A 
ATOM     28  C   UNL     1      -0.567   3.501   1.202  0.00  0.00    -0.001 A 
ATOM     29  C   UNL     1      -0.207   4.561   2.041  0.00  0.00    +0.010 A 
ATOM     30  C   UNL     1      -1.060   4.962   3.030  0.00  0.00    +0.004 A 
ATOM     31  C   UNL     1      -2.281   4.326   3.211  0.00  0.00    -0.048 A 
ATOM     32  C   UNL     1      -2.656   3.279   2.397  0.00  0.00    +0.029 A 
ATOM     33  C   UNL     1      -1.804   2.854   1.382  0.00  0.00    +0.049 A 
ATOM     34  N   UNL     1      -2.154   1.810   0.553  0.00  0.00    -0.322 N 
ATOM     35  H   UNL     1      -3.007   1.365   0.679  0.00  0.00    +0.169 HD
ATOM     36  C   UNL     1      -1.333   1.402  -0.430  0.00  0.00    +0.254 A 
ATOM     37  O   UNL     1      -1.677   0.479  -1.148  0.00  0.00    -0.268 OA
ATOM     38  C   UNL     1      -3.205   4.785   4.309  0.00  0.00    +0.044 C 
ENDBRANCH  25  26
ENDBRANCH   1  25
TORSDOF 10
