REMARK  Name = ZINC36496882
REMARK  20 active torsions:
REMARK  status: ('A' for Active; 'I' for Inactive)
REMARK    1  A    between atoms: C_1  and  C_2
REMARK    2  A    between atoms: C_2  and  C_3
REMARK    3  A    between atoms: C_3  and  C_5
REMARK    4  A    between atoms: C_3  and  C_11
REMARK    5  A    between atoms: N_13  and  C_14
REMARK    6  A    between atoms: N_13  and  C_20
REMARK    7  A    between atoms: C_14  and  C_15
REMARK    8  A    between atoms: C_20  and  C_22
REMARK    9  A    between atoms: C_20  and  C_31
REMARK   10  A    between atoms: C_23  and  O_30
REMARK   11  A    between atoms: C_25  and  O_29
REMARK   12  A    between atoms: C_27  and  O_28
REMARK   13  A    between atoms: N_33  and  C_34
REMARK   14  A    between atoms: C_34  and  C_35
REMARK   15  A    between atoms: C_34  and  C_36
REMARK   16  A    between atoms: C_34  and  C_37
REMARK   17  A    between atoms: C_37  and  C_38
REMARK   18  A    between atoms: C_38  and  C_39
REMARK   19  A    between atoms: C_38  and  C_40
REMARK   20  A    between atoms: C_38  and  C_41
REMARK                            x       y       z     vdW  Elec       q    Type
REMARK                         _______ _______ _______ _____ _____    ______ ____
ROOT
ATOM      1  C   UNL     1      -4.743  -0.320  -4.003  0.00  0.00    +0.200 C 
ENDROOT
BRANCH   1   2
ATOM      2  C   UNL     1      -4.113   0.520  -5.085  0.00  0.00    +0.065 A 
ATOM      3  C   UNL     1      -3.173   1.484  -4.755  0.00  0.00    +0.129 A 
ATOM      4  C   UNL     1      -2.594   2.257  -5.750  0.00  0.00    +0.091 A 
ATOM      5  C   UNL     1      -2.954   2.064  -7.075  0.00  0.00    +0.124 A 
ATOM      6  C   UNL     1      -3.893   1.099  -7.405  0.00  0.00    +0.091 A 
ATOM      7  C   UNL     1      -4.469   0.324  -6.411  0.00  0.00    +0.129 A 
BRANCH   7   8
ATOM      8  O   UNL     1      -5.386  -0.626  -6.735  0.00  0.00    -0.506 OA
ATOM      9  H   UNL     1      -6.298  -0.305  -6.743  0.00  0.00    +0.292 HD
ENDBRANCH   7   8
BRANCH   5  10
ATOM     10  O   UNL     1      -2.386   2.822  -8.050  0.00  0.00    -0.507 OA
ATOM     11  H   UNL     1      -1.577   2.444  -8.421  0.00  0.00    +0.292 HD
ENDBRANCH   5  10
BRANCH   3  12
ATOM     12  O   UNL     1      -2.821   1.673  -3.456  0.00  0.00    -0.506 OA
ATOM     13  H   UNL     1      -2.028   1.187  -3.189  0.00  0.00    +0.292 HD
ENDBRANCH   3  12
ENDBRANCH   1   2
BRANCH   1  14
ATOM     14  C   UNL     1      -5.693   0.529  -3.198  0.00  0.00    +0.239 C 
ATOM     15  O   UNL     1      -5.478   0.729  -2.021  0.00  0.00    -0.273 OA
ATOM     16  N   UNL     1      -6.781   1.065  -3.785  0.00  0.00    -0.308 N 
ATOM     17  H   UNL     1      -6.952   0.906  -4.726  0.00  0.00    +0.149 HD
BRANCH  16  18
ATOM     18  C   UNL     1      -7.704   1.891  -3.001  0.00  0.00    +0.030 C 
ATOM     19  C   UNL     1      -8.377   1.028  -1.932  0.00  0.00    +0.031 C 
ATOM     20  C   UNL     1      -6.928   3.024  -2.328  0.00  0.00    +0.031 C 
BRANCH  18  21
ATOM     21  C   UNL     1      -8.770   2.481  -3.926  0.00  0.00    +0.031 C 
BRANCH  21  22
ATOM     22  C   UNL     1      -8.112   3.448  -4.912  0.00  0.00    -0.036 C 
ATOM     23  C   UNL     1      -6.773   2.871  -5.376  0.00  0.00    +0.010 C 
ATOM     24  C   UNL     1      -9.028   3.647  -6.120  0.00  0.00    +0.010 C 
ATOM     25  C   UNL     1      -7.875   4.794  -4.224  0.00  0.00    +0.010 C 
ENDBRANCH  21  22
ENDBRANCH  18  21
ENDBRANCH  16  18
ENDBRANCH   1  14
BRANCH   1  28
ATOM     26  C   UNL     1      -2.898  -1.847  -3.555  0.00  0.00    +0.224 C 
ATOM     27  O   UNL     1      -3.001  -2.260  -4.691  0.00  0.00    -0.275 OA
ATOM     28  N   UNL     1      -3.697  -0.850  -3.125  0.00  0.00    -0.278 N 
BRANCH  26  29
ATOM     29  C   UNL     1      -1.877  -2.449  -2.624  0.00  0.00    +0.105 C 
BRANCH  29  30
ATOM     30  C   UNL     1      -2.072  -3.942  -2.562  0.00  0.00    -0.036 A 
ATOM     31  C   UNL     1      -1.943  -4.704  -3.708  0.00  0.00    +0.004 A 
ATOM     32  C   UNL     1      -2.122  -6.073  -3.651  0.00  0.00    +0.000 A 
ATOM     33  C   UNL     1      -2.430  -6.681  -2.448  0.00  0.00    +0.000 A 
ATOM     34  C   UNL     1      -2.557  -5.919  -1.302  0.00  0.00    +0.000 A 
ATOM     35  C   UNL     1      -2.374  -4.550  -1.358  0.00  0.00    +0.004 A 
ENDBRANCH  29  30
BRANCH  29  37
ATOM     36  C   UNL     1      -0.233  -0.628  -3.099  0.00  0.00    +0.005 C 
ATOM     37  C   UNL     1      -0.471  -2.139  -3.141  0.00  0.00    +0.014 C 
ENDBRANCH  29  37
ENDBRANCH  26  29
BRANCH  28  38
ATOM     38  C   UNL     1      -3.520  -0.298  -1.780  0.00  0.00    +0.183 C 
BRANCH  38  39
ATOM     39  C   UNL     1      -4.378  -1.062  -0.806  0.00  0.00    +0.122 A 
ATOM     40  C   UNL     1      -3.957  -2.041   0.014  0.00  0.00    +0.046 A 
ATOM     41  C   UNL     1      -5.085  -2.475   0.748  0.00  0.00    +0.041 A 
ATOM     42  C   UNL     1      -6.128  -1.735   0.332  0.00  0.00    +0.195 A 
ATOM     43  O   UNL     1      -5.694  -0.877  -0.605  0.00  0.00    -0.466 OA
ENDBRANCH  38  39
ENDBRANCH  28  38
ENDBRANCH   1  28
TORSDOF 14
