REMARK  Name = ZINC35992063
REMARK  13 active torsions:
REMARK  status: ('A' for Active; 'I' for Inactive)
REMARK    1  A    between atoms: C_1  and  C_2
REMARK    2  A    between atoms: C_2  and  N_3
REMARK    3  A    between atoms: C_4  and  C_26
REMARK    4  A    between atoms: C_5  and  C_21
REMARK    5  A    between atoms: C_6  and  C_11
REMARK    6  A    between atoms: C_14  and  C_17
REMARK    7  A    between atoms: C_21  and  O_23
REMARK    8  A    between atoms: O_23  and  C_24
REMARK    9  A    between atoms: C_24  and  C_25
REMARK   10  A    between atoms: C_26  and  N_27
REMARK   11  A    between atoms: C_33  and  C_35
REMARK   12  A    between atoms: C_35  and  C_36
REMARK   13  A    between atoms: C_35  and  C_37
REMARK                            x       y       z     vdW  Elec       q    Type
REMARK                         _______ _______ _______ _____ _____    ______ ____
ROOT
ATOM      1  N   UNL     1       0.121   1.244  -1.186  0.00  0.00    -0.258 N 
ATOM      2  C   UNL     1      -0.503   0.690  -2.267  0.00  0.00    +0.041 C 
ATOM      3  C   UNL     1       0.201   0.059  -3.230  0.00  0.00    +0.080 C 
ATOM      4  C   UNL     1       1.707  -0.012  -3.072  0.00  0.00    +0.144 C 
ATOM      5  N   UNL     1       2.281   0.617  -1.871  0.00  0.00    -0.288 N 
ATOM      6  C   UNL     1       1.446   1.215  -0.998  0.00  0.00    +0.307 C 
ATOM      7  O   UNL     1       1.911   1.741  -0.006  0.00  0.00    -0.252 OA
ATOM      8  H   UNL     1       3.239   0.605  -1.714  0.00  0.00    +0.151 HD
ENDROOT
BRANCH   4   9
ATOM      9  C   UNL     1       2.106  -1.466  -3.070  0.00  0.00    -0.022 A 
ATOM     10  C   UNL     1       1.959  -2.221  -1.921  0.00  0.00    +0.006 A 
ATOM     11  C   UNL     1       2.325  -3.554  -1.920  0.00  0.00    +0.013 A 
ATOM     12  C   UNL     1       2.837  -4.132  -3.066  0.00  0.00    +0.055 A 
ATOM     13  C   UNL     1       2.983  -3.377  -4.215  0.00  0.00    +0.013 A 
ATOM     14  C   UNL     1       2.613  -2.045  -4.218  0.00  0.00    +0.006 A 
BRANCH  12  15
ATOM     15  C   UNL     1       3.237  -5.585  -3.064  0.00  0.00    +0.417 C 
ATOM     16  F   UNL     1       2.141  -6.370  -3.438  0.00  0.00    -0.166 F 
ATOM     17  F   UNL     1       4.284  -5.782  -3.971  0.00  0.00    -0.166 F 
ATOM     18  F   UNL     1       3.656  -5.951  -1.781  0.00  0.00    -0.166 F 
ENDBRANCH  12  15
ENDBRANCH   4   9
BRANCH   1  20
ATOM     19  C   UNL     1      -0.870   3.388  -0.551  0.00  0.00    +0.025 C 
ATOM     20  C   UNL     1      -0.705   1.913  -0.178  0.00  0.00    +0.111 C 
ENDBRANCH   1  20
BRANCH   3  21
ATOM     21  C   UNL     1      -0.444  -0.517  -4.350  0.00  0.00    +0.339 C 
ATOM     22  O   UNL     1      -1.659  -0.554  -4.399  0.00  0.00    -0.245 OA
BRANCH  21  23
ATOM     23  O   UNL     1       0.288  -1.024  -5.364  0.00  0.00    -0.462 OA
BRANCH  23  24
ATOM     24  C   UNL     1      -0.429  -1.590  -6.462  0.00  0.00    +0.229 C 
ATOM     25  C   UNL     1       0.562  -2.110  -7.505  0.00  0.00    +0.048 C 
ENDBRANCH  23  24
ENDBRANCH  21  23
ENDBRANCH   3  21
BRANCH   2  26
ATOM     26  C   UNL     1      -2.002   0.783  -2.385  0.00  0.00    +0.136 C 
BRANCH  26  27
ATOM     27  N   UNL     1      -2.608  -0.483  -1.952  0.00  0.00    -0.294 NA
ATOM     28  C   UNL     1      -2.336  -0.738  -0.531  0.00  0.00    +0.104 C 
ATOM     29  C   UNL     1      -2.824  -2.144  -0.166  0.00  0.00    +0.123 C 
ATOM     30  N   UNL     1      -4.236  -2.266  -0.560  0.00  0.00    -0.299 N 
ATOM     31  C   UNL     1      -4.609  -1.895  -1.934  0.00  0.00    +0.123 C 
ATOM     32  C   UNL     1      -4.050  -0.499  -2.230  0.00  0.00    +0.104 C 
ATOM     33  C   UNL     1      -5.163  -2.706   0.313  0.00  0.00    +0.218 C 
ATOM     34  O   UNL     1      -6.304  -2.889  -0.054  0.00  0.00    -0.275 OA
BRANCH  33  35
ATOM     35  C   UNL     1      -4.781  -2.972   1.747  0.00  0.00    +0.069 C 
ATOM     36  C   UNL     1      -6.042  -3.258   2.566  0.00  0.00    +0.017 C 
ATOM     37  C   UNL     1      -3.847  -4.182   1.810  0.00  0.00    +0.017 C 
ENDBRANCH  33  35
ENDBRANCH  26  27
ENDBRANCH   2  26
TORSDOF 9
