REMARK  Name = ZINC35921401
REMARK  14 active torsions:
REMARK  status: ('A' for Active; 'I' for Inactive)
REMARK    1  A    between atoms: C_1  and  O_2
REMARK    2  A    between atoms: O_2  and  C_3
REMARK    3  A    between atoms: C_3  and  C_4
REMARK    4  A    between atoms: C_4  and  N_5
REMARK    5  A    between atoms: N_5  and  C_6
REMARK    6  A    between atoms: C_6  and  C_7
REMARK    7  A    between atoms: N_10  and  C_12
REMARK    8  A    between atoms: C_17  and  O_18
REMARK    9  A    between atoms: O_18  and  C_19
REMARK   10  A    between atoms: N_22  and  C_24
REMARK   11  A    between atoms: C_24  and  C_25
REMARK   12  A    between atoms: C_27  and  C_29
REMARK   13  A    between atoms: C_34  and  O_35
REMARK   14  A    between atoms: O_35  and  C_36
REMARK                            x       y       z     vdW  Elec       q    Type
REMARK                         _______ _______ _______ _____ _____    ______ ____
ROOT
ATOM      1  C   UNL     1      -1.801  -4.191   2.392  0.00  0.00    +0.082 A 
ATOM      2  C   UNL     1      -2.958  -4.737   1.847  0.00  0.00    -0.018 A 
ATOM      3  C   UNL     1      -2.828  -6.091   1.857  0.00  0.00    +0.045 A 
ATOM      4  N   UNL     1      -1.630  -6.387   2.385  0.00  0.00    -0.233 N 
ATOM      5  N   UNL     1      -0.997  -5.178   2.712  0.00  0.00    -0.169 NA
ATOM      6  C   UNL     1      -3.900  -7.021   1.345  0.00  0.00    +0.037 C 
ATOM      7  C   UNL     1      -5.198  -6.211   1.220  0.00  0.00    -0.072 C 
ATOM      8  N   UNL     1      -4.938  -4.969   0.480  0.00  0.00    +0.385 N 
ATOM      9  C   UNL     1      -4.178  -4.027   1.317  0.00  0.00    -0.039 C 
ATOM     10  H   UNL     1      -4.407  -5.181  -0.351  0.00  0.00    -0.081 HD
ENDROOT
BRANCH   4  11
ATOM     11  C   UNL     1      -1.103  -7.674   2.571  0.00  0.00    +0.107 A 
ATOM     12  C   UNL     1      -1.126  -8.592   1.531  0.00  0.00    +0.031 A 
ATOM     13  C   UNL     1      -0.607  -9.859   1.716  0.00  0.00    +0.002 A 
ATOM     14  C   UNL     1      -0.063 -10.215   2.937  0.00  0.00    +0.004 A 
ATOM     15  C   UNL     1      -0.036  -9.306   3.978  0.00  0.00    +0.048 A 
ATOM     16  C   UNL     1      -0.550  -8.031   3.798  0.00  0.00    +0.145 A 
BRANCH  16  17
ATOM     17  O   UNL     1      -0.520  -7.134   4.819  0.00  0.00    -0.493 OA
ATOM     18  C   UNL     1       0.062  -7.570   6.049  0.00  0.00    +0.277 C 
ENDBRANCH  16  17
ENDBRANCH   4  11
BRANCH   1  19
ATOM     19  C   UNL     1      -1.517  -2.723   2.577  0.00  0.00    +0.165 C 
BRANCH  19  20
ATOM     20  N   UNL     1      -0.738  -2.229   1.438  0.00  0.00    -0.289 N 
ATOM     21  C   UNL     1       0.603  -2.358   1.432  0.00  0.00    +0.251 C 
ATOM     22  O   UNL     1       1.160  -2.956   2.333  0.00  0.00    -0.270 OA
BRANCH  21  23
ATOM     23  C   UNL     1       1.396  -1.776   0.333  0.00  0.00    +0.078 A 
ATOM     24  C   UNL     1       1.162  -2.169  -0.987  0.00  0.00    +0.017 A 
ATOM     25  C   UNL     1       1.905  -1.621  -2.010  0.00  0.00    +0.001 A 
ATOM     26  C   UNL     1       2.884  -0.680  -1.735  0.00  0.00    +0.004 A 
ATOM     27  C   UNL     1       3.126  -0.282  -0.435  0.00  0.00    +0.046 A 
ATOM     28  C   UNL     1       2.383  -0.820   0.606  0.00  0.00    +0.132 A 
BRANCH  28  29
ATOM     29  O   UNL     1       2.616  -0.426   1.883  0.00  0.00    -0.494 OA
ATOM     30  C   UNL     1       3.638   0.552   2.084  0.00  0.00    +0.277 C 
ENDBRANCH  28  29
ENDBRANCH  21  23
BRANCH  20  31
ATOM     31  C   UNL     1      -1.418  -1.594   0.306  0.00  0.00    +0.136 C 
BRANCH  31  32
ATOM     32  C   UNL     1      -1.652  -0.115   0.617  0.00  0.00    +0.178 C 
BRANCH  32  34
ATOM     33  C   UNL     1      -0.500   1.949   1.015  0.00  0.00    +0.194 C 
ATOM     34  O   UNL     1      -0.394   0.554   0.725  0.00  0.00    -0.381 OA
ENDBRANCH  32  34
ENDBRANCH  31  32
ENDBRANCH  20  31
ENDBRANCH  19  20
ENDBRANCH   1  19
BRANCH   8  35
ATOM     35  C   UNL     1      -6.216  -4.356   0.094  0.00  0.00    -0.051 C 
BRANCH  35  36
ATOM     36  C   UNL     1      -6.933  -5.258  -0.878  0.00  0.00    -0.053 C 
ATOM     37  C   UNL     1      -8.155  -5.654  -0.624  0.00  0.00    +0.002 C 
ENDBRANCH  35  36
ENDBRANCH   8  35
TORSDOF 11
