REMARK  Name = ZINC39325139
REMARK  10 active torsions:
REMARK  status: ('A' for Active; 'I' for Inactive)
REMARK    1  A    between atoms: C_1  and  O_2
REMARK    2  A    between atoms: O_2  and  C_3
REMARK    3  A    between atoms: C_7  and  C_17
REMARK    4  A    between atoms: C_14  and  O_15
REMARK    5  A    between atoms: O_15  and  C_16
REMARK    6  A    between atoms: C_17  and  N_18
REMARK    7  A    between atoms: N_18  and  C_19
REMARK    8  A    between atoms: N_18  and  S_27
REMARK    9  A    between atoms: C_19  and  C_20
REMARK   10  A    between atoms: S_27  and  C_30
REMARK                            x       y       z     vdW  Elec       q    Type
REMARK                         _______ _______ _______ _____ _____    ______ ____
ROOT
ATOM      1  N   UNL     1      -8.181  -1.026  -1.157  0.00  0.00    -0.171 NA
ENDROOT
BRANCH   1   2
ATOM      2  S   UNL     1      -8.243  -2.496  -1.916  0.00  0.00    +0.061 S 
ATOM      3  O   UNL     1      -9.588  -2.678  -2.339  0.00  0.00    -0.153 OA
ATOM      4  O   UNL     1      -7.148  -2.532  -2.821  0.00  0.00    -0.153 OA
BRANCH   2   5
ATOM      5  C   UNL     1      -7.928  -3.727  -0.695  0.00  0.00    +0.106 A 
ATOM      6  C   UNL     1      -6.649  -4.225  -0.530  0.00  0.00    +0.030 A 
ATOM      7  C   UNL     1      -6.402  -5.190   0.427  0.00  0.00    +0.022 A 
ATOM      8  C   UNL     1      -7.434  -5.658   1.221  0.00  0.00    +0.041 A 
ATOM      9  C   UNL     1      -8.714  -5.159   1.055  0.00  0.00    +0.022 A 
ATOM     10  C   UNL     1      -8.959  -4.190   0.101  0.00  0.00    +0.030 A 
ATOM     11 CL   UNL     1      -7.124  -6.871   2.423  0.00  0.00    -0.084 Cl
ENDBRANCH   2   5
ENDBRANCH   1   2
BRANCH   1  12
ATOM     12  C   UNL     1      -6.947  -0.236  -1.190  0.00  0.00    +0.126 C 
BRANCH  12  17
ATOM     13  C   UNL     1      -1.647   0.312   1.192  0.00  0.00    +0.162 A 
ATOM     14  C   UNL     1      -2.743   0.905   0.652  0.00  0.00    +0.059 A 
ATOM     15  C   UNL     1      -4.025   0.198   0.689  0.00  0.00    -0.003 A 
ATOM     16  C   UNL     1      -5.144   0.761   0.157  0.00  0.00    -0.003 C 
ATOM     17  C   UNL     1      -6.430  -0.037   0.236  0.00  0.00    +0.114 C 
ATOM     18  C   UNL     1      -6.368  -1.394   0.899  0.00  0.00    +0.225 C 
ATOM     19  O   UNL     1      -7.371  -2.077   0.989  0.00  0.00    -0.275 OA
ATOM     20  N   UNL     1      -5.220  -1.837   1.380  0.00  0.00    -0.284 N 
ATOM     21  C   UNL     1      -4.084  -1.137   1.313  0.00  0.00    +0.044 A 
ATOM     22  C   UNL     1      -2.903  -1.673   1.846  0.00  0.00    +0.073 A 
ATOM     23  C   UNL     1      -1.724  -0.966   1.778  0.00  0.00    +0.163 A 
ATOM     24  H   UNL     1      -5.200  -2.710   1.802  0.00  0.00    +0.155 HD
BRANCH  13  26
ATOM     25  C   UNL     1      -0.434   2.256   0.554  0.00  0.00    +0.277 C 
ATOM     26  O   UNL     1      -0.453   0.962   1.161  0.00  0.00    -0.491 OA
ENDBRANCH  13  26
BRANCH  23  27
ATOM     27  O   UNL     1      -0.600  -1.516   2.297  0.00  0.00    -0.491 OA
ATOM     28  C   UNL     1      -0.724  -2.814   2.882  0.00  0.00    +0.277 C 
ENDBRANCH  23  27
ENDBRANCH  12  17
ENDBRANCH   1  12
BRANCH   1  29
ATOM     29  C   UNL     1      -9.359  -0.515  -0.451  0.00  0.00    +0.144 C 
BRANCH  29  30
ATOM     30  C   UNL     1     -10.137   0.395  -1.367  0.00  0.00    -0.031 A 
ATOM     31  C   UNL     1      -9.852   1.747  -1.403  0.00  0.00    +0.008 A 
ATOM     32  C   UNL     1     -10.564   2.582  -2.242  0.00  0.00    +0.038 A 
ATOM     33  C   UNL     1     -11.565   2.064  -3.047  0.00  0.00    +0.123 A 
ATOM     34  C   UNL     1     -11.849   0.710  -3.010  0.00  0.00    +0.038 A 
ATOM     35  C   UNL     1     -11.132  -0.124  -2.174  0.00  0.00    +0.008 A 
ATOM     36  F   UNL     1     -12.262   2.880  -3.868  0.00  0.00    -0.205 F 
ENDBRANCH  29  30
ENDBRANCH   1  29
TORSDOF 8
