REMARK  Name = ZINC26707261
REMARK  5 active torsions:
REMARK  status: ('A' for Active; 'I' for Inactive)
REMARK    1  A    between atoms: C_1  and  C_2
REMARK    2  A    between atoms: N_15  and  C_16
REMARK    3  A    between atoms: C_16  and  C_18
REMARK    4  A    between atoms: C_16  and  C_19
REMARK    5  A    between atoms: C_24  and  O_25
REMARK                            x       y       z     vdW  Elec       q    Type
REMARK                         _______ _______ _______ _____ _____    ______ ____
ROOT
ATOM      1  C   UNL     1      -4.813  -1.705   0.014  0.00  0.00    +0.067 C 
ATOM      2  C   UNL     1      -4.060  -0.400   0.018  0.00  0.00    +0.063 A 
ATOM      3  C   UNL     1      -4.634   0.865   0.028  0.00  0.00    +0.073 A 
ATOM      4  C   UNL     1      -3.605   1.796   0.029  0.00  0.00    +0.158 A 
ATOM      5  N   UNL     1      -3.626   3.142   0.037  0.00  0.00    -0.213 NA
ATOM      6  C   UNL     1      -2.522   3.857   0.046  0.00  0.00    +0.131 A 
ATOM      7  C   UNL     1      -1.226   3.164   0.030  0.00  0.00    +0.040 A 
ATOM      8  C   UNL     1      -0.019   3.864   0.023  0.00  0.00    +0.013 A 
ATOM      9  C   UNL     1       1.162   3.174   0.008  0.00  0.00    +0.001 A 
ATOM     10  C   UNL     1       1.170   1.786   0.001  0.00  0.00    +0.002 A 
ATOM     11  C   UNL     1      -0.013   1.076   0.008  0.00  0.00    +0.028 A 
ATOM     12  C   UNL     1      -1.222   1.758   0.017  0.00  0.00    +0.078 A 
ATOM     13  N   UNL     1      -2.434   1.090   0.019  0.00  0.00    -0.214 N 
ATOM     14  N   UNL     1      -2.755  -0.273   0.013  0.00  0.00    -0.170 NA
ATOM     15  N   UNL     1      -2.580   5.236   0.054  0.00  0.00    -0.322 N 
ATOM     16  H   UNL     1      -1.651   5.825   0.048  0.00  0.00    +0.148 HD
ENDROOT
BRANCH  15  17
ATOM     17  C   UNL     1      -3.878   5.915   0.070  0.00  0.00    +0.102 C 
ATOM     18  C   UNL     1      -4.402   6.047  -1.362  0.00  0.00    +0.033 C 
BRANCH  17  19
ATOM     19  C   UNL     1      -3.721   7.286   0.676  0.00  0.00    +0.014 A 
ATOM     20  C   UNL     1      -2.494   7.920   0.642  0.00  0.00    +0.009 A 
ATOM     21  C   UNL     1      -2.350   9.179   1.194  0.00  0.00    +0.001 A 
ATOM     22  C   UNL     1      -3.431   9.803   1.789  0.00  0.00    +0.004 A 
ATOM     23  C   UNL     1      -4.659   9.171   1.830  0.00  0.00    +0.046 A 
ATOM     24  C   UNL     1      -4.806   7.909   1.272  0.00  0.00    +0.122 A 
BRANCH  24  25
ATOM     25  O   UNL     1      -6.013   7.286   1.310  0.00  0.00    -0.506 OA
ATOM     26  H   UNL     1      -6.874   7.781   1.784  0.00  0.00    +0.292 HD
ENDBRANCH  24  25
ENDBRANCH  17  19
ENDBRANCH  15  17
TORSDOF 3
