REMARK  Name = ZINC44098137
REMARK  4 active torsions:
REMARK  status: ('A' for Active; 'I' for Inactive)
REMARK    1  A    between atoms: C_4  and  C_7
REMARK    2  A    between atoms: C_7  and  N_8
REMARK    3  A    between atoms: C_20  and  C_23
REMARK    4  A    between atoms: C_25  and  C_28
REMARK                            x       y       z     vdW  Elec       q    Type
REMARK                         _______ _______ _______ _____ _____    ______ ____
ROOT
ATOM      1  N   UNL     1       4.184  -0.935   1.328  0.00  0.00    -0.295 N 
ATOM      2  C   UNL     1       5.327  -1.609   1.562  0.00  0.00    +0.303 C 
ATOM      3  O   UNL     1       5.948  -2.093   0.635  0.00  0.00    -0.253 OA
ATOM      4  N   UNL     1       5.783  -1.746   2.823  0.00  0.00    -0.283 N 
ATOM      5  C   UNL     1       4.982  -1.278   3.963  0.00  0.00    +0.128 C 
ATOM      6  C   UNL     1       4.785  -2.447   4.936  0.00  0.00    +0.125 C 
ATOM      7  N   UNL     1       6.091  -3.068   5.195  0.00  0.00    -0.314 N 
ATOM      8  C   UNL     1       6.892  -3.536   4.055  0.00  0.00    +0.125 C 
ATOM      9  C   UNL     1       7.087  -2.372   3.083  0.00  0.00    +0.128 C 
ATOM     10  C   UNL     1       6.561  -3.209   6.494  0.00  0.00    +0.099 A 
ATOM     11  C   UNL     1       5.732  -2.879   7.564  0.00  0.00    +0.042 A 
ATOM     12  C   UNL     1       6.207  -3.022   8.852  0.00  0.00    +0.016 A 
ATOM     13  C   UNL     1       7.511  -3.498   9.033  0.00  0.00    +0.038 A 
ATOM     14  C   UNL     1       8.279  -3.807   7.914  0.00  0.00    +0.095 A 
ATOM     15  N   UNL     1       7.788  -3.662   6.700  0.00  0.00    -0.349 N 
ATOM     16  H   UNL     1       3.651  -0.611   2.071  0.00  0.00    +0.151 HD
ATOM     17  H   UNL     1       8.342  -3.888   5.936  0.00  0.00    +0.167 HD
ENDROOT
BRANCH  13  18
ATOM     18  C   UNL     1       8.067  -3.669  10.397  0.00  0.00    +0.203 A 
ATOM     19  N   UNL     1       9.303  -4.111  10.691  0.00  0.00    -0.191 NA
ATOM     20  C   UNL     1       9.470  -4.141  11.983  0.00  0.00    +0.231 A 
ATOM     21  O   UNL     1       8.341  -3.719  12.567  0.00  0.00    -0.337 OA
ATOM     22  N   UNL     1       7.437  -3.409  11.517  0.00  0.00    -0.056 NA
BRANCH  20  23
ATOM     23  C   UNL     1      10.721  -4.580  12.699  0.00  0.00    +0.078 C 
ATOM     24  C   UNL     1      10.399  -5.736  13.667  0.00  0.00    +0.013 C 
ATOM     25  C   UNL     1      11.302  -5.465  14.896  0.00  0.00    +0.001 C 
ATOM     26  C   UNL     1      11.259  -3.922  15.018  0.00  0.00    +0.001 C 
ATOM     27  C   UNL     1      11.268  -3.426  13.558  0.00  0.00    +0.013 C 
ENDBRANCH  20  23
ENDBRANCH  13  18
BRANCH   1  28
ATOM     28  C   UNL     1       3.745  -0.692  -0.048  0.00  0.00    +0.141 C 
BRANCH  28  32
ATOM     29  C   UNL     1       0.069   1.484  -0.010  0.00  0.00    +0.000 A 
ATOM     30  C   UNL     1       1.273   2.162  -0.027  0.00  0.00    +0.000 A 
ATOM     31  C   UNL     1       2.463   1.458  -0.040  0.00  0.00    +0.005 A 
ATOM     32  C   UNL     1       2.448   0.076  -0.034  0.00  0.00    -0.030 A 
ATOM     33  C   UNL     1       1.244  -0.603  -0.016  0.00  0.00    +0.005 A 
ATOM     34  C   UNL     1       0.054   0.101  -0.005  0.00  0.00    +0.000 A 
ENDBRANCH  28  32
ENDBRANCH   1  28
TORSDOF 4
