REMARK  Name = ZINC10041346
REMARK  14 active torsions:
REMARK  status: ('A' for Active; 'I' for Inactive)
REMARK    1  A    between atoms: C_1  and  C_2
REMARK    2  A    between atoms: C_2  and  O_3
REMARK    3  A    between atoms: O_3  and  C_4
REMARK    4  A    between atoms: C_6  and  C_12
REMARK    5  A    between atoms: C_9  and  O_10
REMARK    6  A    between atoms: O_10  and  C_11
REMARK    7  A    between atoms: N_14  and  N_15
REMARK    8  A    between atoms: C_16  and  C_17
REMARK    9  A    between atoms: C_20  and  O_25
REMARK   10  A    between atoms: C_21  and  O_23
REMARK   11  A    between atoms: O_23  and  C_24
REMARK   12  A    between atoms: O_25  and  S_26
REMARK   13  A    between atoms: S_26  and  C_29
REMARK   14  A    between atoms: C_32  and  C_35
REMARK                            x       y       z     vdW  Elec       q    Type
REMARK                         _______ _______ _______ _____ _____    ______ ____
ROOT
ATOM      1  C   UNL     1       6.149  -3.139   6.126  0.00  0.00    -0.002 A 
ATOM      2  C   UNL     1       6.754  -3.565   4.941  0.00  0.00    +0.013 A 
ATOM      3  C   UNL     1       7.893  -4.340   4.988  0.00  0.00    +0.053 A 
ATOM      4  C   UNL     1       8.435  -4.710   6.211  0.00  0.00    +0.198 A 
ATOM      5  C   UNL     1       7.833  -4.295   7.397  0.00  0.00    +0.165 A 
ATOM      6  C   UNL     1       6.694  -3.512   7.358  0.00  0.00    +0.059 A 
ENDROOT
BRANCH   1   8
ATOM      7  N   UNL     1       4.429  -1.960   4.934  0.00  0.00    -0.187 NA
ATOM      8  C   UNL     1       4.935  -2.305   6.078  0.00  0.00    +0.138 C 
BRANCH   7  11
ATOM      9  C   UNL     1       2.751  -0.808   3.700  0.00  0.00    +0.263 C 
ATOM     10  O   UNL     1       3.279  -1.173   2.667  0.00  0.00    -0.268 OA
ATOM     11  N   UNL     1       3.275  -1.166   4.888  0.00  0.00    -0.203 N 
ATOM     12  H   UNL     1       2.854  -0.875   5.712  0.00  0.00    +0.178 HD
BRANCH   9  15
ATOM     13  C   UNL     1      -0.148   1.182   2.381  0.00  0.00    +0.163 A 
ATOM     14  C   UNL     1       0.990   0.400   2.420  0.00  0.00    +0.062 A 
ATOM     15  C   UNL     1       1.535   0.027   3.652  0.00  0.00    +0.042 A 
ATOM     16  C   UNL     1       0.927   0.447   4.837  0.00  0.00    +0.017 A 
ATOM     17  C   UNL     1      -0.208   1.227   4.791  0.00  0.00    +0.050 A 
ATOM     18  C   UNL     1      -0.747   1.602   3.567  0.00  0.00    +0.162 A 
BRANCH  18  19
ATOM     19  O   UNL     1      -1.863   2.375   3.527  0.00  0.00    -0.491 OA
ATOM     20  C   UNL     1      -2.425   2.769   4.780  0.00  0.00    +0.277 C 
ENDBRANCH  18  19
BRANCH  13  21
ATOM     21  O   UNL     1      -0.682   1.547   1.184  0.00  0.00    -0.489 OA
BRANCH  21  23
ATOM     22  C   UNL     1      -0.753   1.593  -1.232  0.00  0.00    +0.048 C 
ATOM     23  C   UNL     1      -0.013   1.086   0.008  0.00  0.00    +0.226 C 
ENDBRANCH  21  23
ENDBRANCH  13  21
ENDBRANCH   9  15
ENDBRANCH   7  11
ENDBRANCH   1   8
BRANCH   5  24
ATOM     24  O   UNL     1       8.367  -4.659   8.593  0.00  0.00    -0.491 OA
ATOM     25  C   UNL     1       7.699  -4.198   9.769  0.00  0.00    +0.277 C 
ENDBRANCH   5  24
BRANCH   4  26
ATOM     26  O   UNL     1       9.555  -5.479   6.251  0.00  0.00    -0.339 OA
BRANCH  26  27
ATOM     27  S   UNL     1       9.278  -6.975   6.272  0.00  0.00    +0.151 S 
ATOM     28  O   UNL     1      10.522  -7.615   6.523  0.00  0.00    -0.131 OA
ATOM     29  O   UNL     1       8.142  -7.167   7.103  0.00  0.00    -0.131 OA
BRANCH  27  30
ATOM     30  C   UNL     1       8.794  -7.438   4.642  0.00  0.00    +0.128 A 
ATOM     31  C   UNL     1       7.459  -7.410   4.284  0.00  0.00    +0.031 A 
ATOM     32  C   UNL     1       7.080  -7.769   3.004  0.00  0.00    +0.005 A 
ATOM     33  C   UNL     1       8.034  -8.165   2.086  0.00  0.00    -0.050 A 
ATOM     34  C   UNL     1       9.368  -8.198   2.446  0.00  0.00    +0.005 A 
ATOM     35  C   UNL     1       9.748  -7.835   3.724  0.00  0.00    +0.031 A 
ATOM     36  C   UNL     1       7.620  -8.561   0.692  0.00  0.00    +0.044 C 
ENDBRANCH  27  30
ENDBRANCH  26  27
ENDBRANCH   4  26
TORSDOF 10
