REMARK  Name = ZINC16856612
REMARK  12 active torsions:
REMARK  status: ('A' for Active; 'I' for Inactive)
REMARK    1  A    between atoms: C_1  and  C_2
REMARK    2  A    between atoms: N_5  and  C_7
REMARK    3  A    between atoms: C_10  and  C_13
REMARK    4  A    between atoms: C_13  and  O_15
REMARK    5  A    between atoms: O_15  and  C_16
REMARK    6  A    between atoms: C_16  and  C_17
REMARK    7  A    between atoms: C_17  and  C_18
REMARK    8  A    between atoms: C_17  and  C_19
REMARK    9  A    between atoms: C_21  and  N_34
REMARK   10  A    between atoms: C_22  and  C_32
REMARK   11  A    between atoms: C_23  and  C_25
REMARK   12  A    between atoms: C_28  and  O_31
REMARK                            x       y       z     vdW  Elec       q    Type
REMARK                         _______ _______ _______ _____ _____    ______ ____
ROOT
ATOM      1  C   UNL     1      -1.778   1.184   3.078  0.00  0.00    +0.068 C 
ATOM      2  C   UNL     1      -1.616   2.596   2.577  0.00  0.00    +0.068 A 
ATOM      3  C   UNL     1      -1.425   2.973   1.254  0.00  0.00    +0.050 A 
ATOM      4  C   UNL     1      -1.324   4.336   1.211  0.00  0.00    +0.230 A 
ATOM      5  N   UNL     1      -1.448   4.792   2.478  0.00  0.00    -0.200 N 
ATOM      6  N   UNL     1      -1.630   3.680   3.316  0.00  0.00    -0.168 NA
ATOM      7  O   UNL     1      -1.136   5.021   0.057  0.00  0.00    -0.423 OA
ATOM      8  C   UNL     1      -1.322   4.356  -1.102  0.00  0.00    +0.200 C 
ATOM      9  C   UNL     1      -1.424   3.011  -1.189  0.00  0.00    +0.098 C 
ATOM     10  C   UNL     1      -1.333   2.113   0.020  0.00  0.00    +0.101 C 
ENDROOT
BRANCH   5  11
ATOM     11  C   UNL     1      -1.402   6.129   2.880  0.00  0.00    +0.069 A 
ATOM     12  C   UNL     1      -0.555   7.021   2.230  0.00  0.00    +0.029 A 
ATOM     13  C   UNL     1      -0.511   8.341   2.621  0.00  0.00    +0.017 A 
ATOM     14  C   UNL     1      -1.311   8.781   3.679  0.00  0.00    +0.059 A 
ATOM     15  C   UNL     1      -2.157   7.881   4.333  0.00  0.00    +0.017 A 
ATOM     16  C   UNL     1      -2.199   6.564   3.934  0.00  0.00    +0.029 A 
BRANCH  14  17
ATOM     17  C   UNL     1      -1.262  10.193   4.105  0.00  0.00    +0.339 C 
ATOM     18  O   UNL     1      -1.958  10.574   5.025  0.00  0.00    -0.245 OA
BRANCH  17  19
ATOM     19  O   UNL     1      -0.447  11.059   3.473  0.00  0.00    -0.461 OA
BRANCH  19  20
ATOM     20  C   UNL     1      -0.451  12.432   3.945  0.00  0.00    +0.235 C 
BRANCH  20  21
ATOM     21  C   UNL     1       0.530  13.261   3.112  0.00  0.00    +0.020 C 
ATOM     22  C   UNL     1       0.040  13.329   1.665  0.00  0.00    +0.010 C 
ATOM     23  C   UNL     1       0.619  14.676   3.688  0.00  0.00    +0.010 C 
ENDBRANCH  20  21
ENDBRANCH  19  20
ENDBRANCH  17  19
ENDBRANCH  14  17
ENDBRANCH   5  11
BRANCH  10  24
ATOM     24  C   UNL     1      -0.017   1.378   0.010  0.00  0.00    -0.034 A 
ATOM     25  C   UNL     1       1.170   2.088   0.002  0.00  0.00    +0.008 A 
ATOM     26  C   UNL     1       2.377   1.417  -0.013  0.00  0.00    +0.046 A 
ATOM     27  C   UNL     1       2.399   0.030  -0.021  0.00  0.00    +0.117 A 
ATOM     28  C   UNL     1       1.207  -0.680  -0.014  0.00  0.00    +0.046 A 
ATOM     29  C   UNL     1       0.002  -0.004   0.002  0.00  0.00    +0.008 A 
BRANCH  27  30
ATOM     30  O   UNL     1       3.586  -0.632  -0.037  0.00  0.00    -0.507 OA
ATOM     31  H   UNL     1       3.920  -0.818  -0.925  0.00  0.00    +0.292 HD
ENDBRANCH  27  30
ENDBRANCH  10  24
BRANCH   8  32
ATOM     32  N   UNL     1      -1.413   5.087  -2.260  0.00  0.00    -0.328 N 
ATOM     33  H   UNL     1      -1.344   6.054  -2.230  0.00  0.00    +0.145 HD
ATOM     34  H   UNL     1      -1.547   4.637  -3.109  0.00  0.00    +0.145 HD
ENDBRANCH   8  32
BRANCH   9  35
ATOM     35  C   UNL     1      -1.625   2.417  -2.476  0.00  0.00    +0.101 C 
ATOM     36  N   UNL     1      -1.785   1.945  -3.497  0.00  0.00    -0.191 NA
ENDBRANCH   9  35
TORSDOF 9
