REMARK  Name = ZINC09950457
REMARK  8 active torsions:
REMARK  status: ('A' for Active; 'I' for Inactive)
REMARK    1  A    between atoms: C_5  and  O_7
REMARK    2  A    between atoms: O_7  and  C_8
REMARK    3  A    between atoms: C_8  and  C_9
REMARK    4  A    between atoms: C_12  and  S_17
REMARK    5  A    between atoms: N_13  and  C_14
REMARK    6  A    between atoms: S_17  and  C_18
REMARK    7  A    between atoms: C_18  and  C_19
REMARK    8  A    between atoms: N_24  and  C_27
REMARK                            x       y       z     vdW  Elec       q    Type
REMARK                         _______ _______ _______ _____ _____    ______ ____
ROOT
ATOM      1  C   UNL     1      -7.797  -2.885   6.456  0.00  0.00    +0.172 A 
ATOM      2  N   UNL     1      -7.440  -1.784   5.858  0.00  0.00    -0.130 NA
ATOM      3  N   UNL     1      -6.846  -2.056   4.751  0.00  0.00    -0.122 NA
ATOM      4  C   UNL     1      -6.791  -3.357   4.582  0.00  0.00    +0.192 A 
ATOM      5  N   UNL     1      -7.402  -3.926   5.662  0.00  0.00    -0.300 N 
ENDROOT
BRANCH   5   6
ATOM      6  C   UNL     1      -7.590  -5.356   5.920  0.00  0.00    +0.091 C 
ATOM      7  C   UNL     1      -6.736  -6.338   5.115  0.00  0.00    +0.027 C 
ATOM      8  C   UNL     1      -8.229  -6.195   4.811  0.00  0.00    +0.027 C 
ENDBRANCH   5   6
BRANCH   1   9
ATOM      9  C   UNL     1      -8.517  -2.992   7.776  0.00  0.00    +0.305 C 
BRANCH   9  10
ATOM     10  O   UNL     1      -9.928  -2.993   7.550  0.00  0.00    -0.483 OA
BRANCH  10  15
ATOM     11  C   UNL     1     -10.983  -3.262  11.021  0.00  0.00    +0.004 A 
ATOM     12  C   UNL     1     -12.357  -3.268  10.873  0.00  0.00    +0.002 A 
ATOM     13  C   UNL     1     -12.920  -3.182   9.614  0.00  0.00    +0.023 A 
ATOM     14  C   UNL     1     -12.109  -3.090   8.498  0.00  0.00    +0.083 A 
ATOM     15  C   UNL     1     -10.728  -3.083   8.644  0.00  0.00    +0.139 A 
ATOM     16  C   UNL     1     -10.167  -3.176   9.909  0.00  0.00    +0.047 A 
ATOM     17 CL   UNL     1     -12.815  -2.982   6.916  0.00  0.00    -0.080 Cl
ENDBRANCH  10  15
ENDBRANCH   9  10
ENDBRANCH   1   9
BRANCH   4  18
ATOM     18  S   UNL     1      -6.073  -4.206   3.216  0.00  0.00    -0.077 S 
BRANCH  18  19
ATOM     19  C   UNL     1      -5.499  -2.797   2.235  0.00  0.00    +0.173 C 
BRANCH  19  20
ATOM     20  C   UNL     1      -4.831  -3.297   0.980  0.00  0.00    +0.226 C 
ATOM     21  O   UNL     1      -4.751  -4.488   0.769  0.00  0.00    -0.275 OA
ATOM     22  N   UNL     1      -4.323  -2.419   0.092  0.00  0.00    -0.298 N 
ATOM     23  C   UNL     1      -3.667  -2.885  -1.139  0.00  0.00    +0.126 C 
ATOM     24  C   UNL     1      -2.298  -2.205  -1.248  0.00  0.00    +0.125 C 
ATOM     25  N   UNL     1      -2.469  -0.750  -1.149  0.00  0.00    -0.314 N 
ATOM     26  C   UNL     1      -3.012  -0.365   0.161  0.00  0.00    +0.125 C 
ATOM     27  C   UNL     1      -4.410  -0.970   0.329  0.00  0.00    +0.126 C 
BRANCH  25  28
ATOM     28  C   UNL     1      -1.274  -0.089  -1.406  0.00  0.00    +0.099 A 
ATOM     29  C   UNL     1      -1.230   1.301  -1.360  0.00  0.00    +0.042 A 
ATOM     30  C   UNL     1      -0.034   1.945  -1.617  0.00  0.00    +0.005 A 
ATOM     31  C   UNL     1       1.083   1.175  -1.913  0.00  0.00    +0.018 A 
ATOM     32  C   UNL     1       0.968  -0.200  -1.942  0.00  0.00    +0.084 A 
ATOM     33  N   UNL     1      -0.191  -0.867  -1.694  0.00  0.00    -0.350 N 
ATOM     34  H   UNL     1      -0.247  -1.891  -1.723  0.00  0.00    +0.166 HD
ENDBRANCH  25  28
ENDBRANCH  19  20
ENDBRANCH  18  19
ENDBRANCH   4  18
TORSDOF 8
