REMARK  Name = ZINC36589263
REMARK  15 active torsions:
REMARK  status: ('A' for Active; 'I' for Inactive)
REMARK    1  A    between atoms: C_1  and  C_2
REMARK    2  A    between atoms: C_5  and  S_8
REMARK    3  A    between atoms: S_8  and  C_11
REMARK    4  A    between atoms: C_11  and  N_12
REMARK    5  A    between atoms: C_13  and  C_15
REMARK    6  A    between atoms: C_15  and  C_17
REMARK    7  A    between atoms: C_15  and  N_26
REMARK    8  A    between atoms: C_20  and  N_23
REMARK    9  A    between atoms: N_26  and  C_33
REMARK   10  A    between atoms: C_27  and  C_29
REMARK   11  A    between atoms: C_30  and  C_31
REMARK   12  A    between atoms: C_30  and  C_32
REMARK   13  A    between atoms: C_33  and  C_34
REMARK   14  A    between atoms: C_33  and  C_35
REMARK   15  A    between atoms: C_33  and  C_36
REMARK                            x       y       z     vdW  Elec       q    Type
REMARK                         _______ _______ _______ _____ _____    ______ ____
ROOT
ATOM      1  C   UNL     1       6.282  -8.142   3.341  0.00  0.00    +0.193 C 
ENDROOT
BRANCH   1   2
ATOM      2  C   UNL     1       6.511  -7.774   4.784  0.00  0.00    -0.018 A 
ATOM      3  C   UNL     1       5.640  -8.223   5.758  0.00  0.00    +0.008 A 
ATOM      4  C   UNL     1       5.850  -7.886   7.082  0.00  0.00    +0.033 A 
ATOM      5  C   UNL     1       6.931  -7.098   7.432  0.00  0.00    +0.126 A 
ATOM      6  C   UNL     1       7.803  -6.649   6.457  0.00  0.00    +0.033 A 
ATOM      7  C   UNL     1       7.595  -6.991   5.134  0.00  0.00    +0.008 A 
BRANCH   5   8
ATOM      8  N   UNL     1       7.156  -6.736   8.849  0.00  0.00    +0.056 N 
ATOM      9  O   UNL     1       6.394  -7.128   9.701  0.00  0.00    -0.126 OA
ATOM     10  O   UNL     1       8.102  -6.048   9.154  0.00  0.00    -0.126 OA
ENDBRANCH   5   8
ENDBRANCH   1   2
BRANCH   1  12
ATOM     11  N   UNL     1       8.611  -8.467   2.575  0.00  0.00    -0.294 N 
ATOM     12  C   UNL     1       7.412  -9.014   2.859  0.00  0.00    +0.239 C 
ATOM     13  O   UNL     1       7.244 -10.208   2.727  0.00  0.00    -0.273 OA
ATOM     14  H   UNL     1       8.746  -7.512   2.680  0.00  0.00    +0.150 HD
BRANCH  11  15
ATOM     15  C   UNL     1       9.710  -9.315   2.106  0.00  0.00    +0.278 C 
BRANCH  15  16
ATOM     16  S   UNL     1       9.757  -9.297   0.293  0.00  0.00    +0.013 S 
ATOM     17  O   UNL     1       8.453  -9.505  -0.232  0.00  0.00    -0.168 OA
ATOM     18  O   UNL     1      10.857 -10.065  -0.175  0.00  0.00    -0.168 OA
BRANCH  16  23
ATOM     19  C   UNL     1      11.118  -3.605  -1.171  0.00  0.00    +0.044 C 
ATOM     20  C   UNL     1      10.778  -5.027  -0.805  0.00  0.00    -0.050 A 
ATOM     21  C   UNL     1      11.788  -5.950  -0.609  0.00  0.00    +0.005 A 
ATOM     22  C   UNL     1      11.476  -7.254  -0.274  0.00  0.00    +0.027 A 
ATOM     23  C   UNL     1      10.155  -7.635  -0.134  0.00  0.00    +0.090 A 
ATOM     24  C   UNL     1       9.145  -6.711  -0.329  0.00  0.00    +0.027 A 
ATOM     25  C   UNL     1       9.457  -5.406  -0.661  0.00  0.00    +0.005 A 
ENDBRANCH  16  23
ENDBRANCH  15  16
ENDBRANCH  11  15
ENDBRANCH   1  12
BRANCH   1  26
ATOM     26  N   UNL     1       5.016  -8.870   3.217  0.00  0.00    -0.277 N 
ATOM     27  C   UNL     1       3.958  -8.287   2.620  0.00  0.00    +0.241 C 
ATOM     28  O   UNL     1       2.925  -8.910   2.470  0.00  0.00    -0.271 OA
BRANCH  27  29
ATOM     29  C   UNL     1       4.053  -6.896   2.150  0.00  0.00    +0.066 C 
ATOM     30  C   UNL     1       2.996  -6.306   1.599  0.00  0.00    -0.071 C 
ATOM     31  C   UNL     1       1.735  -7.095   1.357  0.00  0.00    +0.039 C 
ATOM     32  C   UNL     1       3.059  -4.850   1.218  0.00  0.00    +0.039 C 
ENDBRANCH  27  29
BRANCH  26  33
ATOM     33  C   UNL     1       4.901 -10.233   3.743  0.00  0.00    +0.030 C 
ATOM     34  C   UNL     1       6.004 -10.475   4.776  0.00  0.00    +0.031 C 
ATOM     35  C   UNL     1       3.534 -10.410   4.406  0.00  0.00    +0.031 C 
ATOM     36  C   UNL     1       5.046 -11.236   2.597  0.00  0.00    +0.031 C 
ENDBRANCH  26  33
ENDBRANCH   1  26
TORSDOF 9
