REMARK  Name = ZINC33250929
REMARK  9 active torsions:
REMARK  status: ('A' for Active; 'I' for Inactive)
REMARK    1  A    between atoms: C_1  and  C_2
REMARK    2  A    between atoms: C_4  and  C_39
REMARK    3  A    between atoms: C_5  and  C_9
REMARK    4  A    between atoms: C_6  and  C_8
REMARK    5  A    between atoms: C_10  and  C_11
REMARK    6  A    between atoms: C_12  and  S_17
REMARK    7  A    between atoms: C_13  and  C_16
REMARK    8  A    between atoms: S_17  and  N_20
REMARK    9  A    between atoms: C_24  and  C_27
REMARK                            x       y       z     vdW  Elec       q    Type
REMARK                         _______ _______ _______ _____ _____    ______ ____
ROOT
ATOM      1  S   UNL     1      -3.482   6.613  -0.471  0.00  0.00    +0.066 S 
ATOM      2  O   UNL     1      -2.858   7.885  -0.363  0.00  0.00    -0.153 OA
ATOM      3  O   UNL     1      -3.651   5.951  -1.717  0.00  0.00    -0.153 OA
ENDROOT
BRANCH   1   5
ATOM      4  C   UNL     1      -5.517   7.697   1.161  0.00  0.00    +0.187 A 
ATOM      5  C   UNL     1      -5.088   6.778   0.234  0.00  0.00    +0.174 A 
ATOM      6  C   UNL     1      -6.235   6.003  -0.026  0.00  0.00    +0.107 A 
ATOM      7  N   UNL     1      -7.188   6.482   0.722  0.00  0.00    -0.081 NA
ATOM      8  O   UNL     1      -6.816   7.422   1.385  0.00  0.00    -0.353 OA
ATOM      9  C   UNL     1      -6.339   4.842  -0.982  0.00  0.00    +0.071 C 
BRANCH   4  11
ATOM     10  C   UNL     1      -5.287   9.589   2.678  0.00  0.00    +0.012 C 
ATOM     11  C   UNL     1      -4.721   8.761   1.780  0.00  0.00    +0.051 C 
BRANCH  10  16
ATOM     12  C   UNL     1      -2.166  13.763   5.107  0.00  0.00    +0.044 C 
ATOM     13  C   UNL     1      -2.984  12.669   4.471  0.00  0.00    -0.050 A 
ATOM     14  C   UNL     1      -4.213  12.967   3.907  0.00  0.00    +0.007 A 
ATOM     15  C   UNL     1      -4.967  11.972   3.323  0.00  0.00    -0.043 A 
ATOM     16  C   UNL     1      -4.488  10.658   3.300  0.00  0.00    -0.019 A 
ATOM     17  C   UNL     1      -3.248  10.364   3.876  0.00  0.00    -0.043 A 
ATOM     18  C   UNL     1      -2.503  11.372   4.452  0.00  0.00    +0.007 A 
ATOM     19  C   UNL     1      -2.725   8.951   3.863  0.00  0.00    +0.044 C 
ATOM     20  C   UNL     1      -6.305  12.298   2.711  0.00  0.00    +0.044 C 
ENDBRANCH  10  16
ENDBRANCH   4  11
ENDBRANCH   1   5
BRANCH   1  21
ATOM     21  N   UNL     1      -2.625   5.581   0.500  0.00  0.00    -0.176 NA
ATOM     22  C   UNL     1      -1.835   6.096   1.627  0.00  0.00    +0.109 C 
ATOM     23  C   UNL     1      -0.400   5.578   1.501  0.00  0.00    +0.018 C 
ATOM     24  C   UNL     1      -0.420   4.051   1.394  0.00  0.00    +0.015 C 
ATOM     25  C   UNL     1      -1.195   3.636   0.141  0.00  0.00    +0.091 C 
ATOM     26  C   UNL     1      -2.640   4.133   0.252  0.00  0.00    +0.122 C 
BRANCH  25  27
ATOM     27  C   UNL     1      -1.188   2.134   0.019  0.00  0.00    +0.224 C 
ATOM     28  O   UNL     1      -2.134   1.489   0.418  0.00  0.00    -0.275 OA
ATOM     29  N   UNL     1      -0.129   1.509  -0.533  0.00  0.00    -0.271 N 
ATOM     30  C   UNL     1       0.965   2.282  -1.136  0.00  0.00    +0.114 C 
ATOM     31  C   UNL     1       1.326   1.620  -2.472  0.00  0.00    +0.024 C 
ATOM     32  C   UNL     1       1.845   0.208  -2.198  0.00  0.00    +0.038 C 
ATOM     33  C   UNL     1       0.881  -0.548  -1.323  0.00  0.00    -0.026 A 
ATOM     34  C   UNL     1      -0.051   0.109  -0.536  0.00  0.00    +0.039 A 
ATOM     35  C   UNL     1      -0.924  -0.620   0.263  0.00  0.00    +0.024 A 
ATOM     36  C   UNL     1      -0.865  -1.999   0.272  0.00  0.00    +0.002 A 
ATOM     37  C   UNL     1       0.063  -2.654  -0.516  0.00  0.00    +0.000 A 
ATOM     38  C   UNL     1       0.932  -1.932  -1.310  0.00  0.00    +0.005 A 
ENDBRANCH  25  27
ENDBRANCH   1  21
TORSDOF 5
