REMARK  Name = ZINC67157913
REMARK  9 active torsions:
REMARK  status: ('A' for Active; 'I' for Inactive)
REMARK    1  A    between atoms: C_1  and  C_2
REMARK    2  A    between atoms: C_2  and  C_3
REMARK    3  A    between atoms: C_2  and  C_4
REMARK    4  A    between atoms: C_4  and  C_5
REMARK    5  A    between atoms: C_5  and  C_6
REMARK    6  A    between atoms: N_8  and  C_9
REMARK    7  A    between atoms: C_9  and  C_10
REMARK    8  A    between atoms: C_15  and  N_18
REMARK    9  A    between atoms: C_22  and  C_24
REMARK                            x       y       z     vdW  Elec       q    Type
REMARK                         _______ _______ _______ _____ _____    ______ ____
ROOT
ATOM      1  C   UNL     1       6.336  -0.354  -3.779  0.00  0.00    +0.233 C 
ATOM      2  O   UNL     1       6.754   0.276  -2.830  0.00  0.00    -0.274 OA
ATOM      3  N   UNL     1       7.167  -0.681  -4.789  0.00  0.00    -0.300 N 
ATOM      4  C   UNL     1       6.674  -1.439  -5.947  0.00  0.00    +0.106 C 
ATOM      5  C   UNL     1       7.031  -0.674  -7.225  0.00  0.00    +0.004 C 
ATOM      6  C   UNL     1       8.536  -0.399  -7.247  0.00  0.00    -0.065 C 
ATOM      7  C   UNL     1       8.916   0.467  -6.044  0.00  0.00    +0.004 C 
ATOM      8  C   UNL     1       8.580  -0.281  -4.755  0.00  0.00    +0.106 C 
ENDROOT
BRANCH   6   9
ATOM      9  N   UNL     1       8.886   0.306  -8.488  0.00  0.00    +0.389 N 
ATOM     10  C   UNL     1       8.541  -0.536  -9.653  0.00  0.00    -0.077 C 
ATOM     11  C   UNL     1       9.662  -0.258 -10.687  0.00  0.00    -0.020 C 
ATOM     12  C   UNL     1      10.906  -0.118  -9.770  0.00  0.00    -0.008 C 
ATOM     13  C   UNL     1      10.336   0.574  -8.514  0.00  0.00    +0.019 C 
ATOM     14  H   UNL     1       8.379   1.177  -8.539  0.00  0.00    -0.080 HD
BRANCH  13  15
ATOM     15  C   UNL     1      10.582   2.058  -8.590  0.00  0.00    +0.197 C 
ATOM     16  O   UNL     1       9.645   2.828  -8.620  0.00  0.00    -0.278 OA
ATOM     17  N   UNL     1      11.844   2.531  -8.625  0.00  0.00    -0.331 N 
ATOM     18  H   UNL     1      12.593   1.916  -8.601  0.00  0.00    +0.145 HD
ATOM     19  H   UNL     1      12.002   3.487  -8.674  0.00  0.00    +0.145 HD
ENDBRANCH  13  15
ENDBRANCH   6   9
BRANCH   1  20
ATOM     20  C   UNL     1       4.889  -0.772  -3.827  0.00  0.00    +0.200 C 
BRANCH  20  23
ATOM     21  C   UNL     1       2.893  -0.559  -2.447  0.00  0.00    +0.213 C 
ATOM     22  O   UNL     1       2.281  -1.183  -3.288  0.00  0.00    -0.276 OA
ATOM     23  N   UNL     1       4.204  -0.300  -2.622  0.00  0.00    -0.307 N 
ATOM     24  H   UNL     1       4.693   0.200  -1.950  0.00  0.00    +0.149 HD
BRANCH  21  25
ATOM     25  C   UNL     1       2.187  -0.073  -1.207  0.00  0.00    +0.096 C 
BRANCH  25  26
ATOM     26  C   UNL     1       0.718  -0.497  -1.257  0.00  0.00    +0.012 C 
BRANCH  26  28
ATOM     27  C   UNL     1      -0.019   1.526   0.010  0.00  0.00    +0.007 C 
ATOM     28  C   UNL     1       0.002  -0.004   0.002  0.00  0.00    -0.017 C 
ATOM     29  C   UNL     1      -1.433  -0.534   0.013  0.00  0.00    +0.007 C 
ENDBRANCH  26  28
ENDBRANCH  25  26
ENDBRANCH  21  25
ENDBRANCH  20  23
ENDBRANCH   1  20
TORSDOF 7
