REMARK  Name = ZINC36497854
REMARK  16 active torsions:
REMARK  status: ('A' for Active; 'I' for Inactive)
REMARK    1  A    between atoms: C_1  and  C_2
REMARK    2  A    between atoms: C_2  and  C_3
REMARK    3  A    between atoms: C_2  and  C_4
REMARK    4  A    between atoms: C_2  and  C_5
REMARK    5  A    between atoms: C_5  and  C_6
REMARK    6  A    between atoms: C_6  and  C_7
REMARK    7  A    between atoms: C_6  and  C_8
REMARK    8  A    between atoms: C_6  and  N_9
REMARK    9  A    between atoms: C_10  and  C_12
REMARK   10  A    between atoms: C_12  and  C_14
REMARK   11  A    between atoms: C_12  and  N_24
REMARK   12  A    between atoms: C_17  and  C_20
REMARK   13  A    between atoms: N_24  and  C_25
REMARK   14  A    between atoms: C_25  and  C_26
REMARK   15  A    between atoms: C_31  and  C_33
REMARK   16  A    between atoms: C_38  and  O_39
REMARK                            x       y       z     vdW  Elec       q    Type
REMARK                         _______ _______ _______ _____ _____    ______ ____
ROOT
ATOM      1  C   UNL     1       5.071   0.057  -5.708  0.00  0.00    +0.193 C 
ENDROOT
BRANCH   1   2
ATOM      2  C   UNL     1       4.413  -1.284  -5.509  0.00  0.00    -0.018 A 
ATOM      3  C   UNL     1       5.057  -2.268  -4.782  0.00  0.00    +0.006 A 
ATOM      4  C   UNL     1       4.454  -3.498  -4.599  0.00  0.00    +0.013 A 
ATOM      5  C   UNL     1       3.208  -3.745  -5.144  0.00  0.00    +0.055 A 
ATOM      6  C   UNL     1       2.564  -2.761  -5.870  0.00  0.00    +0.013 A 
ATOM      7  C   UNL     1       3.165  -1.529  -6.049  0.00  0.00    +0.006 A 
BRANCH   5   8
ATOM      8  C   UNL     1       2.551  -5.087  -4.946  0.00  0.00    +0.417 C 
ATOM      9  F   UNL     1       1.778  -5.060  -3.780  0.00  0.00    -0.166 F 
ATOM     10  F   UNL     1       1.730  -5.371  -6.042  0.00  0.00    -0.166 F 
ATOM     11  F   UNL     1       3.535  -6.075  -4.830  0.00  0.00    -0.166 F 
ENDBRANCH   5   8
ENDBRANCH   1   2
BRANCH   1  13
ATOM     12  N   UNL     1       3.380   1.174  -4.289  0.00  0.00    -0.308 N 
ATOM     13  C   UNL     1       4.681   0.980  -4.582  0.00  0.00    +0.239 C 
ATOM     14  O   UNL     1       5.538   1.547  -3.938  0.00  0.00    -0.273 OA
ATOM     15  H   UNL     1       2.697   0.665  -4.754  0.00  0.00    +0.149 HD
BRANCH  12  16
ATOM     16  C   UNL     1       2.997   2.153  -3.269  0.00  0.00    +0.030 C 
ATOM     17  C   UNL     1       3.850   3.413  -3.425  0.00  0.00    +0.031 C 
ATOM     18  C   UNL     1       3.220   1.554  -1.878  0.00  0.00    +0.031 C 
BRANCH  16  19
ATOM     19  C   UNL     1       1.519   2.514  -3.437  0.00  0.00    +0.031 C 
BRANCH  19  21
ATOM     20  C   UNL     1       0.925   1.264  -5.518  0.00  0.00    +0.010 C 
ATOM     21  C   UNL     1       1.194   2.649  -4.926  0.00  0.00    -0.036 C 
ATOM     22  C   UNL     1       2.379   3.292  -5.650  0.00  0.00    +0.010 C 
ATOM     23  C   UNL     1      -0.046   3.527  -5.099  0.00  0.00    +0.010 C 
ENDBRANCH  19  21
ENDBRANCH  16  19
ENDBRANCH  12  16
ENDBRANCH   1  13
BRANCH   1  24
ATOM     24  N   UNL     1       6.526  -0.109  -5.722  0.00  0.00    -0.275 N 
ATOM     25  C   UNL     1       7.136  -0.616  -6.811  0.00  0.00    +0.251 C 
ATOM     26  O   UNL     1       8.311  -0.924  -6.762  0.00  0.00    -0.270 OA
BRANCH  25  27
ATOM     27  C   UNL     1       6.378  -0.795  -8.064  0.00  0.00    +0.078 A 
ATOM     28  C   UNL     1       4.982  -0.824  -8.043  0.00  0.00    +0.017 A 
ATOM     29  C   UNL     1       4.280  -0.992  -9.216  0.00  0.00    +0.001 A 
ATOM     30  C   UNL     1       4.953  -1.133 -10.419  0.00  0.00    +0.004 A 
ATOM     31  C   UNL     1       6.333  -1.106 -10.455  0.00  0.00    +0.046 A 
ATOM     32  C   UNL     1       7.055  -0.932  -9.284  0.00  0.00    +0.129 A 
BRANCH  32  33
ATOM     33  O   UNL     1       8.411  -0.901  -9.318  0.00  0.00    -0.506 OA
ATOM     34  H   UNL     1       8.827  -1.768  -9.216  0.00  0.00    +0.292 HD
ENDBRANCH  32  33
ENDBRANCH  25  27
BRANCH  24  35
ATOM     35  C   UNL     1       7.318   0.275  -4.551  0.00  0.00    +0.183 C 
BRANCH  35  36
ATOM     36  C   UNL     1       7.974   1.608  -4.803  0.00  0.00    +0.122 A 
ATOM     37  C   UNL     1       7.412   2.813  -4.595  0.00  0.00    +0.046 A 
ATOM     38  C   UNL     1       8.374   3.782  -4.962  0.00  0.00    +0.041 A 
ATOM     39  C   UNL     1       9.466   3.112  -5.372  0.00  0.00    +0.195 A 
ATOM     40  O   UNL     1       9.220   1.796  -5.268  0.00  0.00    -0.466 OA
ENDBRANCH  35  36
ENDBRANCH  24  35
ENDBRANCH   1  24
TORSDOF 11
