REMARK  Name = ZINC13500979
REMARK  12 active torsions:
REMARK  status: ('A' for Active; 'I' for Inactive)
REMARK    1  A    between atoms: C_1  and  C_2
REMARK    2  A    between atoms: C_2  and  C_3
REMARK    3  A    between atoms: C_3  and  C_4
REMARK    4  A    between atoms: C_4  and  C_6
REMARK    5  A    between atoms: C_4  and  N_72
REMARK    6  A    between atoms: N_10  and  C_11
REMARK    7  A    between atoms: C_16  and  C_17
REMARK    8  A    between atoms: C_16  and  N_72
REMARK    9  A    between atoms: C_17  and  C_18
REMARK   10  A    between atoms: C_24  and  C_25
REMARK   11  A    between atoms: C_24  and  N_72
REMARK   12  A    between atoms: C_31  and  C_37
REMARK                            x       y       z     vdW  Elec       q    Type
REMARK                         _______ _______ _______ _____ _____    ______ ____
ROOT
ATOM      1  N   UNL     1       1.144  -3.147   5.151  0.00  0.00    +0.389 N 
ATOM      2  H   UNL     1       1.344  -2.250   5.610  0.00  0.00    -0.080 HD
ENDROOT
BRANCH   1   3
ATOM      3  C   UNL     1       2.197  -3.420   4.151  0.00  0.00    +0.003 C 
BRANCH   3   4
ATOM      4  C   UNL     1       2.382  -4.906   3.975  0.00  0.00    +0.138 A 
ATOM      5  N   UNL     1       2.757  -5.762   4.895  0.00  0.00    -0.115 NA
ATOM      6  N   UNL     1       2.796  -6.931   4.356  0.00  0.00    -0.023 NA
ATOM      7  N   UNL     1       2.457  -6.844   3.118  0.00  0.00    -0.044 NA
ATOM      8  N   UNL     1       2.188  -5.612   2.846  0.00  0.00    -0.228 N 
BRANCH   8   9
ATOM      9  C   UNL     1       1.758  -5.080   1.551  0.00  0.00    +0.111 C 
ATOM     10  C   UNL     1       0.459  -5.779   1.098  0.00  0.00    +0.027 C 
ATOM     11  C   UNL     1       0.622  -5.925  -0.436  0.00  0.00    +0.002 C 
ATOM     12  C   UNL     1       2.128  -6.256  -0.590  0.00  0.00    +0.002 C 
ATOM     13  C   UNL     1       2.818  -5.382   0.478  0.00  0.00    +0.027 C 
ENDBRANCH   8   9
ENDBRANCH   3   4
BRANCH   3  14
ATOM     14  C   UNL     1       3.507  -2.798   4.640  0.00  0.00    -0.008 C 
BRANCH  14  16
ATOM     15  C   UNL     1       4.724  -0.648   5.010  0.00  0.00    +0.004 C 
ATOM     16  C   UNL     1       3.378  -1.273   4.640  0.00  0.00    -0.005 C 
ENDBRANCH  14  16
ENDBRANCH   3  14
ENDBRANCH   1   3
BRANCH   1  17
ATOM     17  C   UNL     1       1.127  -4.215   6.172  0.00  0.00    -0.073 C 
BRANCH  17  18
ATOM     18  C   UNL     1       2.375  -4.081   7.046  0.00  0.00    +0.016 C 
BRANCH  18  19
ATOM     19  C   UNL     1       2.289  -5.051   8.196  0.00  0.00    -0.049 A 
ATOM     20  C   UNL     1       1.703  -4.662   9.386  0.00  0.00    +0.003 A 
ATOM     21  C   UNL     1       1.620  -5.554  10.440  0.00  0.00    +0.000 A 
ATOM     22  C   UNL     1       2.133  -6.831  10.306  0.00  0.00    +0.000 A 
ATOM     23  C   UNL     1       2.724  -7.218   9.118  0.00  0.00    +0.000 A 
ATOM     24  C   UNL     1       2.803  -6.328   8.063  0.00  0.00    +0.003 A 
ENDBRANCH  18  19
ENDBRANCH  17  18
ENDBRANCH   1  17
BRANCH   1  25
ATOM     25  C   UNL     1      -0.174  -3.062   4.486  0.00  0.00    -0.037 C 
BRANCH  25  26
ATOM     26  C   UNL     1      -0.249  -1.764   3.724  0.00  0.00    +0.001 A 
ATOM     27  C   UNL     1       0.072  -1.735   2.407  0.00  0.00    +0.017 A 
ATOM     28  C   UNL     1      -0.012  -0.459   1.694  0.00  0.00    -0.001 A 
ATOM     29  C   UNL     1       0.306  -0.366   0.336  0.00  0.00    +0.010 A 
ATOM     30  C   UNL     1       0.219   0.840  -0.300  0.00  0.00    +0.001 A 
ATOM     31  C   UNL     1      -0.190   1.974   0.390  0.00  0.00    +0.005 A 
ATOM     32  C   UNL     1      -0.502   1.907   1.730  0.00  0.00    -0.026 A 
ATOM     33  C   UNL     1      -0.420   0.690   2.398  0.00  0.00    +0.052 A 
ATOM     34  N   UNL     1      -0.732   0.593   3.738  0.00  0.00    -0.322 N 
ATOM     35  H   UNL     1      -1.013   1.386   4.221  0.00  0.00    +0.169 HD
ATOM     36  C   UNL     1      -0.652  -0.584   4.383  0.00  0.00    +0.251 A 
ATOM     37  O   UNL     1      -0.936  -0.632   5.568  0.00  0.00    -0.268 OA
ATOM     38  C   UNL     1      -0.938   3.147   2.468  0.00  0.00    +0.046 C 
ENDBRANCH  25  26
ENDBRANCH   1  25
TORSDOF 10
