REMARK  Name = ZINC13305829
REMARK  9 active torsions:
REMARK  status: ('A' for Active; 'I' for Inactive)
REMARK    1  A    between atoms: C_4  and  N_7
REMARK    2  A    between atoms: N_8  and  C_9
REMARK    3  A    between atoms: C_12  and  N_15
REMARK    4  A    between atoms: N_15  and  C_16
REMARK    5  A    between atoms: C_16  and  N_18
REMARK    6  A    between atoms: N_18  and  C_19
REMARK    7  A    between atoms: C_19  and  C_21
REMARK    8  A    between atoms: C_19  and  N_25
REMARK    9  A    between atoms: C_26  and  C_28
REMARK                            x       y       z     vdW  Elec       q    Type
REMARK                         _______ _______ _______ _____ _____    ______ ____
ROOT
ATOM      1  C   UNL     1       8.480  -5.950  -0.017  0.00  0.00    +0.136 C 
ATOM      2  S   UNL     1       7.015  -6.835  -0.014  0.00  0.00    -0.019 S 
ENDROOT
BRANCH   1   3
ATOM      3  N   UNL     1       8.456  -4.606  -0.105  0.00  0.00    -0.297 N 
ATOM      4  H   UNL     1       9.285  -4.110  -0.188  0.00  0.00    +0.154 HD
BRANCH   3   8
ATOM      5  C   UNL     1       4.815  -2.580  -0.025  0.00  0.00    +0.086 A 
ATOM      6  C   UNL     1       5.042  -3.649   0.849  0.00  0.00    +0.031 A 
ATOM      7  C   UNL     1       6.246  -4.316   0.819  0.00  0.00    +0.025 A 
ATOM      8  C   UNL     1       7.237  -3.927  -0.078  0.00  0.00    +0.033 A 
ATOM      9  C   UNL     1       7.015  -2.864  -0.948  0.00  0.00    +0.025 A 
ATOM     10  C   UNL     1       5.811  -2.196  -0.929  0.00  0.00    +0.031 A 
BRANCH   5  12
ATOM     11  N   UNL     1       2.705  -2.271   0.836  0.00  0.00    -0.149 NA
ATOM     12  N   UNL     1       3.623  -1.916   0.002  0.00  0.00    -0.149 NA
BRANCH  11  16
ATOM     13  C   UNL     1      -0.908  -0.259   0.917  0.00  0.00    +0.000 A 
ATOM     14  C   UNL     1      -0.687  -1.313   1.787  0.00  0.00    +0.002 A 
ATOM     15  C   UNL     1       0.515  -1.988   1.766  0.00  0.00    +0.029 A 
ATOM     16  C   UNL     1       1.511  -1.607   0.863  0.00  0.00    +0.086 A 
ATOM     17  C   UNL     1       1.281  -0.542  -0.012  0.00  0.00    +0.029 A 
ATOM     18  C   UNL     1       0.074   0.124   0.021  0.00  0.00    +0.002 A 
ENDBRANCH  11  16
ENDBRANCH   5  12
ENDBRANCH   3   8
ENDBRANCH   1   3
BRANCH   1  19
ATOM     19  N   UNL     1       9.659  -6.598   0.070  0.00  0.00    -0.305 N 
ATOM     20  H   UNL     1      10.490  -6.097   0.068  0.00  0.00    +0.150 HD
BRANCH  19  21
ATOM     21  C   UNL     1       9.686  -8.060   0.166  0.00  0.00    +0.211 C 
BRANCH  21  22
ATOM     22  C   UNL     1      10.677  -8.481   1.254  0.00  0.00    +0.225 C 
ATOM     23 CL   UNL     1      10.165  -7.784   2.835  0.00  0.00    -0.080 Cl
ATOM     24 CL   UNL     1      10.710 -10.280   1.372  0.00  0.00    -0.080 Cl
ATOM     25 CL   UNL     1      12.323  -7.875   0.834  0.00  0.00    -0.080 Cl
ENDBRANCH  21  22
BRANCH  21  26
ATOM     26  N   UNL     1      10.102  -8.626  -1.119  0.00  0.00    -0.287 N 
ATOM     27  C   UNL     1       9.192  -9.207  -1.926  0.00  0.00    +0.281 C 
ATOM     28  O   UNL     1       8.025  -9.261  -1.587  0.00  0.00    -0.267 OA
ATOM     29  H   UNL     1      11.033  -8.583  -1.390  0.00  0.00    +0.151 HD
BRANCH  27  30
ATOM     30  C   UNL     1       9.609  -9.774  -3.213  0.00  0.00    +0.189 A 
ATOM     31  C   UNL     1       8.793 -10.383  -4.123  0.00  0.00    +0.054 A 
ATOM     32  C   UNL     1       9.607 -10.769  -5.199  0.00  0.00    +0.042 A 
ATOM     33  C   UNL     1      10.868 -10.385  -4.902  0.00  0.00    +0.196 A 
ATOM     34  O   UNL     1      10.864  -9.781  -3.707  0.00  0.00    -0.458 OA
ENDBRANCH  27  30
ENDBRANCH  21  26
ENDBRANCH  19  21
ENDBRANCH   1  19
TORSDOF 9
