REMARK  Name = ZINC51062797
REMARK  10 active torsions:
REMARK  status: ('A' for Active; 'I' for Inactive)
REMARK    1  A    between atoms: C_1  and  C_2
REMARK    2  A    between atoms: C_2  and  C_3
REMARK    3  A    between atoms: C_3  and  C_4
REMARK    4  A    between atoms: C_4  and  N_5
REMARK    5  A    between atoms: C_6  and  C_8
REMARK    6  A    between atoms: N_13  and  C_15
REMARK    7  A    between atoms: C_15  and  C_16
REMARK    8  A    between atoms: C_24  and  C_28
REMARK    9  A    between atoms: C_25  and  O_27
REMARK   10  A    between atoms: C_28  and  C_29
REMARK                            x       y       z     vdW  Elec       q    Type
REMARK                         _______ _______ _______ _____ _____    ______ ____
ROOT
ATOM      1  C   UNL     1      -5.761  -7.928   0.084  0.00  0.00    -0.042 C 
ENDROOT
BRANCH   1   2
ATOM      2  C   UNL     1      -7.169  -8.448   0.225  0.00  0.00    -0.047 A 
ATOM      3  C   UNL     1      -7.879  -8.844  -0.863  0.00  0.00    +0.094 A 
ATOM      4  C   UNL     1      -9.194  -9.327  -0.705  0.00  0.00    +0.337 A 
ATOM      5  O   UNL     1      -9.819  -9.679  -1.689  0.00  0.00    -0.245 OA
ATOM      6  O   UNL     1      -9.774  -9.410   0.503  0.00  0.00    -0.422 OA
ATOM      7  C   UNL     1      -9.124  -9.033   1.624  0.00  0.00    +0.143 A 
ATOM      8  C   UNL     1      -7.806  -8.546   1.540  0.00  0.00    +0.019 A 
ATOM      9  C   UNL     1      -7.127  -8.159   2.701  0.00  0.00    +0.019 A 
ATOM     10  C   UNL     1      -7.744  -8.260   3.914  0.00  0.00    -0.005 A 
ATOM     11  C   UNL     1      -9.047  -8.746   4.004  0.00  0.00    +0.124 A 
ATOM     12  C   UNL     1      -9.738  -9.124   2.864  0.00  0.00    +0.092 A 
BRANCH  11  13
ATOM     13  O   UNL     1      -9.648  -8.841   5.218  0.00  0.00    -0.506 OA
ATOM     14  H   UNL     1     -10.134  -8.047   5.479  0.00  0.00    +0.292 HD
ENDBRANCH  11  13
BRANCH  10  15
ATOM     15  C   UNL     1      -7.012  -7.844   5.163  0.00  0.00    +0.035 C 
ATOM     16  C   UNL     1      -7.467  -6.443   5.578  0.00  0.00    +0.009 C 
ENDBRANCH  10  15
ENDBRANCH   1   2
BRANCH   1  21
ATOM     17  C   UNL     1      -4.429  -4.420   0.021  0.00  0.00    +0.058 C 
ATOM     18  C   UNL     1      -5.170  -3.915  -1.221  0.00  0.00    +0.009 C 
ATOM     19  C   UNL     1      -6.579  -4.514  -1.241  0.00  0.00    -0.018 C 
ATOM     20  C   UNL     1      -6.480  -6.040  -1.206  0.00  0.00    -0.078 C 
ATOM     21  N   UNL     1      -5.785  -6.461   0.017  0.00  0.00    +0.383 N 
ATOM     22  C   UNL     1      -4.409  -5.950   0.010  0.00  0.00    -0.066 C 
ATOM     23  H   UNL     1      -6.273  -6.098   0.822  0.00  0.00    -0.081 HD
BRANCH  17  25
ATOM     24  N   UNL     1      -2.787  -2.571   0.015  0.00  0.00    -0.315 N 
ATOM     25  C   UNL     1      -3.015  -3.899   0.010  0.00  0.00    +0.214 C 
ATOM     26  O   UNL     1      -2.083  -4.674  -0.003  0.00  0.00    -0.276 OA
ATOM     27  H   UNL     1      -3.533  -1.950   0.025  0.00  0.00    +0.149 HD
BRANCH  24  28
ATOM     28  C   UNL     1      -1.413  -2.063   0.004  0.00  0.00    +0.104 C 
BRANCH  28  29
ATOM     29  C   UNL     1      -1.433  -0.534   0.013  0.00  0.00    +0.018 C 
BRANCH  29  31
ATOM     30  C   UNL     1      -0.019   1.526   0.010  0.00  0.00    +0.004 C 
ATOM     31  C   UNL     1       0.002  -0.004   0.002  0.00  0.00    -0.002 C 
ENDBRANCH  29  31
ENDBRANCH  28  29
ENDBRANCH  24  28
ENDBRANCH  17  25
ENDBRANCH   1  21
TORSDOF 8
