REMARK  Name = ZINC35072156
REMARK  13 active torsions:
REMARK  status: ('A' for Active; 'I' for Inactive)
REMARK    1  A    between atoms: C_1  and  C_2
REMARK    2  A    between atoms: C_5  and  C_36
REMARK    3  A    between atoms: C_6  and  N_8
REMARK    4  A    between atoms: C_18  and  C_19
REMARK    5  A    between atoms: C_19  and  C_21
REMARK    6  A    between atoms: C_19  and  N_22
REMARK    7  A    between atoms: N_22  and  C_23
REMARK    8  A    between atoms: C_23  and  C_24
REMARK    9  A    between atoms: C_24  and  N_25
REMARK   10  A    between atoms: N_25  and  C_26
REMARK   11  A    between atoms: N_25  and  C_27
REMARK   12  A    between atoms: C_28  and  C_30
REMARK   13  A    between atoms: C_30  and  C_31
REMARK                            x       y       z     vdW  Elec       q    Type
REMARK                         _______ _______ _______ _____ _____    ______ ____
ROOT
ATOM      1  N   UNL     1      -0.778  -1.521   4.025  0.00  0.00    -0.263 N 
ATOM      2  C   UNL     1       0.369  -1.628   4.734  0.00  0.00    +0.266 A 
ATOM      3  O   UNL     1       0.878  -0.658   5.264  0.00  0.00    -0.267 OA
ATOM      4  C   UNL     1       0.978  -2.962   4.839  0.00  0.00    +0.065 A 
ATOM      5  C   UNL     1       2.159  -3.180   5.546  0.00  0.00    +0.015 A 
ATOM      6  C   UNL     1       2.685  -4.451   5.613  0.00  0.00    +0.001 A 
ATOM      7  C   UNL     1       2.050  -5.513   4.982  0.00  0.00    +0.002 A 
ATOM      8  C   UNL     1       0.883  -5.319   4.278  0.00  0.00    +0.028 A 
ATOM      9  C   UNL     1       0.329  -4.040   4.196  0.00  0.00    +0.078 A 
ATOM     10  N   UNL     1      -0.820  -3.804   3.514  0.00  0.00    -0.231 NA
ATOM     11  C   UNL     1      -1.337  -2.616   3.442  0.00  0.00    +0.138 A 
ENDROOT
BRANCH   1  17
ATOM     12  C   UNL     1      -4.058   1.766   5.644  0.00  0.00    +0.044 C 
ATOM     13  C   UNL     1      -2.992   1.346   4.665  0.00  0.00    -0.048 A 
ATOM     14  C   UNL     1      -2.627   2.194   3.635  0.00  0.00    +0.004 A 
ATOM     15  C   UNL     1      -1.649   1.812   2.735  0.00  0.00    +0.005 A 
ATOM     16  C   UNL     1      -1.034   0.582   2.861  0.00  0.00    -0.026 A 
ATOM     17  C   UNL     1      -1.399  -0.272   3.894  0.00  0.00    +0.054 A 
ATOM     18  C   UNL     1      -2.378   0.117   4.800  0.00  0.00    +0.030 A 
ATOM     19  C   UNL     1       0.030   0.166   1.879  0.00  0.00    +0.046 C 
ENDBRANCH   1  17
BRANCH  11  20
ATOM     20  C   UNL     1      -2.619  -2.439   2.670  0.00  0.00    +0.139 C 
ATOM     21  C   UNL     1      -2.443  -2.999   1.256  0.00  0.00    +0.036 C 
BRANCH  20  22
ATOM     22  N   UNL     1      -3.701  -3.157   3.348  0.00  0.00    -0.293 N 
ATOM     23  C   UNL     1      -4.742  -2.474   3.866  0.00  0.00    +0.221 C 
ATOM     24  O   UNL     1      -4.782  -1.266   3.770  0.00  0.00    -0.275 OA
BRANCH  22  25
ATOM     25  C   UNL     1      -3.652  -4.617   3.463  0.00  0.00    +0.090 C 
BRANCH  25  26
ATOM     26  C   UNL     1      -3.064  -5.001   4.822  0.00  0.00    -0.060 C 
BRANCH  26  27
ATOM     27  N   UNL     1      -3.152  -6.457   5.000  0.00  0.00    +0.377 N 
ATOM     28  C   UNL     1      -2.305  -7.124   4.001  0.00  0.00    -0.097 C 
ATOM     29  C   UNL     1      -2.693  -6.815   6.348  0.00  0.00    -0.097 C 
ATOM     30  H   UNL     1      -4.109  -6.753   4.880  0.00  0.00    -0.083 HD
ENDBRANCH  26  27
ENDBRANCH  25  26
ENDBRANCH  22  25
BRANCH  23  31
ATOM     31  C   UNL     1      -5.855  -3.213   4.564  0.00  0.00    +0.138 C 
BRANCH  31  32
ATOM     32  C   UNL     1      -6.886  -2.226   5.047  0.00  0.00    -0.001 A 
ATOM     33  C   UNL     1      -7.987  -1.761   4.408  0.00  0.00    +0.011 A 
ATOM     34  C   UNL     1      -8.802  -0.849   5.053  0.00  0.00    +0.008 A 
ATOM     35  C   UNL     1      -8.475  -0.447   6.305  0.00  0.00    +0.045 A 
ATOM     36  S   UNL     1      -6.979  -1.373   6.612  0.00  0.00    -0.101 S 
ENDBRANCH  31  32
ENDBRANCH  23  31
ENDBRANCH  20  22
ENDBRANCH  11  20
TORSDOF 8
