REMARK  Name = ZINC14881547
REMARK  9 active torsions:
REMARK  status: ('A' for Active; 'I' for Inactive)
REMARK    1  A    between atoms: C_1  and  O_2
REMARK    2  A    between atoms: O_2  and  C_3
REMARK    3  A    between atoms: C_3  and  C_4
REMARK    4  A    between atoms: C_4  and  N_5
REMARK    5  A    between atoms: C_8  and  C_12
REMARK    6  A    between atoms: C_8  and  C_20
REMARK    7  A    between atoms: C_12  and  C_13
REMARK    8  A    between atoms: C_25  and  C_26
REMARK    9  A    between atoms: C_25  and  N_66
REMARK                            x       y       z     vdW  Elec       q    Type
REMARK                         _______ _______ _______ _____ _____    ______ ____
ROOT
ATOM      1  N   UNL     1      -2.892   2.144  -1.126  0.00  0.00    -0.222 N 
ATOM      2  C   UNL     1      -2.176   1.005  -1.203  0.00  0.00    +0.247 C 
ATOM      3  O   UNL     1      -2.605  -0.128  -1.253  0.00  0.00    -0.273 OA
ATOM      4  C   UNL     1      -0.723   1.435  -1.214  0.00  0.00    +0.119 C 
ATOM      5  N   UNL     1      -0.792   2.904  -1.137  0.00  0.00    -0.284 N 
ATOM      6  C   UNL     1      -2.101   3.223  -1.088  0.00  0.00    +0.309 C 
ATOM      7  O   UNL     1      -2.517   4.363  -1.018  0.00  0.00    -0.252 OA
ATOM      8  H   UNL     1      -0.042   3.520  -1.123  0.00  0.00    +0.151 HD
ENDROOT
BRANCH   4   9
ATOM      9  C   UNL     1      -0.041   0.995  -2.511  0.00  0.00    +0.018 C 
ATOM     10  C   UNL     1       1.403   1.505  -2.528  0.00  0.00    -0.013 C 
ATOM     11  C   UNL     1       2.060   1.116  -3.855  0.00  0.00    -0.078 C 
ATOM     12  C   UNL     1      -0.074   1.186  -5.000  0.00  0.00    -0.078 C 
ATOM     13  C   UNL     1      -0.795   1.579  -3.709  0.00  0.00    -0.013 C 
ATOM     14  N   UNL     1       1.301   1.728  -4.965  0.00  0.00    +0.380 N 
ATOM     15  H   UNL     1       1.255   2.743  -4.817  0.00  0.00    -0.082 HD
BRANCH  14  16
ATOM     16  C   UNL     1       1.981   1.461  -6.249  0.00  0.00    -0.075 C 
BRANCH  16  17
ATOM     17  C   UNL     1       3.437   1.921  -6.148  0.00  0.00    -0.024 C 
ATOM     18  C   UNL     1       4.162   1.633  -7.468  0.00  0.00    +0.006 C 
ATOM     19  C   UNL     1       5.650   1.937  -7.279  0.00  0.00    +0.027 C 
ATOM     20  C   UNL     1       5.826   3.291  -6.659  0.00  0.00    -0.031 C 
ATOM     21  C   UNL     1       4.884   3.939  -6.050  0.00  0.00    -0.031 C 
ATOM     22  C   UNL     1       3.482   3.429  -5.890  0.00  0.00    +0.028 C 
ENDBRANCH  16  17
ENDBRANCH  14  16
ENDBRANCH   4   9
BRANCH   1  23
ATOM     23  C   UNL     1      -4.356   2.195  -1.091  0.00  0.00    +0.146 C 
BRANCH  23  24
ATOM     24  C   UNL     1      -4.833   2.137   0.361  0.00  0.00    +0.179 C 
BRANCH  24  26
ATOM     25  C   UNL     1      -4.792   3.354   2.426  0.00  0.00    +0.194 C 
ATOM     26  O   UNL     1      -4.397   3.309   1.054  0.00  0.00    -0.381 OA
ENDBRANCH  24  26
ENDBRANCH  23  24
ENDBRANCH   1  23
BRANCH   4  27
ATOM     27  C   UNL     1       0.016   0.866   0.000  0.00  0.00    +0.070 C 
BRANCH  27  28
ATOM     28  C   UNL     1      -0.675   1.313   1.263  0.00  0.00    -0.045 A 
ATOM     29  C   UNL     1      -0.293   2.491   1.879  0.00  0.00    +0.006 A 
ATOM     30  C   UNL     1      -0.929   2.905   3.034  0.00  0.00    +0.038 A 
ATOM     31  C   UNL     1      -1.942   2.134   3.580  0.00  0.00    +0.123 A 
ATOM     32  C   UNL     1      -2.319   0.952   2.965  0.00  0.00    +0.038 A 
ATOM     33  C   UNL     1      -1.685   0.543   1.807  0.00  0.00    +0.006 A 
ATOM     34  F   UNL     1      -2.561   2.535   4.712  0.00  0.00    -0.205 F 
ENDBRANCH  27  28
ENDBRANCH   4  27
TORSDOF 8
