REMARK  Name = ZINC59058946
REMARK  11 active torsions:
REMARK  status: ('A' for Active; 'I' for Inactive)
REMARK    1  A    between atoms: C_1  and  C_2
REMARK    2  A    between atoms: C_2  and  O_3
REMARK    3  A    between atoms: O_3  and  C_4
REMARK    4  A    between atoms: C_8  and  C_19
REMARK    5  A    between atoms: C_9  and  O_10
REMARK    6  A    between atoms: O_10  and  C_11
REMARK    7  A    between atoms: C_11  and  C_12
REMARK    8  A    between atoms: C_19  and  N_20
REMARK    9  A    between atoms: N_20  and  C_21
REMARK   10  A    between atoms: C_25  and  C_27
REMARK   11  A    between atoms: C_36  and  C_38
REMARK                            x       y       z     vdW  Elec       q    Type
REMARK                         _______ _______ _______ _____ _____    ______ ____
ROOT
ATOM      1  C   UNL     1      -4.353  -4.545  -0.099  0.00  0.00    +0.152 C 
ENDROOT
BRANCH   1   6
ATOM      2  C   UNL     1      -1.020  -3.319   1.213  0.00  0.00    +0.162 A 
ATOM      3  C   UNL     1      -0.489  -2.718   0.083  0.00  0.00    +0.049 A 
ATOM      4  C   UNL     1      -1.207  -2.710  -1.098  0.00  0.00    +0.004 A 
ATOM      5  C   UNL     1      -2.455  -3.301  -1.156  0.00  0.00    +0.009 A 
ATOM      6  C   UNL     1      -2.991  -3.902  -0.032  0.00  0.00    +0.016 A 
ATOM      7  C   UNL     1      -2.275  -3.919   1.153  0.00  0.00    +0.167 A 
BRANCH   2   8
ATOM      8  O   UNL     1      -0.315  -3.328   2.376  0.00  0.00    -0.489 OA
BRANCH   8  10
ATOM      9  C   UNL     1       1.603  -2.804   3.749  0.00  0.00    +0.048 C 
ATOM     10  C   UNL     1       0.965  -2.693   2.363  0.00  0.00    +0.226 C 
ENDBRANCH   8  10
ENDBRANCH   2   8
BRANCH   7  11
ATOM     11  O   UNL     1      -2.798  -4.515   2.258  0.00  0.00    -0.483 OA
BRANCH  11  12
ATOM     12  C   UNL     1      -3.675  -3.728   3.066  0.00  0.00    +0.264 C 
BRANCH  12  13
ATOM     13  C   UNL     1      -4.055  -4.507   4.299  0.00  0.00    -0.010 A 
ATOM     14  C   UNL     1      -5.225  -5.242   4.318  0.00  0.00    +0.008 A 
ATOM     15  C   UNL     1      -5.575  -5.957   5.449  0.00  0.00    +0.020 A 
ATOM     16  C   UNL     1      -4.753  -5.935   6.562  0.00  0.00    +0.041 A 
ATOM     17  C   UNL     1      -3.582  -5.198   6.542  0.00  0.00    +0.020 A 
ATOM     18  C   UNL     1      -3.231  -4.489   5.409  0.00  0.00    +0.008 A 
ATOM     19 CL   UNL     1      -5.192  -6.831   7.982  0.00  0.00    -0.084 Cl
ENDBRANCH  12  13
ENDBRANCH  11  12
ENDBRANCH   7  11
ENDBRANCH   1   6
BRANCH   1  20
ATOM     20  N   UNL     1      -4.947  -4.295  -1.415  0.00  0.00    -0.267 N 
ATOM     21  C   UNL     1      -4.814  -5.208  -2.398  0.00  0.00    +0.217 C 
ATOM     22  O   UNL     1      -5.209  -4.956  -3.517  0.00  0.00    -0.276 OA
ATOM     23  C   UNL     1      -4.175  -6.542  -2.107  0.00  0.00    +0.109 C 
BRANCH  20  24
ATOM     24  C   UNL     1      -5.652  -3.110  -1.651  0.00  0.00    +0.037 A 
ATOM     25  C   UNL     1      -5.645  -2.096  -0.700  0.00  0.00    +0.023 A 
ATOM     26  C   UNL     1      -6.339  -0.923  -0.929  0.00  0.00    +0.003 A 
ATOM     27  C   UNL     1      -7.045  -0.751  -2.103  0.00  0.00    +0.013 A 
ATOM     28  C   UNL     1      -7.059  -1.764  -3.063  0.00  0.00    +0.039 A 
ATOM     29  C   UNL     1      -6.353  -2.945  -2.835  0.00  0.00    +0.036 A 
BRANCH  28  30
ATOM     30  C   UNL     1      -7.814  -1.582  -4.321  0.00  0.00    +0.228 A 
ATOM     31  N   UNL     1      -7.896  -2.468  -5.282  0.00  0.00    -0.209 NA
ATOM     32  C   UNL     1      -8.668  -1.962  -6.277  0.00  0.00    +0.110 A 
ATOM     33  C   UNL     1      -9.088  -2.453  -7.516  0.00  0.00    +0.031 A 
ATOM     34  C   UNL     1      -9.890  -1.676  -8.321  0.00  0.00    +0.002 A 
ATOM     35  C   UNL     1     -10.283  -0.410  -7.910  0.00  0.00    +0.004 A 
ATOM     36  C   UNL     1      -9.876   0.088  -6.690  0.00  0.00    +0.048 A 
ATOM     37  C   UNL     1      -9.069  -0.680  -5.865  0.00  0.00    +0.156 A 
ATOM     38  O   UNL     1      -8.523  -0.484  -4.644  0.00  0.00    -0.435 OA
ENDBRANCH  28  30
ENDBRANCH  20  24
ENDBRANCH   1  20
TORSDOF 9
