REMARK  Name = ZINC39674422
REMARK  7 active torsions:
REMARK  status: ('A' for Active; 'I' for Inactive)
REMARK    1  A    between atoms: C_1  and  C_2
REMARK    2  A    between atoms: C_4  and  C_9
REMARK    3  A    between atoms: C_5  and  C_8
REMARK    4  A    between atoms: C_9  and  C_11
REMARK    5  A    between atoms: C_9  and  N_12
REMARK    6  A    between atoms: C_13  and  C_15
REMARK    7  A    between atoms: C_26  and  C_28
REMARK                            x       y       z     vdW  Elec       q    Type
REMARK                         _______ _______ _______ _____ _____    ______ ____
ROOT
ATOM      1  C   UNL     1      -2.832  -1.850  -4.657  0.00  0.00    +0.100 C 
ATOM      2  C   UNL     1      -2.354  -0.487  -5.207  0.00  0.00    +0.121 C 
ATOM      3  N   UNL     1      -2.984  -0.380  -6.543  0.00  0.00    -0.296 N 
ATOM      4  C   UNL     1      -4.344  -0.941  -6.356  0.00  0.00    +0.115 C 
ATOM      5  C   UNL     1      -4.139  -2.144  -5.413  0.00  0.00    -0.004 C 
ATOM      6  C   UNL     1      -4.003  -3.431  -6.221  0.00  0.00    -0.010 C 
ATOM      7  C   UNL     1      -5.333  -3.732  -6.919  0.00  0.00    -0.082 C 
ATOM      8  N   UNL     1      -6.394  -3.871  -5.915  0.00  0.00    +0.379 N 
ATOM      9  C   UNL     1      -6.581  -2.600  -5.204  0.00  0.00    -0.082 C 
ATOM     10  C   UNL     1      -5.304  -2.250  -4.434  0.00  0.00    -0.010 C 
ATOM     11  C   UNL     1      -2.444   0.115  -7.675  0.00  0.00    +0.249 C 
ATOM     12  O   UNL     1      -3.122   0.217  -8.678  0.00  0.00    -0.270 OA
ATOM     13  H   UNL     1      -7.256  -4.129  -6.371  0.00  0.00    -0.086 HD
ATOM     14  H   UNL     1      -6.138  -4.589  -5.254  0.00  0.00    -0.086 HD
ENDROOT
BRANCH  11  15
ATOM     15  C   UNL     1      -1.027   0.533  -7.695  0.00  0.00    +0.073 A 
ATOM     16  C   UNL     1      -0.450   1.109  -6.561  0.00  0.00    +0.036 A 
ATOM     17  C   UNL     1       0.874   1.497  -6.586  0.00  0.00    +0.042 A 
ATOM     18  C   UNL     1       1.631   1.317  -7.733  0.00  0.00    +0.023 A 
ATOM     19  C   UNL     1       1.068   0.748  -8.859  0.00  0.00    +0.040 A 
ATOM     20  C   UNL     1      -0.257   0.349  -8.847  0.00  0.00    +0.136 A 
ATOM     21  F   UNL     1      -0.806  -0.212  -9.946  0.00  0.00    -0.205 F 
ATOM     22 CL   UNL     1       1.593   2.213  -5.178  0.00  0.00    -0.084 Cl
ENDBRANCH  11  15
BRANCH   1  24
ATOM     23  N   UNL     1      -3.080  -2.869  -2.417  0.00  0.00    -0.309 N 
ATOM     24  C   UNL     1      -3.093  -1.756  -3.176  0.00  0.00    +0.219 C 
ATOM     25  O   UNL     1      -3.315  -0.677  -2.666  0.00  0.00    -0.275 OA
ATOM     26  H   UNL     1      -2.903  -3.732  -2.825  0.00  0.00    +0.149 HD
BRANCH  23  27
ATOM     27  C   UNL     1      -3.334  -2.778  -0.977  0.00  0.00    +0.100 C 
ATOM     28  C   UNL     1      -2.030  -2.444  -0.250  0.00  0.00    +0.033 C 
BRANCH  27  31
ATOM     29  C   UNL     1      -1.881  -5.554  -0.002  0.00  0.00    +0.039 C 
ATOM     30  C   UNL     1      -3.262  -5.478  -0.656  0.00  0.00    +0.154 C 
ATOM     31  C   UNL     1      -3.866  -4.096  -0.476  0.00  0.00    -0.001 C 
ATOM     32  C   UNL     1      -4.977  -4.320   0.230  0.00  0.00    +0.063 C 
ATOM     33  N   UNL     1      -5.119  -5.637   0.495  0.00  0.00    -0.159 NA
ATOM     34  N   UNL     1      -4.219  -6.354   0.042  0.00  0.00    -0.180 NA
ATOM     35  C   UNL     1      -5.941  -3.249   0.671  0.00  0.00    +0.067 C 
ENDBRANCH  27  31
ENDBRANCH  23  27
ENDBRANCH   1  24
TORSDOF 4
