REMARK  Name = ZINC35747655
REMARK  16 active torsions:
REMARK  status: ('A' for Active; 'I' for Inactive)
REMARK    1  A    between atoms: C_1  and  C_2
REMARK    2  A    between atoms: C_5  and  C_9
REMARK    3  A    between atoms: C_6  and  C_8
REMARK    4  A    between atoms: C_18  and  C_20
REMARK    5  A    between atoms: C_20  and  N_21
REMARK    6  A    between atoms: N_21  and  C_22
REMARK    7  A    between atoms: N_21  and  C_26
REMARK    8  A    between atoms: C_22  and  C_23
REMARK    9  A    between atoms: C_23  and  O_24
REMARK   10  A    between atoms: O_24  and  C_25
REMARK   11  A    between atoms: C_26  and  C_27
REMARK   12  A    between atoms: C_27  and  C_29
REMARK   13  A    between atoms: C_27  and  O_38
REMARK   14  A    between atoms: C_29  and  O_30
REMARK   15  A    between atoms: O_30  and  C_31
REMARK   16  A    between atoms: C_36  and  C_37
REMARK                            x       y       z     vdW  Elec       q    Type
REMARK                         _______ _______ _______ _____ _____    ______ ____
ROOT
ATOM      1  C   UNL     1      -3.645  -7.859   1.413  0.00  0.00    -0.003 C 
ENDROOT
BRANCH   1  11
ATOM      2  C   UNL     1       0.620  -5.991  -1.876  0.00  0.00    +0.004 A 
ATOM      3  C   UNL     1       1.435  -6.993  -2.287  0.00  0.00    +0.056 A 
ATOM      4  S   UNL     1       0.708  -8.445  -1.552  0.00  0.00    -0.076 S 
ATOM      5  C   UNL     1      -0.660  -7.681  -0.719  0.00  0.00    +0.116 A 
ATOM      6  C   UNL     1      -0.518  -6.318  -1.025  0.00  0.00    +0.080 A 
ATOM      7  C   UNL     1      -1.508  -5.450  -0.464  0.00  0.00    +0.260 A 
ATOM      8  O   UNL     1      -1.472  -4.250  -0.677  0.00  0.00    -0.267 OA
ATOM      9  N   UNL     1      -2.481  -5.979   0.302  0.00  0.00    -0.312 N 
ATOM     10  H   UNL     1      -3.155  -5.395   0.685  0.00  0.00    +0.170 HD
ATOM     11  C   UNL     1      -2.537  -7.312   0.549  0.00  0.00    +0.094 A 
ATOM     12  N   UNL     1      -1.654  -8.131   0.043  0.00  0.00    -0.229 NA
BRANCH   2  17
ATOM     13  C   UNL     1       1.640  -0.546  -3.444  0.00  0.00    +0.044 C 
ATOM     14  C   UNL     1       1.373  -1.971  -3.034  0.00  0.00    -0.050 A 
ATOM     15  C   UNL     1       1.037  -2.912  -3.991  0.00  0.00    +0.004 A 
ATOM     16  C   UNL     1       0.792  -4.219  -3.621  0.00  0.00    +0.009 A 
ATOM     17  C   UNL     1       0.883  -4.590  -2.280  0.00  0.00    -0.014 A 
ATOM     18  C   UNL     1       1.222  -3.637  -1.320  0.00  0.00    -0.042 A 
ATOM     19  C   UNL     1       1.471  -2.334  -1.703  0.00  0.00    +0.007 A 
ATOM     20  C   UNL     1       1.322  -4.030   0.131  0.00  0.00    +0.044 C 
ENDBRANCH   2  17
ENDBRANCH   1  11
BRANCH   1  21
ATOM     21  N   UNL     1      -3.496  -9.316   1.535  0.00  0.00    +0.388 N 
ATOM     22  H   UNL     1      -3.425  -9.725   0.616  0.00  0.00    -0.081 HD
BRANCH  21  23
ATOM     23  C   UNL     1      -2.281  -9.622   2.302  0.00  0.00    -0.050 C 
BRANCH  23  24
ATOM     24  C   UNL     1      -2.064 -11.136   2.331  0.00  0.00    +0.141 C 
BRANCH  24  25
ATOM     25  O   UNL     1      -1.823 -11.608   1.004  0.00  0.00    -0.385 OA
ATOM     26  C   UNL     1      -1.606 -13.018   0.919  0.00  0.00    +0.193 C 
ENDBRANCH  24  25
ENDBRANCH  23  24
ENDBRANCH  21  23
BRANCH  21  27
ATOM     27  C   UNL     1      -4.666  -9.871   2.229  0.00  0.00    -0.043 C 
BRANCH  27  28
ATOM     28  C   UNL     1      -5.902  -9.731   1.338  0.00  0.00    +0.135 C 
BRANCH  28  29
ATOM     29  O   UNL     1      -6.274  -8.354   1.252  0.00  0.00    -0.390 OA
ATOM     30  H   UNL     1      -6.490  -7.951   2.104  0.00  0.00    +0.210 HD
ENDBRANCH  28  29
BRANCH  28  31
ATOM     31  C   UNL     1      -7.057 -10.535   1.938  0.00  0.00    +0.258 C 
BRANCH  31  32
ATOM     32  O   UNL     1      -8.174 -10.500   1.048  0.00  0.00    -0.489 OA
BRANCH  32  33
ATOM     33  C   UNL     1      -9.292 -11.170   1.434  0.00  0.00    +0.124 A 
ATOM     34  C   UNL     1      -9.314 -11.843   2.647  0.00  0.00    +0.046 A 
ATOM     35  C   UNL     1     -10.451 -12.523   3.037  0.00  0.00    +0.004 A 
ATOM     36  C   UNL     1     -11.567 -12.534   2.220  0.00  0.00    +0.000 A 
ATOM     37  C   UNL     1     -11.547 -11.865   1.010  0.00  0.00    +0.007 A 
ATOM     38  C   UNL     1     -10.414 -11.178   0.618  0.00  0.00    -0.009 A 
ATOM     39  C   UNL     1     -10.395 -10.444  -0.698  0.00  0.00    +0.047 C 
ENDBRANCH  32  33
ENDBRANCH  31  32
ENDBRANCH  28  31
ENDBRANCH  27  28
ENDBRANCH  21  27
ENDBRANCH   1  21
TORSDOF 12
