REMARK  Name = ZINC39761357
REMARK  5 active torsions:
REMARK  status: ('A' for Active; 'I' for Inactive)
REMARK    1  A    between atoms: C_4  and  C_7
REMARK    2  A    between atoms: C_8  and  C_9
REMARK    3  A    between atoms: N_11  and  C_12
REMARK    4  A    between atoms: C_17  and  C_18
REMARK    5  A    between atoms: C_24  and  C_26
REMARK                            x       y       z     vdW  Elec       q    Type
REMARK                         _______ _______ _______ _____ _____    ______ ____
ROOT
ATOM      1  C   UNL     1       6.202  -4.807  -0.167  0.00  0.00    +0.046 A 
ATOM      2  C   UNL     1       7.423  -4.146  -0.164  0.00  0.00    +0.024 A 
ATOM      3  C   UNL     1       8.597  -4.862  -0.276  0.00  0.00    +0.002 A 
ATOM      4  C   UNL     1       8.569  -6.242  -0.392  0.00  0.00    +0.001 A 
ATOM      5  C   UNL     1       7.367  -6.916  -0.397  0.00  0.00    +0.015 A 
ATOM      6  C   UNL     1       6.170  -6.206  -0.278  0.00  0.00    +0.058 A 
ENDROOT
BRANCH   6   7
ATOM      7  C   UNL     1       4.880  -6.921  -0.276  0.00  0.00    +0.253 C 
ATOM      8  O   UNL     1       3.838  -6.294  -0.276  0.00  0.00    -0.270 OA
ATOM      9  N   UNL     1       4.857  -8.268  -0.275  0.00  0.00    -0.234 N 
ATOM     10  C   UNL     1       3.646  -8.940  -0.273  0.00  0.00    +0.315 A 
ATOM     11  N   UNL     1       2.454  -8.391  -0.278  0.00  0.00    -0.092 NA
ATOM     12  N   UNL     1       1.558  -9.314  -0.275  0.00  0.00    -0.106 NA
ATOM     13  C   UNL     1       2.142 -10.488  -0.268  0.00  0.00    +0.250 A 
ATOM     14  O   UNL     1       3.476 -10.275  -0.271  0.00  0.00    -0.405 OA
ATOM     15  H   UNL     1       5.688  -8.768  -0.275  0.00  0.00    +0.160 HD
BRANCH  13  16
ATOM     16  C   UNL     1       1.465 -11.801  -0.262  0.00  0.00    +0.039 A 
ATOM     17  C   UNL     1       2.218 -12.977  -0.248  0.00  0.00    +0.013 A 
ATOM     18  C   UNL     1       1.580 -14.200  -0.243  0.00  0.00    +0.001 A 
ATOM     19  C   UNL     1       0.198 -14.263  -0.252  0.00  0.00    +0.000 A 
ATOM     20  C   UNL     1      -0.554 -13.102  -0.266  0.00  0.00    +0.001 A 
ATOM     21  C   UNL     1       0.071 -11.872  -0.265  0.00  0.00    +0.013 A 
ENDBRANCH  13  16
ENDBRANCH   6   7
BRANCH   1  24
ATOM     22  C   UNL     1       4.910  -2.870  -0.623  0.00  0.00    +0.241 C 
ATOM     23  O   UNL     1       5.876  -2.365  -1.165  0.00  0.00    -0.270 OA
ATOM     24  N   UNL     1       5.016  -4.087  -0.054  0.00  0.00    -0.281 N 
ATOM     25  H   UNL     1       4.266  -4.462   0.434  0.00  0.00    +0.155 HD
BRANCH  22  27
ATOM     26  C   UNL     1       3.528  -0.937  -1.158  0.00  0.00    +0.013 C 
ATOM     27  C   UNL     1       3.634  -2.155  -0.589  0.00  0.00    +0.068 C 
BRANCH  26  31
ATOM     28  C   UNL     1      -0.173   1.135  -1.061  0.00  0.00    +0.000 A 
ATOM     29  C   UNL     1       0.924   1.712  -1.678  0.00  0.00    +0.001 A 
ATOM     30  C   UNL     1       2.130   1.045  -1.714  0.00  0.00    +0.008 A 
ATOM     31  C   UNL     1       2.244  -0.218  -1.124  0.00  0.00    -0.025 A 
ATOM     32  C   UNL     1       1.131  -0.795  -0.503  0.00  0.00    +0.008 A 
ATOM     33  C   UNL     1      -0.068  -0.115  -0.476  0.00  0.00    +0.001 A 
ENDBRANCH  26  31
ENDBRANCH  22  27
ENDBRANCH   1  24
TORSDOF 5
