REMARK  Name = ZINC36030031
REMARK  11 active torsions:
REMARK  status: ('A' for Active; 'I' for Inactive)
REMARK    1  A    between atoms: C_1  and  C_2
REMARK    2  A    between atoms: C_2  and  N_3
REMARK    3  A    between atoms: N_3  and  C_4
REMARK    4  A    between atoms: N_3  and  C_6
REMARK    5  A    between atoms: C_4  and  C_5
REMARK    6  A    between atoms: C_6  and  C_7
REMARK    7  A    between atoms: C_7  and  N_8
REMARK    8  A    between atoms: C_11  and  C_27
REMARK    9  A    between atoms: C_20  and  C_22
REMARK   10  A    between atoms: C_27  and  C_28
REMARK   11  A    between atoms: C_27  and  C_29
REMARK                            x       y       z     vdW  Elec       q    Type
REMARK                         _______ _______ _______ _____ _____    ______ ____
ROOT
ATOM      1  N   UNL     1       0.412  -3.972   1.878  0.00  0.00    -0.315 N 
ATOM      2  C   UNL     1      -0.315  -4.995   2.373  0.00  0.00    +0.201 C 
ATOM      3  O   UNL     1      -1.437  -4.914   2.827  0.00  0.00    -0.277 OA
ATOM      4  C   UNL     1       0.504  -6.263   2.263  0.00  0.00    +0.022 C 
ATOM      5  N   UNL     1       1.581  -5.935   1.298  0.00  0.00    +0.401 N 
ATOM      6  C   UNL     1       1.713  -4.470   1.425  0.00  0.00    +0.006 C 
ATOM      7  C   UNL     1       2.793  -4.141   2.454  0.00  0.00    +0.025 C 
ATOM      8  C   UNL     1       2.900  -2.620   2.610  0.00  0.00    +0.108 C 
ATOM      9  N   UNL     1       3.115  -2.024   1.285  0.00  0.00    -0.301 N 
ATOM     10  C   UNL     1       2.170  -2.340   0.205  0.00  0.00    +0.108 C 
ATOM     11  C   UNL     1       2.068  -3.862   0.069  0.00  0.00    +0.025 C 
ATOM     12  C   UNL     1       4.160  -1.201   1.064  0.00  0.00    +0.219 C 
ATOM     13  O   UNL     1       4.276  -0.642  -0.006  0.00  0.00    -0.275 OA
ATOM     14  H   UNL     1       2.441  -6.396   1.553  0.00  0.00    -0.082 HD
ATOM     15  H   UNL     1       1.306  -6.184   0.359  0.00  0.00    -0.082 HD
ENDROOT
BRANCH  12  16
ATOM     16  C   UNL     1       5.184  -0.976   2.146  0.00  0.00    +0.075 C 
ATOM     17  C   UNL     1       4.588  -0.091   3.261  0.00  0.00    +0.013 C 
ATOM     18  C   UNL     1       5.769   0.807   3.704  0.00  0.00    +0.001 C 
ATOM     19  C   UNL     1       6.489   1.110   2.367  0.00  0.00    +0.001 C 
ATOM     20  C   UNL     1       6.393  -0.212   1.578  0.00  0.00    +0.013 C 
ENDBRANCH  12  16
BRANCH   4  21
ATOM     21  C   UNL     1      -0.358  -7.411   1.734  0.00  0.00    -0.023 C 
ATOM     22  C   UNL     1      -1.506  -7.678   2.709  0.00  0.00    +0.006 C 
ATOM     23  C   UNL     1      -0.928  -7.031   0.366  0.00  0.00    +0.006 C 
ENDBRANCH   4  21
BRANCH   1  24
ATOM     24  C   UNL     1      -0.034  -2.578   1.801  0.00  0.00    +0.087 C 
BRANCH  24  25
ATOM     25  C   UNL     1      -0.813  -2.363   0.502  0.00  0.00    -0.060 C 
BRANCH  25  26
ATOM     26  N   UNL     1      -1.347  -0.995   0.473  0.00  0.00    +0.380 N 
ATOM     27  H   UNL     1      -1.897  -0.830   1.303  0.00  0.00    -0.082 HD
BRANCH  26  29
ATOM     28  C   UNL     1      -0.782   1.386   0.568  0.00  0.00    -0.017 C 
ATOM     29  C   UNL     1      -0.236  -0.036   0.423  0.00  0.00    -0.082 C 
ENDBRANCH  26  29
BRANCH  26  30
ATOM     30  C   UNL     1      -2.194  -0.825  -0.716  0.00  0.00    -0.082 C 
ATOM     31  C   UNL     1      -3.445  -1.695  -0.579  0.00  0.00    -0.017 C 
ENDBRANCH  26  30
ENDBRANCH  25  26
ENDBRANCH  24  25
ENDBRANCH   1  24
TORSDOF 7
