REMARK  Name = ZINC39991505
REMARK  9 active torsions:
REMARK  status: ('A' for Active; 'I' for Inactive)
REMARK    1  A    between atoms: C_1  and  C_2
REMARK    2  A    between atoms: C_5  and  C_8
REMARK    3  A    between atoms: C_10  and  C_23
REMARK    4  A    between atoms: N_14  and  C_15
REMARK    5  A    between atoms: C_15  and  C_16
REMARK    6  A    between atoms: C_23  and  C_25
REMARK    7  A    between atoms: C_26  and  C_37
REMARK    8  A    between atoms: C_28  and  S_30
REMARK    9  A    between atoms: S_30  and  C_31
REMARK                            x       y       z     vdW  Elec       q    Type
REMARK                         _______ _______ _______ _____ _____    ______ ____
ROOT
ATOM      1  C   UNL     1       0.149  -3.972   0.069  0.00  0.00    +0.145 C 
ATOM      2  C   UNL     1       1.457  -4.725   0.138  0.00  0.00    +0.077 C 
ATOM      3  C   UNL     1       1.352  -5.596   1.167  0.00  0.00    +0.249 C 
ATOM      4  C   UNL     1       0.022  -5.455   1.789  0.00  0.00    +0.288 C 
ATOM      5  O   UNL     1      -0.375  -6.101   2.740  0.00  0.00    -0.266 OA
ATOM      6  N   UNL     1      -0.688  -4.506   1.150  0.00  0.00    -0.279 N 
ATOM      7  O   UNL     1       2.316  -6.462   1.562  0.00  0.00    -0.282 OA
ENDROOT
BRANCH   1  12
ATOM      8  C   UNL     1       1.059   1.678   0.866  0.00  0.00    +0.044 C 
ATOM      9  C   UNL     1       0.822   0.205   0.658  0.00  0.00    -0.050 A 
ATOM     10  C   UNL     1       0.472  -0.269  -0.593  0.00  0.00    +0.004 A 
ATOM     11  C   UNL     1       0.254  -1.621  -0.783  0.00  0.00    +0.006 A 
ATOM     12  C   UNL     1       0.387  -2.499   0.276  0.00  0.00    -0.022 A 
ATOM     13  C   UNL     1       0.739  -2.025   1.526  0.00  0.00    +0.006 A 
ATOM     14  C   UNL     1       0.960  -0.674   1.716  0.00  0.00    +0.004 A 
ENDBRANCH   1  12
BRANCH   2  15
ATOM     15  C   UNL     1       2.618  -4.546  -0.743  0.00  0.00    +0.203 C 
ATOM     16  O   UNL     1       3.670  -4.129  -0.288  0.00  0.00    -0.286 OA
BRANCH  15  17
ATOM     17  C   UNL     1       2.516  -4.858  -2.123  0.00  0.00    +0.083 A 
ATOM     18  C   UNL     1       3.484  -4.797  -3.123  0.00  0.00    +0.058 A 
ATOM     19  N   UNL     1       3.102  -5.150  -4.321  0.00  0.00    -0.237 NA
ATOM     20  C   UNL     1       1.861  -5.542  -4.564  0.00  0.00    +0.140 A 
ATOM     21  S   UNL     1       1.114  -5.446  -3.059  0.00  0.00    -0.057 S 
ATOM     22  C   UNL     1       4.894  -4.348  -2.838  0.00  0.00    +0.067 C 
BRANCH  20  23
ATOM     23  S   UNL     1       1.160  -6.052  -6.098  0.00  0.00    -0.063 S 
BRANCH  23  24
ATOM     24  C   UNL     1       2.448  -5.776  -7.268  0.00  0.00    +0.015 A 
ATOM     25  C   UNL     1       3.302  -6.813  -7.623  0.00  0.00    +0.015 A 
ATOM     26  C   UNL     1       4.310  -6.593  -8.540  0.00  0.00    +0.001 A 
ATOM     27  C   UNL     1       4.472  -5.341  -9.105  0.00  0.00    +0.000 A 
ATOM     28  C   UNL     1       3.625  -4.306  -8.754  0.00  0.00    +0.001 A 
ATOM     29  C   UNL     1       2.610  -4.521  -7.843  0.00  0.00    +0.015 A 
ENDBRANCH  23  24
ENDBRANCH  20  23
ENDBRANCH  15  17
ENDBRANCH   2  15
BRANCH   6  30
ATOM     30  C   UNL     1      -2.051  -4.080   1.476  0.00  0.00    +0.145 C 
BRANCH  30  31
ATOM     31  C   UNL     1      -3.037  -4.917   0.702  0.00  0.00    -0.012 A 
ATOM     32  C   UNL     1      -3.459  -4.518  -0.558  0.00  0.00    +0.008 A 
ATOM     33  C   UNL     1      -4.367  -5.319  -1.233  0.00  0.00    +0.020 A 
ATOM     34  C   UNL     1      -4.818  -6.480  -0.633  0.00  0.00    +0.111 A 
ATOM     35  N   UNL     1      -4.395  -6.827   0.567  0.00  0.00    -0.263 NA
ATOM     36  C   UNL     1      -3.527  -6.093   1.236  0.00  0.00    +0.115 A 
ENDBRANCH  30  31
ENDBRANCH   6  30
TORSDOF 7
