REMARK  Name = ZINC17138634
REMARK  8 active torsions:
REMARK  status: ('A' for Active; 'I' for Inactive)
REMARK    1  A    between atoms: C_1  and  C_2
REMARK    2  A    between atoms: C_2  and  C_3
REMARK    3  A    between atoms: C_15  and  C_17
REMARK    4  A    between atoms: C_20  and  O_25
REMARK    5  A    between atoms: C_21  and  O_23
REMARK    6  A    between atoms: O_23  and  C_24
REMARK    7  A    between atoms: O_25  and  C_26
REMARK    8  A    between atoms: C_30  and  C_33
REMARK                            x       y       z     vdW  Elec       q    Type
REMARK                         _______ _______ _______ _____ _____    ______ ____
ROOT
ATOM      1  C   UNL     1      -0.833   1.711  -1.199  0.00  0.00    +0.220 C 
ATOM      2  O   UNL     1      -1.860   2.355  -1.147  0.00  0.00    -0.275 OA
ATOM      3  N   UNL     1      -0.317   1.360  -2.394  0.00  0.00    -0.258 N 
ATOM      4  C   UNL     1       0.865   0.620  -2.440  0.00  0.00    +0.058 A 
ATOM      5  C   UNL     1       2.066   1.144  -1.989  0.00  0.00    +0.025 A 
ATOM      6  C   UNL     1       3.220   0.389  -2.098  0.00  0.00    +0.002 A 
ATOM      7  C   UNL     1       3.180  -0.877  -2.653  0.00  0.00    +0.002 A 
ATOM      8  C   UNL     1       1.979  -1.410  -3.088  0.00  0.00    +0.025 A 
ATOM      9  C   UNL     1       0.820  -0.664  -2.961  0.00  0.00    +0.053 A 
ATOM     10  N   UNL     1      -0.431  -1.179  -3.279  0.00  0.00    -0.316 N 
ATOM     11  C   UNL     1      -1.246  -0.690  -4.248  0.00  0.00    +0.017 C 
ATOM     12  C   UNL     1      -1.534   0.609  -4.428  0.00  0.00    +0.037 C 
ATOM     13  C   UNL     1      -1.001   1.753  -3.608  0.00  0.00    +0.147 C 
ATOM     14  C   UNL     1      -2.418   1.007  -5.460  0.00  0.00    +0.163 C 
ATOM     15  O   UNL     1      -2.645   2.191  -5.611  0.00  0.00    -0.292 OA
ATOM     16  C   UNL     1      -3.083   0.021  -6.372  0.00  0.00    +0.088 C 
ATOM     17  C   UNL     1      -3.225  -1.314  -5.632  0.00  0.00    +0.032 C 
ATOM     18  C   UNL     1      -1.832  -1.742  -5.175  0.00  0.00    +0.059 C 
ATOM     19  H   UNL     1      -0.826  -2.045  -2.727  0.00  0.00    +0.152 HD
ENDROOT
BRANCH  17  20
ATOM     20  C   UNL     1      -3.803  -2.352  -6.558  0.00  0.00    -0.042 A 
ATOM     21  C   UNL     1      -3.138  -2.686  -7.723  0.00  0.00    +0.004 A 
ATOM     22  C   UNL     1      -3.664  -3.642  -8.571  0.00  0.00    +0.002 A 
ATOM     23  C   UNL     1      -4.862  -4.258  -8.260  0.00  0.00    +0.020 A 
ATOM     24  C   UNL     1      -5.531  -3.921  -7.097  0.00  0.00    +0.041 A 
ATOM     25  C   UNL     1      -5.001  -2.967  -6.246  0.00  0.00    +0.024 A 
ATOM     26 CL   UNL     1      -7.036  -4.693  -6.705  0.00  0.00    -0.084 Cl
ENDBRANCH  17  20
BRANCH  13  27
ATOM     27  C   UNL     1      -0.043   2.543  -4.462  0.00  0.00    -0.018 A 
ATOM     28  C   UNL     1       1.142   1.968  -4.881  0.00  0.00    +0.009 A 
ATOM     29  C   UNL     1       2.022   2.686  -5.670  0.00  0.00    +0.050 A 
ATOM     30  C   UNL     1       1.721   3.989  -6.032  0.00  0.00    +0.162 A 
ATOM     31  C   UNL     1       0.531   4.570  -5.606  0.00  0.00    +0.162 A 
ATOM     32  C   UNL     1      -0.349   3.842  -4.820  0.00  0.00    +0.055 A 
BRANCH  31  33
ATOM     33  O   UNL     1       0.232   5.849  -5.959  0.00  0.00    -0.491 OA
ATOM     34  C   UNL     1      -1.007   6.380  -5.484  0.00  0.00    +0.277 C 
ENDBRANCH  31  33
BRANCH  30  35
ATOM     35  O   UNL     1       2.588   4.699  -6.803  0.00  0.00    -0.491 OA
ATOM     36  C   UNL     1       3.790   4.038  -7.204  0.00  0.00    +0.277 C 
ENDBRANCH  30  35
ENDBRANCH  13  27
BRANCH   1  38
ATOM     37  C   UNL     1      -0.922   1.824   1.276  0.00  0.00    +0.013 C 
ATOM     38  C   UNL     1      -0.135   1.304   0.072  0.00  0.00    +0.093 C 
ENDBRANCH   1  38
TORSDOF 5
