REMARK  Name = ZINC46697772
REMARK  7 active torsions:
REMARK  status: ('A' for Active; 'I' for Inactive)
REMARK    1  A    between atoms: C_1  and  C_2
REMARK    2  A    between atoms: C_5  and  C_34
REMARK    3  A    between atoms: C_10  and  C_12
REMARK    4  A    between atoms: C_17  and  N_18
REMARK    5  A    between atoms: C_19  and  C_21
REMARK    6  A    between atoms: C_22  and  C_23
REMARK    7  A    between atoms: N_26  and  C_28
REMARK                            x       y       z     vdW  Elec       q    Type
REMARK                         _______ _______ _______ _____ _____    ______ ____
ROOT
ATOM      1  N   UNL     1       4.026  -4.440   1.462  0.00  0.00    -0.281 N 
ATOM      2  C   UNL     1       4.867  -5.235   2.152  0.00  0.00    +0.241 C 
ATOM      3  O   UNL     1       5.848  -4.758   2.693  0.00  0.00    -0.270 OA
ATOM      4  H   UNL     1       3.275  -4.827   0.984  0.00  0.00    +0.155 HD
ENDROOT
BRANCH   1  10
ATOM      5  C   UNL     1       3.140  -2.188   1.351  0.00  0.00    +0.058 A 
ATOM      6  C   UNL     1       3.362  -0.809   1.329  0.00  0.00    +0.015 A 
ATOM      7  C   UNL     1       4.649  -0.319   1.382  0.00  0.00    +0.001 A 
ATOM      8  C   UNL     1       5.726  -1.187   1.458  0.00  0.00    +0.002 A 
ATOM      9  C   UNL     1       5.523  -2.552   1.480  0.00  0.00    +0.024 A 
ATOM     10  C   UNL     1       4.233  -3.065   1.433  0.00  0.00    +0.046 A 
BRANCH   5  18
ATOM     11  C   UNL     1       1.464  -0.816  -3.123  0.00  0.00    +0.009 C 
ATOM     12  C   UNL     1       1.158  -1.898  -2.085  0.00  0.00    +0.004 C 
ATOM     13  C   UNL     1      -0.292  -2.361  -2.244  0.00  0.00    +0.009 C 
ATOM     14  C   UNL     1      -0.590  -3.467  -1.228  0.00  0.00    +0.004 C 
ATOM     15  C   UNL     1      -0.411  -2.914   0.190  0.00  0.00    +0.111 C 
ATOM     16  N   UNL     1       0.935  -2.335   0.305  0.00  0.00    -0.297 N 
ATOM     17  C   UNL     1       1.357  -1.327  -0.678  0.00  0.00    +0.111 C 
ATOM     18  C   UNL     1       1.766  -2.720   1.294  0.00  0.00    +0.248 C 
ATOM     19  O   UNL     1       1.382  -3.506   2.139  0.00  0.00    -0.270 OA
ATOM     20  C   UNL     1      -2.029  -3.953  -1.409  0.00  0.00    +0.009 C 
ENDBRANCH   5  18
ENDBRANCH   1  10
BRANCH   2  21
ATOM     21  C   UNL     1       4.610  -6.625   2.249  0.00  0.00    +0.068 C 
ATOM     22  C   UNL     1       5.454  -7.421   2.942  0.00  0.00    +0.016 C 
BRANCH  22  23
ATOM     23  C   UNL     1       5.187  -8.863   3.042  0.00  0.00    +0.013 A 
ATOM     24  C   UNL     1       4.098  -9.558   2.466  0.00  0.00    +0.142 A 
ATOM     25  N   UNL     1       4.212 -10.820   2.779  0.00  0.00    -0.174 NA
ATOM     26  N   UNL     1       5.361 -10.993   3.558  0.00  0.00    -0.239 N 
ATOM     27  C   UNL     1       5.957  -9.796   3.713  0.00  0.00    +0.122 A 
BRANCH  26  28
ATOM     28  C   UNL     1       5.817 -12.209   4.086  0.00  0.00    +0.065 A 
ATOM     29  C   UNL     1       6.974 -12.245   4.852  0.00  0.00    +0.028 A 
ATOM     30  C   UNL     1       7.421 -13.444   5.370  0.00  0.00    +0.002 A 
ATOM     31  C   UNL     1       6.717 -14.609   5.127  0.00  0.00    +0.000 A 
ATOM     32  C   UNL     1       5.564 -14.577   4.363  0.00  0.00    +0.002 A 
ATOM     33  C   UNL     1       5.109 -13.380   3.848  0.00  0.00    +0.028 A 
ENDBRANCH  26  28
ENDBRANCH  22  23
ENDBRANCH   2  21
TORSDOF 5
