REMARK  Name = ZINC00949694
REMARK  4 active torsions:
REMARK  status: ('A' for Active; 'I' for Inactive)
REMARK    1  A    between atoms: C_1  and  C_2
REMARK    2  A    between atoms: C_5  and  N_9
REMARK    3  A    between atoms: C_10  and  C_12
REMARK    4  A    between atoms: C_12  and  C_13
REMARK                            x       y       z     vdW  Elec       q    Type
REMARK                         _______ _______ _______ _____ _____    ______ ____
ROOT
ATOM      1  C   UNL     1      -2.569   4.141   0.252  0.00  0.00    +0.127 C 
ENDROOT
BRANCH   1   2
ATOM      2  C   UNL     1      -2.310   5.645   0.360  0.00  0.00    +0.166 C 
ATOM      3  C   UNL     1      -3.613   6.365   0.602  0.00  0.00    +0.238 C 
ATOM      4  O   UNL     1      -3.984   6.568   1.739  0.00  0.00    -0.273 OA
ATOM      5  N   UNL     1      -4.368   6.785  -0.429  0.00  0.00    -0.282 N 
ATOM      6  C   UNL     1      -3.904   6.686  -1.746  0.00  0.00    +0.055 A 
ATOM      7  C   UNL     1      -4.750   6.939  -2.814  0.00  0.00    +0.025 A 
ATOM      8  C   UNL     1      -4.277   6.831  -4.109  0.00  0.00    +0.002 A 
ATOM      9  C   UNL     1      -2.961   6.479  -4.345  0.00  0.00    +0.002 A 
ATOM     10  C   UNL     1      -2.105   6.237  -3.284  0.00  0.00    +0.025 A 
ATOM     11  C   UNL     1      -2.572   6.347  -1.986  0.00  0.00    +0.049 A 
ATOM     12  N   UNL     1      -1.717   6.134  -0.893  0.00  0.00    -0.331 N 
ATOM     13  H   UNL     1      -5.245   7.162  -0.258  0.00  0.00    +0.155 HD
ATOM     14  H   UNL     1      -0.764   6.305  -0.961  0.00  0.00    +0.147 HD
ENDBRANCH   1   2
BRANCH   1  16
ATOM     15  N   UNL     1      -1.237   2.070   0.019  0.00  0.00    -0.284 N 
ATOM     16  C   UNL     1      -1.256   3.413   0.128  0.00  0.00    +0.219 C 
ATOM     17  O   UNL     1      -0.215   4.036   0.127  0.00  0.00    -0.275 OA
ATOM     18  H   UNL     1      -2.070   1.577  -0.045  0.00  0.00    +0.155 HD
BRANCH  15  23
ATOM     19  C   UNL     1       3.708  -0.710  -0.078  0.00  0.00    +0.044 C 
ATOM     20  C   UNL     1       2.395   0.029  -0.051  0.00  0.00    -0.049 A 
ATOM     21  C   UNL     1       2.295   1.280  -0.632  0.00  0.00    +0.005 A 
ATOM     22  C   UNL     1       1.093   1.960  -0.609  0.00  0.00    +0.024 A 
ATOM     23  C   UNL     1      -0.016   1.386  -0.001  0.00  0.00    +0.047 A 
ATOM     24  C   UNL     1       0.087   0.129   0.582  0.00  0.00    +0.039 A 
ATOM     25  C   UNL     1       1.293  -0.546   0.555  0.00  0.00    +0.020 A 
ATOM     26 BR   UNL     1      -1.420  -0.657   1.411  0.00  0.00    -0.048 Br
ENDBRANCH  15  23
ENDBRANCH   1  16
TORSDOF 3
