REMARK  Name = ZINC02457773
REMARK  8 active torsions:
REMARK  status: ('A' for Active; 'I' for Inactive)
REMARK    1  A    between atoms: C_1  and  N_48
REMARK    2  A    between atoms: C_2  and  N_48
REMARK    3  A    between atoms: C_3  and  C_4
REMARK    4  A    between atoms: C_3  and  N_48
REMARK    5  A    between atoms: C_4  and  N_5
REMARK    6  A    between atoms: C_6  and  C_8
REMARK    7  A    between atoms: C_8  and  O_27
REMARK    8  A    between atoms: N_18  and  C_19
REMARK                            x       y       z     vdW  Elec       q    Type
REMARK                         _______ _______ _______ _____ _____    ______ ____
ROOT
ATOM      1  C   UNL     1       2.460   3.922  -0.000  0.00  0.00    +0.247 C 
ATOM      2  C   UNL     1       1.145   3.178   0.008  0.00  0.00    +0.033 A 
ATOM      3  C   UNL     1      -0.056   3.849   0.024  0.00  0.00    +0.010 A 
ATOM      4  C   UNL     1      -1.242   3.135   0.032  0.00  0.00    +0.001 A 
ATOM      5  C   UNL     1      -1.217   1.752   0.017  0.00  0.00    +0.002 A 
ATOM      6  C   UNL     1      -0.013   1.076   0.008  0.00  0.00    +0.024 A 
ATOM      7  C   UNL     1       1.179   1.788   0.000  0.00  0.00    +0.043 A 
ATOM      8  N   UNL     1       2.406   1.124  -0.015  0.00  0.00    -0.269 N 
ATOM      9  C   UNL     1       3.582   1.766  -0.023  0.00  0.00    +0.314 C 
ATOM     10  O   UNL     1       4.603   1.105  -0.036  0.00  0.00    -0.252 OA
ATOM     11  N   UNL     1       3.686   3.107  -0.017  0.00  0.00    -0.209 N 
ATOM     12  H   UNL     1       2.408   0.154  -0.020  0.00  0.00    +0.156 HD
ENDROOT
BRANCH  11  13
ATOM     13  C   UNL     1       4.947   3.721  -0.025  0.00  0.00    +0.111 A 
ATOM     14  C   UNL     1       5.564   4.027  -1.231  0.00  0.00    +0.148 A 
ATOM     15  C   UNL     1       6.806   4.638  -1.235  0.00  0.00    +0.040 A 
ATOM     16  C   UNL     1       7.437   4.932  -0.041  0.00  0.00    +0.006 A 
ATOM     17  C   UNL     1       6.828   4.624   1.161  0.00  0.00    +0.040 A 
ATOM     18  C   UNL     1       5.585   4.019   1.174  0.00  0.00    +0.148 A 
ATOM     19  F   UNL     1       4.990   3.717   2.349  0.00  0.00    -0.203 F 
ATOM     20  F   UNL     1       4.951   3.735  -2.399  0.00  0.00    -0.203 F 
ENDBRANCH  11  13
BRANCH   1  22
ATOM     21  N   UNL     1       2.525   4.249   2.451  0.00  0.00    -0.313 N 
ATOM     22  C   UNL     1       2.504   4.803   1.222  0.00  0.00    +0.269 C 
ATOM     23  O   UNL     1       2.521   6.009   1.100  0.00  0.00    -0.270 OA
ATOM     24  H   UNL     1       2.511   3.284   2.548  0.00  0.00    +0.149 HD
BRANCH  21  25
ATOM     25  C   UNL     1       2.568   5.105   3.639  0.00  0.00    +0.086 C 
BRANCH  25  26
ATOM     26  C   UNL     1       2.584   4.232   4.896  0.00  0.00    -0.061 C 
BRANCH  26  29
ATOM     27  C   UNL     1       1.389   5.870   6.219  0.00  0.00    -0.097 C 
ATOM     28  C   UNL     1       2.881   4.298   7.298  0.00  0.00    -0.097 C 
ATOM     29  N   UNL     1       2.649   5.109   6.084  0.00  0.00    +0.377 N 
ATOM     30  H   UNL     1       3.427   5.769   5.969  0.00  0.00    -0.083 HD
ENDBRANCH  26  29
ENDBRANCH  25  26
ENDBRANCH  21  25
ENDBRANCH   1  22
BRANCH   1  31
ATOM     31  O   UNL     1       2.479   4.770  -1.150  0.00  0.00    -0.360 OA
ATOM     32  H   UNL     1       1.766   5.423  -1.169  0.00  0.00    +0.213 HD
ENDBRANCH   1  31
TORSDOF 6
