REMARK  Name = ZINC12812420
REMARK  8 active torsions:
REMARK  status: ('A' for Active; 'I' for Inactive)
REMARK    1  A    between atoms: C_1  and  C_2
REMARK    2  A    between atoms: C_6  and  O_8
REMARK    3  A    between atoms: O_8  and  C_9
REMARK    4  A    between atoms: C_14  and  N_15
REMARK    5  A    between atoms: N_15  and  S_16
REMARK    6  A    between atoms: S_16  and  C_19
REMARK    7  A    between atoms: N_25  and  C_30
REMARK    8  A    between atoms: C_30  and  C_31
REMARK                            x       y       z     vdW  Elec       q    Type
REMARK                         _______ _______ _______ _____ _____    ______ ____
ROOT
ATOM      1  S   UNL     1       2.809   4.181   0.017  0.00  0.00    +0.073 S 
ATOM      2  O   UNL     1       2.539   5.483   0.519  0.00  0.00    -0.150 OA
ATOM      3  O   UNL     1       3.846   3.363   0.541  0.00  0.00    -0.150 OA
ENDROOT
BRANCH   1   4
ATOM      4  C   UNL     1       1.315   3.262   0.172  0.00  0.00    +0.110 A 
ATOM      5  C   UNL     1       1.359   1.882   0.244  0.00  0.00    +0.032 A 
ATOM      6  C   UNL     1       0.190   1.152   0.366  0.00  0.00    +0.049 A 
ATOM      7  C   UNL     1      -1.029   1.806   0.411  0.00  0.00    +0.143 A 
ATOM      8  C   UNL     1      -1.073   3.198   0.344  0.00  0.00    +0.081 A 
ATOM      9  C   UNL     1       0.101   3.922   0.222  0.00  0.00    +0.056 A 
ATOM     10  N   UNL     1      -2.315   3.848   0.396  0.00  0.00    -0.254 N 
ATOM     11  C   UNL     1      -3.396   3.161   0.825  0.00  0.00    +0.258 C 
ATOM     12  O   UNL     1      -4.485   3.693   0.849  0.00  0.00    -0.271 OA
ATOM     13  C   UNL     1      -3.243   1.730   1.274  0.00  0.00    +0.325 C 
ATOM     14  O   UNL     1      -2.188   1.105   0.538  0.00  0.00    -0.481 OA
BRANCH  10  15
ATOM     15  C   UNL     1      -2.437   5.250  -0.010  0.00  0.00    +0.238 C 
BRANCH  15  16
ATOM     16  C   UNL     1      -2.749   5.322  -1.482  0.00  0.00    +0.373 C 
ATOM     17  O   UNL     1      -2.857   4.306  -2.127  0.00  0.00    -0.245 OA
ATOM     18  O   UNL     1      -2.906   6.515  -2.078  0.00  0.00    -0.245 OA
ENDBRANCH  15  16
ENDBRANCH  10  15
ENDBRANCH   1   4
BRANCH   1  19
ATOM     19  N   UNL     1       3.114   4.352  -1.602  0.00  0.00    -0.213 N 
ATOM     20  H   UNL     1       3.926   3.986  -1.984  0.00  0.00    +0.174 HD
BRANCH  19  26
ATOM     21  C   UNL     1       1.983   4.596  -3.727  0.00  0.00    +0.151 A 
ATOM     22  C   UNL     1       1.075   5.266  -4.531  0.00  0.00    +0.048 A 
ATOM     23  C   UNL     1       0.384   6.356  -4.035  0.00  0.00    +0.004 A 
ATOM     24  C   UNL     1       0.596   6.781  -2.737  0.00  0.00    +0.002 A 
ATOM     25  C   UNL     1       1.497   6.115  -1.926  0.00  0.00    +0.028 A 
ATOM     26  C   UNL     1       2.198   5.024  -2.419  0.00  0.00    +0.090 A 
BRANCH  21  27
ATOM     27  O   UNL     1       2.663   3.524  -4.214  0.00  0.00    -0.454 OA
BRANCH  27  33
ATOM     28  C   UNL     1       3.408   4.697  -8.893  0.00  0.00    +0.044 C 
ATOM     29  C   UNL     1       2.867   3.766  -7.838  0.00  0.00    -0.047 A 
ATOM     30  C   UNL     1       2.222   2.601  -8.210  0.00  0.00    +0.003 A 
ATOM     31  C   UNL     1       1.725   1.745  -7.245  0.00  0.00    +0.004 A 
ATOM     32  C   UNL     1       1.876   2.049  -5.906  0.00  0.00    +0.046 A 
ATOM     33  C   UNL     1       2.518   3.220  -5.530  0.00  0.00    +0.129 A 
ATOM     34  C   UNL     1       3.016   4.078  -6.501  0.00  0.00    +0.049 A 
ENDBRANCH  27  33
ENDBRANCH  21  27
ENDBRANCH  19  26
ENDBRANCH   1  19
TORSDOF 7
