REMARK  Name = ZINC11917793
REMARK  8 active torsions:
REMARK  status: ('A' for Active; 'I' for Inactive)
REMARK    1  A    between atoms: C_1  and  C_2
REMARK    2  A    between atoms: C_2  and  C_3
REMARK    3  A    between atoms: C_2  and  C_4
REMARK    4  A    between atoms: C_4  and  C_6
REMARK    5  A    between atoms: C_4  and  N_22
REMARK    6  A    between atoms: N_8  and  C_9
REMARK    7  A    between atoms: N_22  and  S_23
REMARK    8  A    between atoms: S_23  and  C_26
REMARK                            x       y       z     vdW  Elec       q    Type
REMARK                         _______ _______ _______ _____ _____    ______ ____
ROOT
ATOM      1  C   UNL     1      -1.028   4.407   0.080  0.00  0.00    +0.236 C 
ATOM      2  O   UNL     1      -1.465   5.450   0.518  0.00  0.00    -0.274 OA
ATOM      3  N   UNL     1      -0.816   4.269  -1.244  0.00  0.00    -0.284 N 
ATOM      4  H   UNL     1      -0.541   3.411  -1.604  0.00  0.00    +0.155 HD
ENDROOT
BRANCH   3   5
ATOM      5  C   UNL     1      -0.991   5.364  -2.100  0.00  0.00    +0.037 A 
ATOM      6  C   UNL     1      -0.711   6.648  -1.651  0.00  0.00    +0.027 A 
ATOM      7  C   UNL     1      -0.882   7.730  -2.493  0.00  0.00    +0.051 A 
ATOM      8  C   UNL     1      -1.333   7.536  -3.787  0.00  0.00    +0.167 A 
ATOM      9  C   UNL     1      -1.615   6.247  -4.241  0.00  0.00    +0.169 A 
ATOM     10  C   UNL     1      -1.440   5.165  -3.399  0.00  0.00    +0.072 A 
ATOM     11  O   UNL     1      -2.039   6.332  -5.542  0.00  0.00    -0.447 OA
ATOM     12  C   UNL     1      -2.467   7.695  -5.677  0.00  0.00    +0.254 C 
ATOM     13  O   UNL     1      -1.581   8.416  -4.809  0.00  0.00    -0.448 OA
ATOM     14  C   UNL     1      -2.337   8.176  -7.126  0.00  0.00    +0.093 C 
ATOM     15  C   UNL     1      -3.777   8.056  -7.691  0.00  0.00    +0.008 C 
ATOM     16  C   UNL     1      -4.657   8.468  -6.483  0.00  0.00    +0.008 C 
ATOM     17  C   UNL     1      -3.927   7.869  -5.260  0.00  0.00    +0.093 C 
ENDBRANCH   3   5
BRANCH   1  18
ATOM     18  C   UNL     1      -0.723   3.265   1.015  0.00  0.00    +0.165 C 
BRANCH  18  20
ATOM     19  C   UNL     1      -3.143   2.886   1.508  0.00  0.00    +0.009 C 
ATOM     20  C   UNL     1      -1.863   2.246   0.965  0.00  0.00    +0.010 C 
ATOM     21  C   UNL     1      -1.499   1.031   1.819  0.00  0.00    +0.009 C 
ENDBRANCH  18  20
BRANCH  18  22
ATOM     22  N   UNL     1      -0.585   3.777   2.381  0.00  0.00    -0.177 NA
ATOM     23  H   UNL     1      -1.350   4.166   2.833  0.00  0.00    +0.149 HD
BRANCH  22  24
ATOM     24  S   UNL     1       0.878   3.691   3.153  0.00  0.00    +0.065 S 
ATOM     25  O   UNL     1       0.705   4.309   4.421  0.00  0.00    -0.153 OA
ATOM     26  O   UNL     1       1.332   2.352   3.015  0.00  0.00    -0.153 OA
BRANCH  24  27
ATOM     27  C   UNL     1       2.004   4.701   2.250  0.00  0.00    +0.142 A 
ATOM     28  C   UNL     1       2.284   6.018   2.406  0.00  0.00    +0.036 A 
ATOM     29  C   UNL     1       3.215   6.609   1.573  0.00  0.00    +0.010 A 
ATOM     30  C   UNL     1       3.821   5.854   0.624  0.00  0.00    +0.047 A 
ATOM     31  S   UNL     1       3.078   4.254   0.895  0.00  0.00    -0.077 S 
ENDBRANCH  24  27
ENDBRANCH  22  24
ENDBRANCH  18  22
ENDBRANCH   1  18
TORSDOF 6
