REMARK  Name = ZINC35967346
REMARK  8 active torsions:
REMARK  status: ('A' for Active; 'I' for Inactive)
REMARK    1  A    between atoms: C_1  and  C_2
REMARK    2  A    between atoms: C_2  and  N_3
REMARK    3  A    between atoms: C_6  and  C_11
REMARK    4  A    between atoms: C_14  and  C_18
REMARK    5  A    between atoms: C_16  and  C_17
REMARK    6  A    between atoms: N_21  and  C_23
REMARK    7  A    between atoms: C_23  and  C_24
REMARK    8  A    between atoms: N_26  and  C_27
REMARK                            x       y       z     vdW  Elec       q    Type
REMARK                         _______ _______ _______ _____ _____    ______ ____
ROOT
ATOM      1  N   UNL     1      -2.045  -0.530   0.630  0.00  0.00    -0.257 N 
ATOM      2  C   UNL     1      -2.380  -0.503   1.954  0.00  0.00    +0.042 C 
ATOM      3  C   UNL     1      -3.596  -0.907   2.375  0.00  0.00    +0.058 C 
ATOM      4  C   UNL     1      -4.579  -1.392   1.329  0.00  0.00    +0.142 C 
ATOM      5  N   UNL     1      -4.122  -1.382  -0.071  0.00  0.00    -0.288 N 
ATOM      6  C   UNL     1      -2.875  -0.944  -0.336  0.00  0.00    +0.307 C 
ATOM      7  O   UNL     1      -2.491  -0.928  -1.489  0.00  0.00    -0.252 OA
ATOM      8  C   UNL     1      -3.695  -0.783   3.776  0.00  0.00    +0.247 C 
ATOM      9  O   UNL     1      -4.682  -1.077   4.425  0.00  0.00    -0.270 OA
ATOM     10  N   UNL     1      -2.555  -0.300   4.303  0.00  0.00    -0.283 N 
ATOM     11  C   UNL     1      -1.620  -0.079   3.190  0.00  0.00    +0.160 C 
ATOM     12  H   UNL     1      -4.705  -1.681  -0.785  0.00  0.00    +0.151 HD
ENDROOT
BRANCH   4  13
ATOM     13  C   UNL     1      -4.970  -2.804   1.679  0.00  0.00    -0.020 A 
ATOM     14  C   UNL     1      -4.194  -3.540   2.556  0.00  0.00    +0.006 A 
ATOM     15  C   UNL     1      -4.554  -4.835   2.878  0.00  0.00    +0.004 A 
ATOM     16  C   UNL     1      -5.689  -5.395   2.323  0.00  0.00    -0.050 A 
ATOM     17  C   UNL     1      -6.465  -4.660   1.447  0.00  0.00    +0.007 A 
ATOM     18  C   UNL     1      -6.108  -3.363   1.129  0.00  0.00    -0.045 A 
ATOM     19  C   UNL     1      -6.957  -2.559   0.178  0.00  0.00    +0.044 C 
ATOM     20  C   UNL     1      -6.080  -6.808   2.672  0.00  0.00    +0.044 C 
ENDBRANCH   4  13
BRANCH   1  22
ATOM     21  C   UNL     1      -0.740   1.428  -0.037  0.00  0.00    +0.025 C 
ATOM     22  C   UNL     1      -0.707  -0.075   0.245  0.00  0.00    +0.111 C 
ENDBRANCH   1  22
BRANCH  10  23
ATOM     23  C   UNL     1      -2.295  -0.041   5.721  0.00  0.00    +0.204 C 
BRANCH  23  24
ATOM     24  C   UNL     1      -1.713  -1.276   6.359  0.00  0.00    +0.235 C 
ATOM     25  O   UNL     1      -1.533  -2.274   5.694  0.00  0.00    -0.274 OA
ATOM     26  N   UNL     1      -1.392  -1.271   7.668  0.00  0.00    -0.284 N 
ATOM     27  H   UNL     1      -1.604  -0.499   8.216  0.00  0.00    +0.155 HD
BRANCH  26  28
ATOM     28  C   UNL     1      -0.753  -2.380   8.236  0.00  0.00    +0.034 A 
ATOM     29  C   UNL     1      -1.018  -2.736   9.552  0.00  0.00    +0.026 A 
ATOM     30  C   UNL     1      -0.386  -3.830  10.111  0.00  0.00    +0.040 A 
ATOM     31  C   UNL     1       0.511  -4.571   9.360  0.00  0.00    +0.124 A 
ATOM     32  C   UNL     1       0.776  -4.217   8.048  0.00  0.00    +0.040 A 
ATOM     33  C   UNL     1       0.142  -3.127   7.483  0.00  0.00    +0.026 A 
ATOM     34  F   UNL     1       1.128  -5.640   9.909  0.00  0.00    -0.205 F 
ENDBRANCH  26  28
ENDBRANCH  23  24
ENDBRANCH  10  23
TORSDOF 5
