REMARK  Name = ZINC28052973
REMARK  12 active torsions:
REMARK  status: ('A' for Active; 'I' for Inactive)
REMARK    1  A    between atoms: C_1  and  C_2
REMARK    2  A    between atoms: C_2  and  O_3
REMARK    3  A    between atoms: O_3  and  C_4
REMARK    4  A    between atoms: C_7  and  C_12
REMARK    5  A    between atoms: C_9  and  O_10
REMARK    6  A    between atoms: O_10  and  C_11
REMARK    7  A    between atoms: C_15  and  C_38
REMARK    8  A    between atoms: C_25  and  C_28
REMARK    9  A    between atoms: C_30  and  O_36
REMARK   10  A    between atoms: C_33  and  O_34
REMARK   11  A    between atoms: O_34  and  C_35
REMARK   12  A    between atoms: O_36  and  C_37
REMARK                            x       y       z     vdW  Elec       q    Type
REMARK                         _______ _______ _______ _____ _____    ______ ____
ROOT
ATOM      1  C   UNL     1      -5.697  -1.909   0.020  0.00  0.00    +0.091 C 
ATOM      2  C   UNL     1      -6.355  -1.899   1.363  0.00  0.00    +0.049 A 
ATOM      3  C   UNL     1      -7.626  -2.276   1.789  0.00  0.00    +0.087 A 
ATOM      4  N   UNL     1      -7.657  -2.054   3.080  0.00  0.00    -0.081 NA
ATOM      5  O   UNL     1      -6.605  -1.604   3.489  0.00  0.00    -0.339 OA
ATOM      6  C   UNL     1      -5.726  -1.466   2.502  0.00  0.00    +0.226 A 
ATOM      7  N   UNL     1      -4.427  -1.003   2.467  0.00  0.00    -0.286 N 
ATOM      8  C   UNL     1      -3.866  -0.707   1.247  0.00  0.00    +0.019 C 
ATOM      9  C   UNL     1      -4.421  -1.095   0.079  0.00  0.00    +0.024 C 
ATOM     10  C   UNL     1      -3.832  -0.750  -1.151  0.00  0.00    +0.162 C 
ATOM     11  O   UNL     1      -4.347  -1.133  -2.183  0.00  0.00    -0.292 OA
ATOM     12  C   UNL     1      -2.581   0.080  -1.219  0.00  0.00    +0.088 C 
ATOM     13  C   UNL     1      -2.513   0.979   0.020  0.00  0.00    +0.036 C 
ATOM     14  C   UNL     1      -2.581   0.090   1.263  0.00  0.00    +0.060 C 
ATOM     15  C   UNL     1      -8.740  -2.829   0.938  0.00  0.00    +0.069 C 
ATOM     16  H   UNL     1      -3.862  -0.878   3.403  0.00  0.00    +0.155 HD
ENDROOT
BRANCH   1  20
ATOM     17  C   UNL     1      -4.768  -5.937  -1.077  0.00  0.00    +0.162 A 
ATOM     18  C   UNL     1      -4.224  -5.386   0.072  0.00  0.00    +0.050 A 
ATOM     19  C   UNL     1      -4.522  -4.082   0.421  0.00  0.00    +0.008 A 
ATOM     20  C   UNL     1      -5.371  -3.328  -0.368  0.00  0.00    -0.032 A 
ATOM     21  C   UNL     1      -5.917  -3.872  -1.516  0.00  0.00    +0.054 A 
ATOM     22  C   UNL     1      -5.617  -5.177  -1.875  0.00  0.00    +0.162 A 
BRANCH  22  23
ATOM     23  O   UNL     1      -6.153  -5.713  -3.004  0.00  0.00    -0.491 OA
ATOM     24  C   UNL     1      -7.016  -4.874  -3.774  0.00  0.00    +0.277 C 
ENDBRANCH  22  23
BRANCH  17  25
ATOM     25  O   UNL     1      -4.471  -7.218  -1.425  0.00  0.00    -0.489 OA
BRANCH  25  27
ATOM     26  C   UNL     1      -3.376  -9.349  -1.109  0.00  0.00    +0.048 C 
ATOM     27  C   UNL     1      -3.591  -7.938  -0.559  0.00  0.00    +0.226 C 
ENDBRANCH  25  27
ENDBRANCH  17  25
ENDBRANCH   1  20
BRANCH  13  28
ATOM     28  C   UNL     1      -1.218   1.750   0.017  0.00  0.00    +0.002 A 
ATOM     29  C   UNL     1      -0.013   1.076   0.008  0.00  0.00    +0.053 A 
ATOM     30  C   UNL     1       1.179   1.786   0.000  0.00  0.00    +0.121 A 
ATOM     31  C   UNL     1       1.160   3.172   0.007  0.00  0.00    +0.049 A 
ATOM     32  C   UNL     1      -0.045   3.847   0.022  0.00  0.00    +0.049 A 
ATOM     33  C   UNL     1      -1.237   3.137   0.029  0.00  0.00    +0.124 A 
BRANCH  33  34
ATOM     34  O   UNL     1      -2.424   3.801   0.044  0.00  0.00    -0.495 OA
ATOM     35  C   UNL     1      -2.368   5.229   0.050  0.00  0.00    +0.277 C 
ENDBRANCH  33  34
BRANCH  30  36
ATOM     36  O   UNL     1       2.365   1.122  -0.015  0.00  0.00    -0.495 OA
ATOM     37  C   UNL     1       3.553   1.916  -0.022  0.00  0.00    +0.277 C 
ENDBRANCH  30  36
ENDBRANCH  13  28
TORSDOF 7
