REMARK  Name = ZINC34685739
REMARK  10 active torsions:
REMARK  status: ('A' for Active; 'I' for Inactive)
REMARK    1  A    between atoms: C_1  and  C_2
REMARK    2  A    between atoms: C_2  and  C_3
REMARK    3  A    between atoms: C_2  and  C_4
REMARK    4  A    between atoms: C_12  and  O_23
REMARK    5  A    between atoms: C_15  and  C_17
REMARK    6  A    between atoms: O_23  and  C_24
REMARK    7  A    between atoms: C_24  and  C_25
REMARK    8  A    between atoms: C_28  and  C_30
REMARK    9  A    between atoms: N_35  and  C_38
REMARK   10  A    between atoms: C_38  and  C_39
REMARK                            x       y       z     vdW  Elec       q    Type
REMARK                         _______ _______ _______ _____ _____    ______ ____
ROOT
ATOM      1  C   UNL     1      -2.006  -0.580   0.295  0.00  0.00    +0.219 C 
ATOM      2  O   UNL     1      -3.006   0.106   0.328  0.00  0.00    -0.275 OA
ATOM      3  N   UNL     1      -2.103  -1.919   0.408  0.00  0.00    -0.290 N 
ATOM      4  C   UNL     1      -0.904  -2.769   0.496  0.00  0.00    +0.113 C 
ATOM      5  C   UNL     1      -0.905  -3.442   1.868  0.00  0.00    +0.054 C 
ATOM      6  C   UNL     1      -2.256  -4.035   2.174  0.00  0.00    -0.040 A 
ATOM      7  C   UNL     1      -2.319  -5.024   3.148  0.00  0.00    +0.007 A 
ATOM      8  C   UNL     1      -3.523  -5.604   3.484  0.00  0.00    +0.046 A 
ATOM      9  C   UNL     1      -4.686  -5.196   2.847  0.00  0.00    +0.121 A 
ATOM     10  C   UNL     1      -4.624  -4.212   1.875  0.00  0.00    +0.051 A 
ATOM     11  C   UNL     1      -3.409  -3.635   1.534  0.00  0.00    -0.016 A 
ATOM     12  C   UNL     1      -3.408  -2.588   0.454  0.00  0.00    +0.137 C 
ENDROOT
BRANCH  12  13
ATOM     13  C   UNL     1      -3.682  -3.245  -0.874  0.00  0.00    -0.023 A 
ATOM     14  C   UNL     1      -4.750  -2.826  -1.645  0.00  0.00    +0.006 A 
ATOM     15  C   UNL     1      -5.001  -3.428  -2.864  0.00  0.00    +0.000 A 
ATOM     16  C   UNL     1      -4.184  -4.449  -3.312  0.00  0.00    +0.000 A 
ATOM     17  C   UNL     1      -3.116  -4.868  -2.541  0.00  0.00    +0.000 A 
ATOM     18  C   UNL     1      -2.862  -4.263  -1.324  0.00  0.00    +0.006 A 
ENDBRANCH  12  13
BRANCH   1  20
ATOM     19  C   UNL     1      -0.323   0.176  -1.362  0.00  0.00    +0.017 C 
ATOM     20  C   UNL     1      -0.655   0.066   0.128  0.00  0.00    +0.069 C 
ATOM     21  C   UNL     1      -0.677   1.464   0.750  0.00  0.00    +0.017 C 
ENDBRANCH   1  20
BRANCH   9  22
ATOM     22  O   UNL     1      -5.879  -5.758   3.175  0.00  0.00    -0.484 OA
BRANCH  22  23
ATOM     23  C   UNL     1      -5.864  -6.767   4.187  0.00  0.00    +0.303 C 
BRANCH  23  24
ATOM     24  C   UNL     1      -7.266  -7.270   4.415  0.00  0.00    +0.143 A 
ATOM     25  C   UNL     1      -7.845  -8.306   3.768  0.00  0.00    +0.049 A 
ATOM     26  C   UNL     1      -9.145  -8.438   4.281  0.00  0.00    +0.055 A 
ATOM     27  C   UNL     1      -9.296  -7.464   5.226  0.00  0.00    +0.190 A 
ATOM     28  O   UNL     1      -8.142  -6.769   5.296  0.00  0.00    -0.452 OA
BRANCH  27  29
ATOM     29  C   UNL     1     -10.499  -7.219   6.027  0.00  0.00    +0.282 C 
ATOM     30  O   UNL     1     -11.442  -7.986   5.959  0.00  0.00    -0.267 OA
ATOM     31  N   UNL     1     -10.561  -6.146   6.840  0.00  0.00    -0.299 N 
ATOM     32  C   UNL     1      -9.492  -5.135   6.840  0.00  0.00    +0.089 C 
ATOM     33  C   UNL     1     -10.133  -3.751   6.694  0.00  0.00    -0.059 C 
ATOM     34  N   UNL     1     -11.142  -3.566   7.744  0.00  0.00    +0.384 N 
ATOM     35  C   UNL     1     -12.236  -4.529   7.561  0.00  0.00    -0.059 C 
ATOM     36  C   UNL     1     -11.702  -5.949   7.747  0.00  0.00    +0.089 C 
ATOM     37  H   UNL     1     -10.716  -3.710   8.647  0.00  0.00    -0.081 HD
BRANCH  34  38
ATOM     38  C   UNL     1     -11.677  -2.200   7.671  0.00  0.00    -0.052 C 
BRANCH  38  39
ATOM     39  C   UNL     1     -12.622  -1.969   8.822  0.00  0.00    -0.053 C 
ATOM     40  C   UNL     1     -12.432  -0.957   9.632  0.00  0.00    +0.002 C 
ENDBRANCH  38  39
ENDBRANCH  34  38
ENDBRANCH  27  29
ENDBRANCH  23  24
ENDBRANCH  22  23
ENDBRANCH   9  22
TORSDOF 8
