REMARK  Name = ZINC15946563
REMARK  12 active torsions:
REMARK  status: ('A' for Active; 'I' for Inactive)
REMARK    1  A    between atoms: C_1  and  C_2
REMARK    2  A    between atoms: C_5  and  N_9
REMARK    3  A    between atoms: C_6  and  C_8
REMARK    4  A    between atoms: C_10  and  C_12
REMARK    5  A    between atoms: C_16  and  N_17
REMARK    6  A    between atoms: C_18  and  C_20
REMARK    7  A    between atoms: C_20  and  N_76
REMARK    8  A    between atoms: C_24  and  C_27
REMARK    9  A    between atoms: C_29  and  C_33
REMARK   10  A    between atoms: C_33  and  C_34
REMARK   11  A    between atoms: C_33  and  C_35
REMARK   12  A    between atoms: C_33  and  C_36
REMARK                            x       y       z     vdW  Elec       q    Type
REMARK                         _______ _______ _______ _____ _____    ______ ____
ROOT
ATOM      1  C   UNL     1      -0.024   1.371   0.009  0.00  0.00    +0.069 A 
ATOM      2  C   UNL     1       1.261   2.050  -0.002  0.00  0.00    -0.023 A 
ATOM      3  C   UNL     1       2.340   1.238  -0.016  0.00  0.00    -0.004 A 
ATOM      4  S   UNL     1       1.673  -0.402  -0.015  0.00  0.00    -0.077 S 
ATOM      5  C   UNL     1      -0.016  -0.017   0.004  0.00  0.00    +0.084 A 
ATOM      6  C   UNL     1       3.780   1.650  -0.029  0.00  0.00    +0.046 C 
ATOM      7  C   UNL     1       3.862   3.135   0.352  0.00  0.00    -0.000 C 
ATOM      8  C   UNL     1       2.832   3.914  -0.471  0.00  0.00    +0.009 C 
ATOM      9  C   UNL     1       1.419   3.565   0.000  0.00  0.00    +0.037 C 
ENDROOT
BRANCH   1  11
ATOM     10  N   UNL     1      -1.867   2.474  -1.143  0.00  0.00    -0.281 N 
ATOM     11  C   UNL     1      -1.282   2.124   0.020  0.00  0.00    +0.251 C 
ATOM     12  O   UNL     1      -1.797   2.433   1.078  0.00  0.00    -0.270 OA
ATOM     13  H   UNL     1      -1.417   2.299  -1.984  0.00  0.00    +0.155 HD
BRANCH  10  18
ATOM     14  C   UNL     1      -6.960   4.972  -1.114  0.00  0.00    +0.044 C 
ATOM     15  C   UNL     1      -5.607   4.309  -1.122  0.00  0.00    -0.050 A 
ATOM     16  C   UNL     1      -5.227   3.503  -0.063  0.00  0.00    +0.005 A 
ATOM     17  C   UNL     1      -3.988   2.894  -0.067  0.00  0.00    +0.024 A 
ATOM     18  C   UNL     1      -3.123   3.090  -1.136  0.00  0.00    +0.037 A 
ATOM     19  C   UNL     1      -3.505   3.904  -2.194  0.00  0.00    -0.029 A 
ATOM     20  C   UNL     1      -4.747   4.507  -2.187  0.00  0.00    +0.008 A 
ATOM     21  C   UNL     1      -2.566   4.125  -3.353  0.00  0.00    +0.045 C 
ENDBRANCH  10  18
ENDBRANCH   1  11
BRANCH   5  22
ATOM     22  N   UNL     1      -1.097  -0.885   0.012  0.00  0.00    -0.281 N 
ATOM     23  C   UNL     1      -0.893  -2.217   0.005  0.00  0.00    +0.201 C 
ATOM     24  O   UNL     1       0.238  -2.656  -0.009  0.00  0.00    -0.278 OA
ATOM     25  H   UNL     1      -2.001  -0.533   0.023  0.00  0.00    +0.155 HD
BRANCH  23  26
ATOM     26  C   UNL     1      -2.068  -3.160   0.013  0.00  0.00    +0.019 C 
BRANCH  26  33
ATOM     27  C   UNL     1      -0.892  -4.853  -1.256  0.00  0.00    -0.078 C 
ATOM     28  C   UNL     1      -0.276  -6.252  -1.174  0.00  0.00    -0.018 C 
ATOM     29  C   UNL     1      -1.384  -7.277  -0.915  0.00  0.00    -0.001 C 
ATOM     30  C   UNL     1      -2.119  -6.907   0.376  0.00  0.00    -0.031 C 
ATOM     31  C   UNL     1      -2.681  -5.490   0.249  0.00  0.00    -0.075 C 
ATOM     32  C   UNL     1      -3.266  -7.893   0.611  0.00  0.00    +0.005 C 
ATOM     33  N   UNL     1      -1.564  -4.548   0.026  0.00  0.00    +0.386 N 
ATOM     34  H   UNL     1      -0.885  -4.650   0.789  0.00  0.00    -0.081 HD
ENDBRANCH  26  33
ENDBRANCH  23  26
ENDBRANCH   5  22
BRANCH   7  35
ATOM     35  C   UNL     1       5.265   3.666   0.052  0.00  0.00    -0.035 C 
ATOM     36  C   UNL     1       5.561   3.507  -1.440  0.00  0.00    +0.011 C 
ATOM     37  C   UNL     1       5.343   5.145   0.434  0.00  0.00    +0.011 C 
ATOM     38  C   UNL     1       6.293   2.875   0.863  0.00  0.00    +0.011 C 
ENDBRANCH   7  35
TORSDOF 6
