REMARK  Name = ZINC01939340
REMARK  14 active torsions:
REMARK  status: ('A' for Active; 'I' for Inactive)
REMARK    1  A    between atoms: C_1  and  C_2
REMARK    2  A    between atoms: C_4  and  C_37
REMARK    3  A    between atoms: C_6  and  O_8
REMARK    4  A    between atoms: O_8  and  C_9
REMARK    5  A    between atoms: C_14  and  O_20
REMARK    6  A    between atoms: O_20  and  C_21
REMARK    7  A    between atoms: C_21  and  C_22
REMARK    8  A    between atoms: N_24  and  C_25
REMARK    9  A    between atoms: C_25  and  C_26
REMARK   10  A    between atoms: C_26  and  C_27
REMARK   11  A    between atoms: C_30  and  O_35
REMARK   12  A    between atoms: C_31  and  O_33
REMARK   13  A    between atoms: O_33  and  C_34
REMARK   14  A    between atoms: O_35  and  C_36
REMARK                            x       y       z     vdW  Elec       q    Type
REMARK                         _______ _______ _______ _____ _____    ______ ____
ROOT
ATOM      1  C   UNL     1      -1.712   2.612 -10.903  0.00  0.00    +0.210 A 
ATOM      2  C   UNL     1      -0.427   2.225 -10.778  0.00  0.00    +0.245 A 
ATOM      3  O   UNL     1       0.204   2.176  -9.598  0.00  0.00    -0.459 OA
ATOM      4  C   UNL     1      -0.402   2.512  -8.441  0.00  0.00    +0.142 A 
ATOM      5  C   UNL     1       0.281   2.450  -7.234  0.00  0.00    +0.092 A 
ATOM      6  C   UNL     1      -0.365   2.801  -6.061  0.00  0.00    +0.125 A 
ATOM      7  C   UNL     1      -1.696   3.211  -6.080  0.00  0.00    +0.046 A 
ATOM      8  C   UNL     1      -2.380   3.282  -7.259  0.00  0.00    +0.019 A 
ATOM      9  C   UNL     1      -1.744   2.932  -8.451  0.00  0.00    +0.068 A 
ATOM     10  C   UNL     1      -2.448   2.989  -9.743  0.00  0.00    +0.234 A 
ATOM     11  O   UNL     1      -3.612   3.345  -9.817  0.00  0.00    -0.283 OA
ENDROOT
BRANCH   1  12
ATOM     12  O   UNL     1      -2.303   2.643 -12.129  0.00  0.00    -0.449 OA
BRANCH  12  18
ATOM     13  C   UNL     1       0.745   3.825 -15.753  0.00  0.00    +0.044 C 
ATOM     14  C   UNL     1      -0.066   2.808 -14.994  0.00  0.00    -0.047 A 
ATOM     15  C   UNL     1      -0.058   1.483 -15.390  0.00  0.00    +0.007 A 
ATOM     16  C   UNL     1      -0.802   0.546 -14.695  0.00  0.00    -0.047 A 
ATOM     17  C   UNL     1      -1.554   0.932 -13.603  0.00  0.00    +0.049 A 
ATOM     18  C   UNL     1      -1.564   2.261 -13.203  0.00  0.00    +0.129 A 
ATOM     19  C   UNL     1      -0.821   3.200 -13.905  0.00  0.00    +0.049 A 
ATOM     20  C   UNL     1      -0.790  -0.897 -15.130  0.00  0.00    +0.044 C 
ENDBRANCH  12  18
ENDBRANCH   1  12
BRANCH   6  21
ATOM     21  O   UNL     1       0.304   2.740  -4.880  0.00  0.00    -0.483 OA
BRANCH  21  22
ATOM     22  C   UNL     1      -0.418   3.115  -3.706  0.00  0.00    +0.324 C 
BRANCH  22  23
ATOM     23  C   UNL     1       0.478   2.985  -2.502  0.00  0.00    +0.251 C 
ATOM     24  O   UNL     1       1.623   2.608  -2.636  0.00  0.00    -0.272 OA
ATOM     25  N   UNL     1       0.008   3.287  -1.276  0.00  0.00    -0.312 N 
ATOM     26  H   UNL     1      -0.907   3.588  -1.168  0.00  0.00    +0.149 HD
BRANCH  25  27
ATOM     27  C   UNL     1       0.880   3.161  -0.105  0.00  0.00    +0.109 C 
BRANCH  27  28
ATOM     28  C   UNL     1       0.107   3.562   1.153  0.00  0.00    +0.054 C 
BRANCH  28  29
ATOM     29  C   UNL     1       1.004   3.432   2.357  0.00  0.00    -0.042 A 
ATOM     30  C   UNL     1       1.054   2.240   3.054  0.00  0.00    +0.007 A 
ATOM     31  C   UNL     1       1.880   2.114   4.156  0.00  0.00    +0.049 A 
ATOM     32  C   UNL     1       2.651   3.188   4.570  0.00  0.00    +0.161 A 
ATOM     33  C   UNL     1       2.596   4.390   3.871  0.00  0.00    +0.162 A 
ATOM     34  C   UNL     1       1.771   4.508   2.764  0.00  0.00    +0.053 A 
BRANCH  33  35
ATOM     35  O   UNL     1       3.352   5.447   4.274  0.00  0.00    -0.491 OA
ATOM     36  C   UNL     1       3.246   6.649   3.508  0.00  0.00    +0.277 C 
ENDBRANCH  33  35
BRANCH  32  37
ATOM     37  O   UNL     1       3.460   3.067   5.657  0.00  0.00    -0.491 OA
ATOM     38  C   UNL     1       3.465   1.804   6.325  0.00  0.00    +0.277 C 
ENDBRANCH  32  37
ENDBRANCH  28  29
ENDBRANCH  27  28
ENDBRANCH  25  27
ENDBRANCH  22  23
ENDBRANCH  21  22
ENDBRANCH   6  21
TORSDOF 10
