REMARK  Name = ZINC11308622
REMARK  11 active torsions:
REMARK  status: ('A' for Active; 'I' for Inactive)
REMARK    1  A    between atoms: C_1  and  C_2
REMARK    2  A    between atoms: C_2  and  O_3
REMARK    3  A    between atoms: O_3  and  C_4
REMARK    4  A    between atoms: C_4  and  C_6
REMARK    5  A    between atoms: C_7  and  C_21
REMARK    6  A    between atoms: C_12  and  C_14
REMARK    7  A    between atoms: C_21  and  S_22
REMARK    8  A    between atoms: S_22  and  C_23
REMARK    9  A    between atoms: C_26  and  C_29
REMARK   10  A    between atoms: N_27  and  N_28
REMARK   11  A    between atoms: C_32  and  C_35
REMARK                            x       y       z     vdW  Elec       q    Type
REMARK                         _______ _______ _______ _____ _____    ______ ____
ROOT
ATOM      1  C   UNL     1      -6.717   6.535  -0.811  0.00  0.00    +0.079 C 
ATOM      2  C   UNL     1      -6.250   5.900   0.285  0.00  0.00    +0.034 C 
ATOM      3  N   UNL     1      -6.644   6.275   1.538  0.00  0.00    -0.272 N 
ATOM      4  C   UNL     1      -7.506   7.271   1.778  0.00  0.00    +0.304 C 
ATOM      5  O   UNL     1      -7.797   7.531   2.929  0.00  0.00    -0.252 OA
ATOM      6  N   UNL     1      -8.061   7.994   0.786  0.00  0.00    -0.288 N 
ATOM      7  C   UNL     1      -7.701   7.669  -0.604  0.00  0.00    +0.144 C 
ATOM      8  H   UNL     1      -6.279   5.792   2.296  0.00  0.00    +0.156 HD
ATOM      9  H   UNL     1      -8.684   8.711   0.983  0.00  0.00    +0.151 HD
ENDROOT
BRANCH   7  10
ATOM     10  C   UNL     1      -8.968   7.330  -1.346  0.00  0.00    -0.022 A 
ATOM     11  C   UNL     1      -9.950   6.577  -0.729  0.00  0.00    +0.007 A 
ATOM     12  C   UNL     1     -11.115   6.271  -1.407  0.00  0.00    +0.020 A 
ATOM     13  C   UNL     1     -11.294   6.710  -2.707  0.00  0.00    +0.041 A 
ATOM     14  C   UNL     1     -10.309   7.459  -3.325  0.00  0.00    +0.020 A 
ATOM     15  C   UNL     1      -9.147   7.769  -2.645  0.00  0.00    +0.007 A 
ATOM     16 CL   UNL     1     -12.755   6.321  -3.561  0.00  0.00    -0.084 Cl
ENDBRANCH   7  10
BRANCH   1  17
ATOM     17  C   UNL     1      -6.305   6.152  -2.109  0.00  0.00    +0.339 C 
ATOM     18  O   UNL     1      -5.636   5.148  -2.264  0.00  0.00    -0.245 OA
BRANCH  17  19
ATOM     19  O   UNL     1      -6.656   6.900  -3.177  0.00  0.00    -0.462 OA
BRANCH  19  21
ATOM     20  C   UNL     1      -6.697   7.421  -5.536  0.00  0.00    +0.048 C 
ATOM     21  C   UNL     1      -6.205   6.454  -4.457  0.00  0.00    +0.229 C 
ENDBRANCH  19  21
ENDBRANCH  17  19
ENDBRANCH   1  17
BRANCH   2  22
ATOM     22  C   UNL     1      -5.273   4.764   0.124  0.00  0.00    +0.128 C 
BRANCH  22  23
ATOM     23  S   UNL     1      -6.155   3.188   0.252  0.00  0.00    -0.079 S 
BRANCH  23  24
ATOM     24  C   UNL     1      -4.813   2.068   0.034  0.00  0.00    +0.209 A 
ATOM     25  N   UNL     1      -3.553   2.389  -0.163  0.00  0.00    -0.121 NA
ATOM     26  N   UNL     1      -2.840   1.326  -0.277  0.00  0.00    -0.127 NA
ATOM     27  C   UNL     1      -3.601   0.262  -0.170  0.00  0.00    +0.182 A 
ATOM     28  N   UNL     1      -4.887   0.704   0.036  0.00  0.00    -0.224 N 
BRANCH  27  29
ATOM     29  C   UNL     1      -3.158  -1.147  -0.248  0.00  0.00    +0.021 A 
ATOM     30  C   UNL     1      -3.994  -2.170   0.199  0.00  0.00    +0.012 A 
ATOM     31  C   UNL     1      -3.573  -3.482   0.128  0.00  0.00    +0.004 A 
ATOM     32  C   UNL     1      -2.324  -3.784  -0.386  0.00  0.00    -0.050 A 
ATOM     33  C   UNL     1      -1.490  -2.773  -0.831  0.00  0.00    +0.004 A 
ATOM     34  C   UNL     1      -1.899  -1.458  -0.765  0.00  0.00    +0.012 A 
ATOM     35  C   UNL     1      -1.870  -5.219  -0.460  0.00  0.00    +0.044 C 
ENDBRANCH  27  29
BRANCH  28  36
ATOM     36  N   UNL     1      -6.006  -0.061   0.207  0.00  0.00    -0.295 N 
ATOM     37  H   UNL     1      -6.155  -0.270   1.183  0.00  0.00    +0.163 HD
ATOM     38  H   UNL     1      -6.815   0.387  -0.195  0.00  0.00    +0.163 HD
ENDBRANCH  28  36
ENDBRANCH  23  24
ENDBRANCH  22  23
ENDBRANCH   2  22
TORSDOF 9
