REMARK  Name = ZINC13499191
REMARK  16 active torsions:
REMARK  status: ('A' for Active; 'I' for Inactive)
REMARK    1  A    between atoms: C_1  and  C_2
REMARK    2  A    between atoms: C_2  and  O_3
REMARK    3  A    between atoms: O_3  and  C_4
REMARK    4  A    between atoms: C_4  and  C_6
REMARK    5  A    between atoms: C_6  and  N_7
REMARK    6  A    between atoms: C_8  and  C_12
REMARK    7  A    between atoms: C_12  and  C_14
REMARK    8  A    between atoms: C_12  and  N_17
REMARK    9  A    between atoms: C_14  and  C_15
REMARK   10  A    between atoms: C_14  and  C_16
REMARK   11  A    between atoms: N_17  and  C_18
REMARK   12  A    between atoms: N_17  and  C_24
REMARK   13  A    between atoms: C_18  and  C_19
REMARK   14  A    between atoms: C_24  and  C_25
REMARK   15  A    between atoms: C_28  and  C_38
REMARK   16  A    between atoms: C_31  and  C_37
REMARK                            x       y       z     vdW  Elec       q    Type
REMARK                         _______ _______ _______ _____ _____    ______ ____
ROOT
ATOM      1  N   UNL     1      -1.806  -3.901   2.797  0.00  0.00    -0.281 NA
ENDROOT
BRANCH   1   2
ATOM      2  C   UNL     1      -0.514  -3.844   3.494  0.00  0.00    +0.130 C 
BRANCH   2   4
ATOM      3  N   UNL     1       0.890  -1.715   3.523  0.00  0.00    -0.217 N 
ATOM      4  C   UNL     1       0.339  -2.762   2.883  0.00  0.00    +0.169 A 
ATOM      5  N   UNL     1       0.688  -2.659   1.623  0.00  0.00    -0.112 NA
ATOM      6  N   UNL     1       1.416  -1.604   1.498  0.00  0.00    -0.023 NA
ATOM      7  N   UNL     1       1.536  -1.028   2.643  0.00  0.00    -0.043 NA
BRANCH   3   8
ATOM      8  C   UNL     1       0.775  -1.410   4.952  0.00  0.00    +0.267 C 
BRANCH   8   9
ATOM      9  C   UNL     1      -0.337  -0.415   5.164  0.00  0.00    +0.329 C 
ATOM     10  O   UNL     1      -0.996  -0.036   4.225  0.00  0.00    -0.249 OA
BRANCH   9  11
ATOM     11  O   UNL     1      -0.595   0.051   6.396  0.00  0.00    -0.464 OA
BRANCH  11  13
ATOM     12  C   UNL     1      -1.747   1.480   7.968  0.00  0.00    +0.048 C 
ATOM     13  C   UNL     1      -1.691   0.958   6.531  0.00  0.00    +0.229 C 
ENDBRANCH  11  13
ENDBRANCH   9  11
ENDBRANCH   8   9
ENDBRANCH   3   8
ENDBRANCH   2   4
BRANCH   2  14
ATOM     14  C   UNL     1       0.198  -5.191   3.361  0.00  0.00    +0.008 C 
ATOM     15  C   UNL     1      -0.606  -6.268   4.094  0.00  0.00    +0.009 C 
ATOM     16  C   UNL     1       0.316  -5.562   1.881  0.00  0.00    +0.009 C 
ENDBRANCH   2  14
ENDBRANCH   1   2
BRANCH   1  17
ATOM     17  C   UNL     1      -1.651  -3.576   1.373  0.00  0.00    +0.159 C 
BRANCH  17  18
ATOM     18  C   UNL     1      -2.875  -4.027   0.618  0.00  0.00    +0.119 A 
ATOM     19  C   UNL     1      -3.934  -3.259   0.306  0.00  0.00    +0.046 A 
ATOM     20  C   UNL     1      -4.843  -4.081  -0.398  0.00  0.00    +0.041 A 
ATOM     21  C   UNL     1      -4.285  -5.303  -0.474  0.00  0.00    +0.195 A 
ATOM     22  O   UNL     1      -3.091  -5.263   0.139  0.00  0.00    -0.467 OA
ENDBRANCH  17  18
ENDBRANCH   1  17
BRANCH   1  23
ATOM     23  C   UNL     1      -2.789  -3.016   3.436  0.00  0.00    +0.126 C 
BRANCH  23  24
ATOM     24  C   UNL     1      -3.299  -3.659   4.699  0.00  0.00    +0.032 A 
ATOM     25  C   UNL     1      -2.759  -3.319   5.896  0.00  0.00    +0.020 A 
ATOM     26  C   UNL     1      -3.277  -3.962   7.105  0.00  0.00    +0.002 A 
ATOM     27  C   UNL     1      -2.761  -3.651   8.367  0.00  0.00    -0.041 A 
ATOM     28  C   UNL     1      -3.267  -4.269   9.476  0.00  0.00    +0.004 A 
ATOM     29  C   UNL     1      -4.288  -5.202   9.361  0.00  0.00    +0.005 A 
ATOM     30  C   UNL     1      -4.811  -5.524   8.127  0.00  0.00    -0.026 A 
ATOM     31  C   UNL     1      -4.313  -4.907   6.984  0.00  0.00    +0.052 A 
ATOM     32  N   UNL     1      -4.819  -5.209   5.738  0.00  0.00    -0.322 N 
ATOM     33  H   UNL     1      -5.533  -5.861   5.657  0.00  0.00    +0.169 HD
ATOM     34  C   UNL     1      -4.340  -4.609   4.634  0.00  0.00    +0.254 A 
ATOM     35  O   UNL     1      -4.814  -4.897   3.548  0.00  0.00    -0.268 OA
ATOM     36  C   UNL     1      -5.919  -6.539   8.017  0.00  0.00    +0.046 C 
ATOM     37  C   UNL     1      -1.652  -2.641   8.504  0.00  0.00    +0.044 C 
ENDBRANCH  23  24
ENDBRANCH   1  23
TORSDOF 11
