REMARK  Name = ZINC12324679
REMARK  4 active torsions:
REMARK  status: ('A' for Active; 'I' for Inactive)
REMARK    1  A    between atoms: C_1  and  C_2
REMARK    2  A    between atoms: C_5  and  C_8
REMARK    3  A    between atoms: C_10  and  C_17
REMARK    4  A    between atoms: N_12  and  C_16
REMARK                            x       y       z     vdW  Elec       q    Type
REMARK                         _______ _______ _______ _____ _____    ______ ____
ROOT
ATOM      1  C   UNL     1       0.058  -4.275  -0.021  0.00  0.00    +0.138 C 
ATOM      2  C   UNL     1       1.481  -4.721  -0.288  0.00  0.00    +0.017 C 
ATOM      3  C   UNL     1       1.704  -5.500  -1.352  0.00  0.00    +0.087 C 
ATOM      4  N   UNL     1       0.667  -5.886  -2.184  0.00  0.00    -0.265 N 
ATOM      5  C   UNL     1      -0.607  -5.520  -1.992  0.00  0.00    +0.307 C 
ATOM      6  O   UNL     1      -1.455  -5.907  -2.774  0.00  0.00    -0.252 OA
ATOM      7  N   UNL     1      -0.977  -4.736  -0.961  0.00  0.00    -0.288 N 
ATOM      8  C   UNL     1       0.980  -6.740  -3.333  0.00  0.00    +0.139 C 
ATOM      9  H   UNL     1      -1.905  -4.482  -0.839  0.00  0.00    +0.151 HD
ENDROOT
BRANCH   2  10
ATOM     10  C   UNL     1       2.587  -4.309   0.600  0.00  0.00    +0.080 A 
ATOM     11  C   UNL     1       3.867  -4.719   0.347  0.00  0.00    +0.076 A 
ATOM     12  S   UNL     1       4.741  -3.941   1.698  0.00  0.00    -0.060 S 
ATOM     13  C   UNL     1       3.328  -3.154   2.458  0.00  0.00    +0.156 A 
ATOM     14  N   UNL     1       2.351  -3.528   1.653  0.00  0.00    -0.225 NA
ATOM     15  N   UNL     1       3.273  -2.358   3.590  0.00  0.00    -0.338 N 
ATOM     16  H   UNL     1       4.084  -2.162   4.086  0.00  0.00    +0.144 HD
ATOM     17  H   UNL     1       2.424  -1.996   3.888  0.00  0.00    +0.144 HD
ENDBRANCH   2  10
BRANCH   1  22
ATOM     18  C   UNL     1      -0.018   1.503   0.010  0.00  0.00    +0.044 C 
ATOM     19  C   UNL     1       0.002  -0.004   0.002  0.00  0.00    -0.050 A 
ATOM     20  C   UNL     1      -0.006  -0.689  -1.199  0.00  0.00    +0.004 A 
ATOM     21  C   UNL     1       0.018  -2.071  -1.206  0.00  0.00    +0.006 A 
ATOM     22  C   UNL     1       0.039  -2.768  -0.013  0.00  0.00    -0.023 A 
ATOM     23  C   UNL     1       0.041  -2.084   1.188  0.00  0.00    +0.006 A 
ATOM     24  C   UNL     1       0.023  -0.702   1.195  0.00  0.00    +0.004 A 
ENDBRANCH   1  22
TORSDOF 2
