REMARK  Name = ZINC39462576
REMARK  5 active torsions:
REMARK  status: ('A' for Active; 'I' for Inactive)
REMARK    1  A    between atoms: C_11  and  C_13
REMARK    2  A    between atoms: C_13  and  S_14
REMARK    3  A    between atoms: S_14  and  C_15
REMARK    4  A    between atoms: C_19  and  N_29
REMARK    5  A    between atoms: N_21  and  C_22
REMARK                            x       y       z     vdW  Elec       q    Type
REMARK                         _______ _______ _______ _____ _____    ______ ____
ROOT
ATOM      1  C   UNL     1       7.911  -2.291  -0.003  0.00  0.00    +0.216 C 
ATOM      2  N   UNL     1       7.981  -3.268   1.116  0.00  0.00    -0.228 NA
ATOM      3  N   UNL     1       8.855  -4.323   0.580  0.00  0.00    -0.251 NA
ATOM      4  C   UNL     1       8.475  -4.425  -0.848  0.00  0.00    +0.105 C 
ATOM      5  N   UNL     1       7.876  -3.129  -1.219  0.00  0.00    -0.304 N 
ATOM      6  H   UNL     1       8.386  -2.846   1.939  0.00  0.00    +0.143 HD
ATOM      7  H   UNL     1       9.827  -4.072   0.677  0.00  0.00    +0.140 HD
ENDROOT
BRANCH   5   8
ATOM      8  C   UNL     1       7.373  -2.765  -2.470  0.00  0.00    +0.033 A 
ATOM      9  C   UNL     1       7.979  -1.747  -3.195  0.00  0.00    +0.023 A 
ATOM     10  C   UNL     1       7.481  -1.389  -4.432  0.00  0.00    +0.003 A 
ATOM     11  C   UNL     1       6.378  -2.044  -4.950  0.00  0.00    +0.020 A 
ATOM     12  C   UNL     1       5.771  -3.059  -4.231  0.00  0.00    +0.043 A 
ATOM     13  C   UNL     1       6.269  -3.425  -2.995  0.00  0.00    +0.043 A 
ATOM     14 CL   UNL     1       4.387  -3.877  -4.886  0.00  0.00    -0.083 Cl
ENDBRANCH   5   8
BRANCH   4  15
ATOM     15  N   UNL     1       9.665  -4.681  -1.669  0.00  0.00    +0.401 N 
ATOM     16  C   UNL     1      10.342  -5.924  -1.217  0.00  0.00    -0.074 C 
ATOM     17  C   UNL     1      11.169  -6.348  -2.457  0.00  0.00    -0.020 C 
ATOM     18  C   UNL     1      10.237  -5.986  -3.635  0.00  0.00    -0.020 C 
ATOM     19  C   UNL     1       9.274  -4.923  -3.074  0.00  0.00    -0.074 C 
ATOM     20  H   UNL     1      10.300  -3.899  -1.615  0.00  0.00    -0.077 HD
ENDBRANCH   4  15
BRANCH   1  21
ATOM     21  S   UNL     1       6.404  -1.290   0.122  0.00  0.00    -0.114 S 
BRANCH  21  22
ATOM     22  C   UNL     1       5.064  -2.513   0.135  0.00  0.00    +0.146 C 
BRANCH  22  33
ATOM     23  C   UNL     1       0.175   1.579   0.577  0.00  0.00    +0.001 A 
ATOM     24  C   UNL     1       1.381   2.268   0.548  0.00  0.00    +0.002 A 
ATOM     25  C   UNL     1       2.577   1.593   0.455  0.00  0.00    +0.028 A 
ATOM     26  C   UNL     1       2.580   0.198   0.390  0.00  0.00    +0.078 A 
ATOM     27  C   UNL     1       1.353  -0.499   0.421  0.00  0.00    +0.065 A 
ATOM     28  C   UNL     1       0.153   0.203   0.514  0.00  0.00    +0.015 A 
ATOM     29  C   UNL     1       1.390  -1.968   0.350  0.00  0.00    +0.259 A 
ATOM     30  O   UNL     1       0.368  -2.628   0.371  0.00  0.00    -0.267 OA
ATOM     31  N   UNL     1       2.606  -2.556   0.260  0.00  0.00    -0.310 N 
ATOM     32  H   UNL     1       2.670  -3.523   0.212  0.00  0.00    +0.170 HD
ATOM     33  C   UNL     1       3.738  -1.805   0.236  0.00  0.00    +0.120 A 
ATOM     34  N   UNL     1       3.736  -0.508   0.298  0.00  0.00    -0.233 NA
ENDBRANCH  22  33
ENDBRANCH  21  22
ENDBRANCH   1  21
TORSDOF 5
