REMARK  Name = ZINC39838313
REMARK  10 active torsions:
REMARK  status: ('A' for Active; 'I' for Inactive)
REMARK    1  A    between atoms: C_1  and  C_2
REMARK    2  A    between atoms: C_2  and  C_3
REMARK    3  A    between atoms: C_3  and  C_4
REMARK    4  A    between atoms: C_10  and  C_26
REMARK    5  A    between atoms: C_30  and  O_32
REMARK    6  A    between atoms: O_32  and  C_33
REMARK    7  A    between atoms: C_33  and  C_34
REMARK    8  A    between atoms: C_34  and  C_35
REMARK    9  A    between atoms: C_35  and  C_36
REMARK   10  A    between atoms: C_35  and  C_37
REMARK                            x       y       z     vdW  Elec       q    Type
REMARK                         _______ _______ _______ _____ _____    ______ ____
ROOT
ATOM      1  C   UNL     1       0.739  -2.004  -1.265  0.00  0.00    +0.104 A 
ATOM      2  N   UNL     1      -0.127  -2.861  -1.772  0.00  0.00    -0.145 NA
ATOM      3  N   UNL     1       0.039  -4.109  -1.694  0.00  0.00    -0.125 NA
ATOM      4  C   UNL     1       1.098  -4.637  -1.095  0.00  0.00    +0.191 A 
ATOM      5  S   UNL     1       1.949  -3.142  -0.597  0.00  0.00    -0.035 S 
ATOM      6  N   UNL     1       1.450  -5.968  -0.912  0.00  0.00    -0.230 N 
ATOM      7  C   UNL     1       0.682  -7.136  -1.375  0.00  0.00    +0.152 C 
ATOM      8  C   UNL     1       1.462  -8.334  -0.939  0.00  0.00    +0.072 A 
ATOM      9  C   UNL     1       1.201  -9.767  -1.099  0.00  0.00    +0.199 A 
ATOM     10  O   UNL     1       0.317 -10.209  -1.812  0.00  0.00    -0.287 OA
ATOM     11  C   UNL     1       2.117 -10.630  -0.311  0.00  0.00    +0.066 A 
ATOM     12  C   UNL     1       1.875 -11.999  -0.200  0.00  0.00    +0.035 A 
ATOM     13  C   UNL     1       2.733 -12.784   0.540  0.00  0.00    +0.042 A 
ATOM     14  C   UNL     1       3.831 -12.212   1.170  0.00  0.00    +0.023 A 
ATOM     15  C   UNL     1       4.080 -10.862   1.065  0.00  0.00    +0.048 A 
ATOM     16  C   UNL     1       3.228 -10.047   0.320  0.00  0.00    +0.140 A 
ATOM     17  O   UNL     1       3.502  -8.726   0.225  0.00  0.00    -0.450 OA
ATOM     18  C   UNL     1       2.579  -7.889  -0.289  0.00  0.00    +0.199 A 
ATOM     19  C   UNL     1       2.556  -6.417  -0.285  0.00  0.00    +0.289 C 
ATOM     20  O   UNL     1       3.409  -5.709   0.213  0.00  0.00    -0.266 OA
ATOM     21 CL   UNL     1       2.441 -14.489   0.685  0.00  0.00    -0.084 Cl
ENDROOT
BRANCH   7  22
ATOM     22  C   UNL     1      -0.685  -7.145  -0.740  0.00  0.00    -0.019 A 
ATOM     23  C   UNL     1      -0.837  -6.754   0.578  0.00  0.00    +0.006 A 
ATOM     24  C   UNL     1      -2.090  -6.761   1.162  0.00  0.00    +0.004 A 
ATOM     25  C   UNL     1      -3.193  -7.158   0.431  0.00  0.00    +0.045 A 
ATOM     26  C   UNL     1      -3.042  -7.551  -0.891  0.00  0.00    +0.121 A 
ATOM     27  C   UNL     1      -1.785  -7.537  -1.477  0.00  0.00    +0.051 A 
BRANCH  26  28
ATOM     28  O   UNL     1      -4.126  -7.942  -1.612  0.00  0.00    -0.492 OA
BRANCH  28  29
ATOM     29  C   UNL     1      -5.390  -7.925  -0.945  0.00  0.00    +0.229 C 
BRANCH  29  30
ATOM     30  C   UNL     1      -6.481  -8.395  -1.909  0.00  0.00    +0.044 C 
BRANCH  30  31
ATOM     31  C   UNL     1      -7.834  -8.376  -1.195  0.00  0.00    -0.014 C 
ATOM     32  C   UNL     1      -8.203  -6.935  -0.837  0.00  0.00    +0.007 C 
ATOM     33  C   UNL     1      -8.905  -8.962  -2.118  0.00  0.00    +0.007 C 
ENDBRANCH  30  31
ENDBRANCH  29  30
ENDBRANCH  28  29
ENDBRANCH  26  28
ENDBRANCH   7  22
BRANCH   1  34
ATOM     34  C   UNL     1       0.718  -0.497  -1.257  0.00  0.00    +0.064 C 
BRANCH  34  36
ATOM     35  C   UNL     1      -0.019   1.526   0.010  0.00  0.00    +0.004 C 
ATOM     36  C   UNL     1       0.002  -0.004   0.002  0.00  0.00    +0.003 C 
ENDBRANCH  34  36
ENDBRANCH   1  34
TORSDOF 7
