REMARK  Name = ZINC08753159
REMARK  10 active torsions:
REMARK  status: ('A' for Active; 'I' for Inactive)
REMARK    1  A    between atoms: C_1  and  C_2
REMARK    2  A    between atoms: C_2  and  O_3
REMARK    3  A    between atoms: O_3  and  C_4
REMARK    4  A    between atoms: C_6  and  C_19
REMARK    5  A    between atoms: C_9  and  O_10
REMARK    6  A    between atoms: O_10  and  C_11
REMARK    7  A    between atoms: C_11  and  C_12
REMARK    8  A    between atoms: C_24  and  C_41
REMARK    9  A    between atoms: C_36  and  C_38
REMARK   10  A    between atoms: C_44  and  C_47
REMARK                            x       y       z     vdW  Elec       q    Type
REMARK                         _______ _______ _______ _____ _____    ______ ____
ROOT
ATOM      1  C   UNL     1      -2.607   2.322   2.559  0.00  0.00    +0.127 C 
ATOM      2  C   UNL     1      -2.222   1.842   1.200  0.00  0.00    +0.125 C 
ATOM      3  C   UNL     1      -0.911   1.581   0.994  0.00  0.00    +0.145 C 
ATOM      4  C   UNL     1      -0.375   1.103  -0.322  0.00  0.00    +0.083 C 
ATOM      5  C   UNL     1      -1.279   1.619  -1.446  0.00  0.00    +0.032 C 
ATOM      6  C   UNL     1      -2.701   1.132  -1.171  0.00  0.00    +0.060 C 
ATOM      7  C   UNL     1      -3.175   1.672   0.170  0.00  0.00    +0.032 C 
ATOM      8  N   UNL     1      -4.442   1.856   0.274  0.00  0.00    -0.254 NA
ATOM      9  C   UNL     1      -5.267   2.513   1.097  0.00  0.00    +0.085 A 
ATOM     10  C   UNL     1      -6.376   3.197   0.582  0.00  0.00    +0.029 A 
ATOM     11  C   UNL     1      -7.252   3.846   1.423  0.00  0.00    +0.002 A 
ATOM     12  C   UNL     1      -7.054   3.833   2.793  0.00  0.00    +0.002 A 
ATOM     13  C   UNL     1      -5.959   3.177   3.326  0.00  0.00    +0.025 A 
ATOM     14  C   UNL     1      -5.062   2.536   2.497  0.00  0.00    +0.062 A 
ATOM     15  N   UNL     1      -3.924   1.915   2.981  0.00  0.00    -0.261 N 
ATOM     16  C   UNL     1      -4.049   0.907   3.867  0.00  0.00    +0.223 C 
ATOM     17  O   UNL     1      -3.061   0.353   4.300  0.00  0.00    -0.275 OA
ATOM     18  O   UNL     1      -0.047   1.759   2.017  0.00  0.00    -0.297 OA
ENDROOT
BRANCH   5  19
ATOM     19  C   UNL     1      -0.803   1.078  -2.770  0.00  0.00    -0.044 A 
ATOM     20  C   UNL     1      -0.751  -0.287  -2.981  0.00  0.00    +0.004 A 
ATOM     21  C   UNL     1      -0.319  -0.782  -4.197  0.00  0.00    +0.003 A 
ATOM     22  C   UNL     1       0.071   0.088  -5.199  0.00  0.00    -0.050 A 
ATOM     23  C   UNL     1       0.024   1.453  -4.986  0.00  0.00    +0.003 A 
ATOM     24  C   UNL     1      -0.412   1.948  -3.771  0.00  0.00    +0.004 A 
ATOM     25  C   UNL     1       0.546  -0.453  -6.523  0.00  0.00    +0.044 C 
ENDBRANCH   5  19
BRANCH   1  28
ATOM     26  C   UNL     1      -2.958   5.914   3.678  0.00  0.00    +0.162 A 
ATOM     27  C   UNL     1      -3.015   4.529   3.665  0.00  0.00    +0.055 A 
ATOM     28  C   UNL     1      -2.546   3.828   2.570  0.00  0.00    -0.022 A 
ATOM     29  C   UNL     1      -2.015   4.505   1.488  0.00  0.00    +0.009 A 
ATOM     30  C   UNL     1      -1.961   5.886   1.491  0.00  0.00    +0.050 A 
ATOM     31  C   UNL     1      -2.429   6.595   2.586  0.00  0.00    +0.162 A 
BRANCH  26  32
ATOM     32  O   UNL     1      -3.419   6.605   4.754  0.00  0.00    -0.489 OA
BRANCH  32  34
ATOM     33  C   UNL     1      -4.413   6.783   6.950  0.00  0.00    +0.048 C 
ATOM     34  C   UNL     1      -3.948   5.840   5.839  0.00  0.00    +0.226 C 
ENDBRANCH  32  34
ENDBRANCH  26  32
BRANCH  31  35
ATOM     35  O   UNL     1      -2.372   7.954   2.593  0.00  0.00    -0.484 OA
BRANCH  35  36
ATOM     36  C   UNL     1      -1.817   8.586   1.438  0.00  0.00    +0.264 C 
BRANCH  36  37
ATOM     37  C   UNL     1      -1.836  10.081   1.625  0.00  0.00    -0.010 A 
ATOM     38  C   UNL     1      -2.931  10.815   1.208  0.00  0.00    +0.008 A 
ATOM     39  C   UNL     1      -2.951  12.186   1.385  0.00  0.00    +0.020 A 
ATOM     40  C   UNL     1      -1.872  12.824   1.969  0.00  0.00    +0.041 A 
ATOM     41  C   UNL     1      -0.774  12.089   2.380  0.00  0.00    +0.020 A 
ATOM     42  C   UNL     1      -0.757  10.718   2.208  0.00  0.00    +0.008 A 
ATOM     43 CL   UNL     1      -1.894  14.547   2.185  0.00  0.00    -0.084 Cl
ENDBRANCH  36  37
ENDBRANCH  35  36
ENDBRANCH  31  35
ENDBRANCH   1  28
BRANCH  16  44
ATOM     44  C   UNL     1      -5.418   0.468   4.320  0.00  0.00    +0.076 C 
ATOM     45  C   UNL     1      -5.805   0.749   5.774  0.00  0.00    +0.013 C 
ATOM     46  C   UNL     1      -5.494  -0.681   5.327  0.00  0.00    +0.013 C 
ENDBRANCH  16  44
TORSDOF 8
