REMARK  Name = ZINC28159717
REMARK  7 active torsions:
REMARK  status: ('A' for Active; 'I' for Inactive)
REMARK    1  A    between atoms: C_3  and  C_6
REMARK    2  A    between atoms: C_9  and  C_28
REMARK    3  A    between atoms: C_16  and  C_19
REMARK    4  A    between atoms: C_19  and  C_20
REMARK    5  A    between atoms: N_22  and  C_23
REMARK    6  A    between atoms: C_23  and  C_24
REMARK    7  A    between atoms: C_24  and  C_25
REMARK                            x       y       z     vdW  Elec       q    Type
REMARK                         _______ _______ _______ _____ _____    ______ ____
ROOT
ATOM      1  C   UNL     1      -3.646   2.657   0.034  0.00  0.00    +0.142 C 
ATOM      2  C   UNL     1      -2.668   1.465   0.017  0.00  0.00    +0.087 C 
ATOM      3  C   UNL     1      -1.302   2.115   0.020  0.00  0.00    +0.069 C 
ATOM      4  N   UNL     1      -1.435   3.396   0.027  0.00  0.00    -0.182 NA
ATOM      5  N   UNL     1      -2.759   3.831   0.036  0.00  0.00    -0.195 N 
ATOM      6  C   UNL     1      -3.167   5.134   0.044  0.00  0.00    +0.170 C 
ATOM      7  N   UNL     1      -4.407   5.604   0.046  0.00  0.00    -0.157 NA
ATOM      8  C   UNL     1      -4.714   6.872   0.060  0.00  0.00    +0.252 C 
ATOM      9  O   UNL     1      -5.865   7.263   0.068  0.00  0.00    -0.272 OA
ATOM     10  C   UNL     1      -3.528   7.830   0.060  0.00  0.00    +0.150 C 
ATOM     11  S   UNL     1      -2.155   6.607   0.047  0.00  0.00    -0.078 S 
ENDROOT
BRANCH   3  12
ATOM     12  C   UNL     1      -0.017   1.393   0.010  0.00  0.00    +0.002 A 
ATOM     13  C   UNL     1       0.002  -0.004   0.002  0.00  0.00    +0.013 A 
ATOM     14  C   UNL     1       1.205  -0.677  -0.013  0.00  0.00    +0.050 A 
ATOM     15  C   UNL     1       2.400   0.029  -0.021  0.00  0.00    +0.166 A 
ATOM     16  C   UNL     1       2.389   1.423  -0.014  0.00  0.00    +0.167 A 
ATOM     17  C   UNL     1       1.186   2.104   0.002  0.00  0.00    +0.059 A 
ATOM     18  O   UNL     1       3.679   1.870  -0.025  0.00  0.00    -0.453 OA
ATOM     19  C   UNL     1       4.479   0.742   0.374  0.00  0.00    +0.466 C 
ATOM     20  O   UNL     1       3.698  -0.396  -0.037  0.00  0.00    -0.453 OA
ENDBRANCH   3  12
BRANCH   1  23
ATOM     21  C   UNL     1      -6.377   2.329   2.669  0.00  0.00    +0.008 A 
ATOM     22  C   UNL     1      -5.795   2.271   1.416  0.00  0.00    +0.013 A 
ATOM     23  C   UNL     1      -4.497   2.633   1.278  0.00  0.00    +0.012 A 
ATOM     24  S   UNL     1      -4.053   3.067   2.952  0.00  0.00    -0.100 S 
ATOM     25  C   UNL     1      -5.632   2.745   3.721  0.00  0.00    +0.045 A 
ENDBRANCH   1  23
BRANCH  10  26
ATOM     26  C   UNL     1      -3.502   8.687   1.327  0.00  0.00    +0.119 C 
BRANCH  26  27
ATOM     27  C   UNL     1      -2.269   9.553   1.322  0.00  0.00    +0.215 C 
ATOM     28  O   UNL     1      -1.488   9.491   0.396  0.00  0.00    -0.276 OA
ATOM     29  N   UNL     1      -2.034  10.396   2.346  0.00  0.00    -0.315 N 
ATOM     30  H   UNL     1      -2.742  10.452   3.186  0.00  0.00    +0.149 HD
BRANCH  29  31
ATOM     31  C   UNL     1      -0.835  11.239   2.341  0.00  0.00    +0.115 C 
BRANCH  31  32
ATOM     32  C   UNL     1      -0.808  12.095   3.609  0.00  0.00    +0.144 C 
BRANCH  32  33
ATOM     33  C   UNL     1       0.425  12.962   3.604  0.00  0.00    +0.357 C 
ATOM     34  O   UNL     1       1.202  12.900   2.681  0.00  0.00    -0.246 OA
ATOM     35  O   UNL     1       0.659  13.802   4.624  0.00  0.00    -0.246 OA
ENDBRANCH  32  33
ENDBRANCH  31  32
ENDBRANCH  29  31
ENDBRANCH  26  27
ENDBRANCH  10  26
TORSDOF 7
