REMARK  Name = ZINC32862344
REMARK  6 active torsions:
REMARK  status: ('A' for Active; 'I' for Inactive)
REMARK    1  A    between atoms: C_1  and  C_2
REMARK    2  A    between atoms: C_2  and  C_3
REMARK    3  A    between atoms: C_2  and  C_4
REMARK    4  A    between atoms: C_4  and  C_6
REMARK    5  A    between atoms: C_4  and  N_11
REMARK    6  A    between atoms: N_14  and  C_15
REMARK                            x       y       z     vdW  Elec       q    Type
REMARK                         _______ _______ _______ _____ _____    ______ ____
ROOT
ATOM      1  N   UNL     1       1.357   2.007   0.005  0.00  0.00    -0.292 N 
ATOM      2  C   UNL     1       1.627   3.233   0.495  0.00  0.00    +0.304 C 
ATOM      3  O   UNL     1       0.729   3.919   0.945  0.00  0.00    -0.252 OA
ATOM      4  N   UNL     1       2.891   3.699   0.488  0.00  0.00    -0.269 N 
ATOM      5  H   UNL     1       2.169   1.387  -0.402  0.00  0.00    +0.151 HD
ATOM      6  H   UNL     1       3.714   3.051   0.152  0.00  0.00    +0.156 HD
ENDROOT
BRANCH   4   7
ATOM      7  C   UNL     1       3.158   5.010   0.907  0.00  0.00    +0.038 A 
ATOM      8  C   UNL     1       4.165   5.743   0.294  0.00  0.00    +0.027 A 
ATOM      9  C   UNL     1       4.426   7.037   0.704  0.00  0.00    +0.051 A 
ATOM     10  C   UNL     1       3.690   7.602   1.733  0.00  0.00    +0.166 A 
ATOM     11  C   UNL     1       2.683   6.867   2.353  0.00  0.00    +0.168 A 
ATOM     12  C   UNL     1       2.419   5.572   1.939  0.00  0.00    +0.073 A 
ATOM     13  O   UNL     1       2.114   7.638   3.325  0.00  0.00    -0.453 OA
ATOM     14  C   UNL     1       3.052   8.704   3.568  0.00  0.00    +0.466 C 
ATOM     15  O   UNL     1       3.751   8.836   2.317  0.00  0.00    -0.453 OA
ENDBRANCH   4   7
BRANCH   1  16
ATOM     16  C   UNL     1      -0.018   1.501   0.014  0.00  0.00    +0.114 C 
BRANCH  16  17
ATOM     17  C   UNL     1       0.002  -0.006   0.015  0.00  0.00    +0.010 A 
ATOM     18  C   UNL     1      -0.786  -0.869   0.702  0.00  0.00    +0.013 A 
ATOM     19  C   UNL     1      -0.588  -2.228   0.544  0.00  0.00    +0.008 A 
ATOM     20  C   UNL     1       0.396  -2.657  -0.285  0.00  0.00    +0.045 A 
ATOM     21  S   UNL     1       1.075  -1.117  -0.880  0.00  0.00    -0.100 S 
ENDBRANCH  16  17
BRANCH  16  23
ATOM     22  C   UNL     1      -0.773   3.530  -1.234  0.00  0.00    +0.009 C 
ATOM     23  C   UNL     1      -0.752   2.000  -1.232  0.00  0.00    +0.008 C 
ATOM     24  C   UNL     1      -0.032   1.498  -2.485  0.00  0.00    +0.009 C 
ENDBRANCH  16  23
ENDBRANCH   1  16
TORSDOF 4
