REMARK  Name = ZINC01438542
REMARK  8 active torsions:
REMARK  status: ('A' for Active; 'I' for Inactive)
REMARK    1  A    between atoms: C_1  and  C_2
REMARK    2  A    between atoms: C_3  and  C_29
REMARK    3  A    between atoms: C_4  and  C_20
REMARK    4  A    between atoms: C_10  and  C_15
REMARK    5  A    between atoms: C_29  and  O_31
REMARK    6  A    between atoms: O_31  and  C_32
REMARK    7  A    between atoms: C_32  and  C_33
REMARK    8  A    between atoms: C_33  and  C_34
REMARK                            x       y       z     vdW  Elec       q    Type
REMARK                         _______ _______ _______ _____ _____    ______ ____
ROOT
ATOM      1  C   UNL     1      -1.743  -0.233  -4.212  0.00  0.00    +0.061 C 
ATOM      2  C   UNL     1      -1.576   0.933  -3.272  0.00  0.00    +0.016 C 
ATOM      3  C   UNL     1      -2.303   2.048  -3.456  0.00  0.00    +0.065 C 
ATOM      4  C   UNL     1      -2.159   3.231  -2.545  0.00  0.00    +0.092 C 
ATOM      5  C   UNL     1      -1.486   2.840  -1.253  0.00  0.00    +0.024 C 
ATOM      6  C   UNL     1      -0.786   1.690  -1.161  0.00  0.00    +0.016 C 
ATOM      7  N   UNL     1      -0.687   0.849  -2.237  0.00  0.00    -0.321 N 
ATOM      8  C   UNL     1      -0.100   1.298   0.124  0.00  0.00    +0.060 C 
ATOM      9  C   UNL     1      -0.887   1.849   1.315  0.00  0.00    +0.039 C 
ATOM     10  C   UNL     1      -0.979   3.372   1.174  0.00  0.00    +0.088 C 
ATOM     11  C   UNL     1      -1.610   3.704  -0.150  0.00  0.00    +0.162 C 
ATOM     12  O   UNL     1      -2.238   4.737  -0.270  0.00  0.00    -0.292 OA
ATOM     13  H   UNL     1       0.119   0.100  -2.264  0.00  0.00    +0.152 HD
ENDROOT
BRANCH   4  14
ATOM     14  C   UNL     1      -1.333   4.288  -3.232  0.00  0.00    -0.032 A 
ATOM     15  C   UNL     1      -0.029   4.014  -3.599  0.00  0.00    +0.008 A 
ATOM     16  C   UNL     1       0.732   4.980  -4.231  0.00  0.00    +0.050 A 
ATOM     17  C   UNL     1       0.189   6.226  -4.498  0.00  0.00    +0.166 A 
ATOM     18  C   UNL     1      -1.125   6.502  -4.128  0.00  0.00    +0.167 A 
ATOM     19  C   UNL     1      -1.884   5.527  -3.501  0.00  0.00    +0.054 A 
ATOM     20  O   UNL     1      -1.422   7.782  -4.497  0.00  0.00    -0.453 OA
ATOM     21  C   UNL     1      -0.152   8.421  -4.725  0.00  0.00    +0.466 C 
ATOM     22  O   UNL     1       0.715   7.333  -5.097  0.00  0.00    -0.453 OA
ENDBRANCH   4  14
BRANCH   9  23
ATOM     23  C   UNL     1      -0.176   1.501   2.597  0.00  0.00    -0.006 A 
ATOM     24  C   UNL     1      -0.621   0.774   3.650  0.00  0.00    +0.011 A 
ATOM     25  C   UNL     1       0.217   0.578   4.732  0.00  0.00    +0.008 A 
ATOM     26  C   UNL     1       1.455   1.128   4.712  0.00  0.00    +0.045 A 
ATOM     27  S   UNL     1       1.470   1.947   3.126  0.00  0.00    -0.101 S 
ENDBRANCH   9  23
BRANCH   3  28
ATOM     28  C   UNL     1      -3.223   2.108  -4.529  0.00  0.00    +0.338 C 
ATOM     29  O   UNL     1      -3.274   1.199  -5.338  0.00  0.00    -0.245 OA
BRANCH  28  30
ATOM     30  O   UNL     1      -4.043   3.172  -4.657  0.00  0.00    -0.461 OA
BRANCH  30  31
ATOM     31  C   UNL     1      -4.946   3.165  -5.765  0.00  0.00    +0.237 C 
BRANCH  31  32
ATOM     32  C   UNL     1      -5.788   4.443  -5.744  0.00  0.00    +0.076 C 
BRANCH  32  33
ATOM     33  C   UNL     1      -6.740   4.436  -6.912  0.00  0.00    -0.044 A 
ATOM     34  C   UNL     1      -6.357   4.990  -8.119  0.00  0.00    +0.004 A 
ATOM     35  C   UNL     1      -7.229   4.981  -9.192  0.00  0.00    +0.000 A 
ATOM     36  C   UNL     1      -8.487   4.424  -9.055  0.00  0.00    +0.000 A 
ATOM     37  C   UNL     1      -8.872   3.874  -7.846  0.00  0.00    +0.000 A 
ATOM     38  C   UNL     1      -7.998   3.880  -6.775  0.00  0.00    +0.004 A 
ENDBRANCH  32  33
ENDBRANCH  31  32
ENDBRANCH  30  31
ENDBRANCH  28  30
ENDBRANCH   3  28
TORSDOF 7
