REMARK  Name = ZINC36313855
REMARK  15 active torsions:
REMARK  status: ('A' for Active; 'I' for Inactive)
REMARK    1  A    between atoms: C_1  and  C_2
REMARK    2  A    between atoms: C_2  and  C_3
REMARK    3  A    between atoms: C_3  and  C_4
REMARK    4  A    between atoms: C_4  and  C_5
REMARK    5  A    between atoms: C_5  and  C_7
REMARK    6  A    between atoms: C_5  and  O_34
REMARK    7  A    between atoms: C_7  and  N_8
REMARK    8  A    between atoms: N_8  and  C_9
REMARK    9  A    between atoms: N_8  and  C_30
REMARK   10  A    between atoms: C_9  and  C_10
REMARK   11  A    between atoms: C_11  and  C_29
REMARK   12  A    between atoms: N_13  and  C_22
REMARK   13  A    between atoms: C_14  and  O_15
REMARK   14  A    between atoms: O_15  and  C_16
REMARK   15  A    between atoms: C_30  and  C_31
REMARK                            x       y       z     vdW  Elec       q    Type
REMARK                         _______ _______ _______ _____ _____    ______ ____
ROOT
ATOM      1  C   UNL     1       2.947  -6.166   5.577  0.00  0.00    +0.021 A 
ATOM      2  C   UNL     1       4.269  -6.446   5.936  0.00  0.00    +0.065 A 
ATOM      3  N   UNL     1       4.376  -6.344   7.236  0.00  0.00    -0.168 NA
ATOM      4  N   UNL     1       3.124  -5.995   7.756  0.00  0.00    -0.200 N 
ATOM      5  C   UNL     1       2.257  -5.885   6.715  0.00  0.00    +0.225 A 
ATOM      6  C   UNL     1       5.382  -6.805   4.985  0.00  0.00    +0.068 C 
ENDROOT
BRANCH   4   7
ATOM      7  C   UNL     1       2.820  -5.790   9.109  0.00  0.00    +0.070 A 
ATOM      8  C   UNL     1       1.982  -4.747   9.484  0.00  0.00    +0.028 A 
ATOM      9  C   UNL     1       1.684  -4.547  10.817  0.00  0.00    +0.003 A 
ATOM     10  C   UNL     1       2.218  -5.383  11.780  0.00  0.00    +0.020 A 
ATOM     11  C   UNL     1       3.054  -6.423  11.411  0.00  0.00    +0.043 A 
ATOM     12  C   UNL     1       3.351  -6.631  10.077  0.00  0.00    +0.048 A 
ATOM     13 CL   UNL     1       3.723  -7.471  12.623  0.00  0.00    -0.083 Cl
ENDBRANCH   4   7
BRANCH   1  14
ATOM     14  C   UNL     1       2.388  -6.169   4.178  0.00  0.00    -0.036 C 
BRANCH  14  15
ATOM     15  N   UNL     1       2.532  -4.830   3.590  0.00  0.00    +0.384 N 
ATOM     16  H   UNL     1       2.099  -4.149   4.195  0.00  0.00    -0.081 HD
BRANCH  15  17
ATOM     17  C   UNL     1       1.881  -4.801   2.274  0.00  0.00    -0.047 C 
BRANCH  17  18
ATOM     18  C   UNL     1       0.372  -4.986   2.447  0.00  0.00    +0.098 C 
BRANCH  18  19
ATOM     19  O   UNL     1      -0.148  -3.927   3.253  0.00  0.00    -0.394 OA
ATOM     20  H   UNL     1      -0.077  -3.052   2.847  0.00  0.00    +0.210 HD
ENDBRANCH  18  19
BRANCH  18  21
ATOM     21  C   UNL     1      -0.306  -4.963   1.075  0.00  0.00    +0.029 C 
BRANCH  21  22
ATOM     22  C   UNL     1      -1.796  -5.271   1.237  0.00  0.00    +0.002 C 
BRANCH  22  24
ATOM     23  C   UNL     1      -3.963  -5.557   0.028  0.00  0.00    +0.004 C 
ATOM     24  C   UNL     1      -2.473  -5.248  -0.134  0.00  0.00    -0.003 C 
ENDBRANCH  22  24
ENDBRANCH  21  22
ENDBRANCH  18  21
ENDBRANCH  17  18
ENDBRANCH  15  17
BRANCH  15  25
ATOM     25  C   UNL     1       3.958  -4.514   3.438  0.00  0.00    -0.075 C 
BRANCH  25  26
ATOM     26  C   UNL     1       4.111  -3.079   2.930  0.00  0.00    -0.028 C 
ATOM     27  C   UNL     1       4.729  -2.882   1.544  0.00  0.00    +0.002 C 
ATOM     28  C   UNL     1       5.530  -2.523   2.797  0.00  0.00    +0.002 C 
ENDBRANCH  25  26
ENDBRANCH  15  25
ENDBRANCH  14  15
ENDBRANCH   1  14
BRANCH   5  29
ATOM     29  O   UNL     1       0.942  -5.556   6.795  0.00  0.00    -0.438 OA
BRANCH  29  30
ATOM     30  C   UNL     1       0.050  -6.552   7.037  0.00  0.00    +0.130 A 
ATOM     31  C   UNL     1       0.498  -7.837   7.306  0.00  0.00    +0.046 A 
ATOM     32  C   UNL     1      -0.411  -8.848   7.552  0.00  0.00    +0.004 A 
ATOM     33  C   UNL     1      -1.767  -8.579   7.530  0.00  0.00    +0.000 A 
ATOM     34  C   UNL     1      -2.217  -7.299   7.262  0.00  0.00    +0.004 A 
ATOM     35  C   UNL     1      -1.312  -6.284   7.022  0.00  0.00    +0.046 A 
ENDBRANCH  29  30
ENDBRANCH   5  29
TORSDOF 13
