REMARK  Name = ZINC43230356
REMARK  11 active torsions:
REMARK  status: ('A' for Active; 'I' for Inactive)
REMARK    1  A    between atoms: C_1  and  C_2
REMARK    2  A    between atoms: C_2  and  N_3
REMARK    3  A    between atoms: N_3  and  C_4
REMARK    4  A    between atoms: N_3  and  C_6
REMARK    5  A    between atoms: C_4  and  C_5
REMARK    6  A    between atoms: C_6  and  C_8
REMARK    7  A    between atoms: C_6  and  C_22
REMARK    8  A    between atoms: C_8  and  N_9
REMARK    9  A    between atoms: N_12  and  N_13
REMARK   10  A    between atoms: N_13  and  C_14
REMARK   11  A    between atoms: C_14  and  C_21
REMARK                            x       y       z     vdW  Elec       q    Type
REMARK                         _______ _______ _______ _____ _____    ______ ____
ROOT
ATOM      1  N   UNL     1       0.210  -2.385  -1.905  0.00  0.00    -0.300 N 
ATOM      2  C   UNL     1       0.703  -3.430  -1.210  0.00  0.00    +0.313 C 
ATOM      3  O   UNL     1       1.623  -3.263  -0.433  0.00  0.00    -0.252 OA
ATOM      4  N   UNL     1       0.177  -4.659  -1.378  0.00  0.00    -0.234 N 
ATOM      5  H   UNL     1      -0.570  -2.503  -2.470  0.00  0.00    +0.150 HD
ATOM      6  H   UNL     1       0.482  -5.397  -0.827  0.00  0.00    +0.171 HD
ENDROOT
BRANCH   4   7
ATOM      7  N   UNL     1      -0.786  -4.866  -2.325  0.00  0.00    -0.232 NA
ATOM      8  H   UNL     1      -1.537  -4.199  -2.229  0.00  0.00    +0.145 HD
BRANCH   7   9
ATOM      9  C   UNL     1      -1.295  -6.243  -2.265  0.00  0.00    +0.054 C 
ATOM     10  C   UNL     1      -0.119  -7.207  -2.415  0.00  0.00    +0.047 C 
ATOM     11  C   UNL     1      -0.594  -8.542  -3.053  0.00  0.00    +0.168 C 
ATOM     12  S   UNL     1      -1.784  -7.881  -4.300  0.00  0.00    -0.029 S 
ATOM     13  O   UNL     1      -2.856  -8.801  -4.456  0.00  0.00    -0.174 OA
ATOM     14  O   UNL     1      -1.065  -7.439  -5.444  0.00  0.00    -0.174 OA
ATOM     15  C   UNL     1      -2.374  -6.418  -3.351  0.00  0.00    +0.189 C 
ATOM     16  C   UNL     1      -1.937  -6.468  -0.895  0.00  0.00    +0.031 C 
ENDBRANCH   7   9
ENDBRANCH   4   7
BRANCH   1  17
ATOM     17  C   UNL     1       0.851  -1.072  -1.805  0.00  0.00    +0.095 C 
BRANCH  17  18
ATOM     18  C   UNL     1       0.020  -0.039  -2.570  0.00  0.00    -0.020 C 
BRANCH  18  19
ATOM     19  C   UNL     1       0.611   1.332  -2.367  0.00  0.00    -0.059 A 
ATOM     20  C   UNL     1       1.938   1.465  -2.003  0.00  0.00    +0.002 A 
ATOM     21  C   UNL     1       2.481   2.723  -1.817  0.00  0.00    +0.000 A 
ATOM     22  C   UNL     1       1.696   3.847  -1.995  0.00  0.00    +0.000 A 
ATOM     23  C   UNL     1       0.370   3.714  -2.360  0.00  0.00    +0.000 A 
ATOM     24  C   UNL     1      -0.172   2.456  -2.551  0.00  0.00    +0.002 A 
ENDBRANCH  18  19
BRANCH  18  25
ATOM     25  N   UNL     1      -1.362  -0.056  -2.070  0.00  0.00    +0.385 N 
ATOM     26  H   UNL     1      -1.605  -0.992  -1.784  0.00  0.00    -0.081 HD
BRANCH  25  28
ATOM     27  C   UNL     1      -0.471   0.444   0.156  0.00  0.00    -0.017 C 
ATOM     28  C   UNL     1      -1.477   0.853  -0.921  0.00  0.00    -0.081 C 
ENDBRANCH  25  28
BRANCH  25  29
ATOM     29  C   UNL     1      -2.273   0.383  -3.135  0.00  0.00    -0.081 C 
ATOM     30  C   UNL     1      -2.314  -0.675  -4.239  0.00  0.00    -0.017 C 
ENDBRANCH  25  29
ENDBRANCH  18  25
ENDBRANCH  17  18
ENDBRANCH   1  17
TORSDOF 8
