REMARK  Name = ZINC33621953
REMARK  8 active torsions:
REMARK  status: ('A' for Active; 'I' for Inactive)
REMARK    1  A    between atoms: C_1  and  O_2
REMARK    2  A    between atoms: O_2  and  C_3
REMARK    3  A    between atoms: C_8  and  C_9
REMARK    4  A    between atoms: C_12  and  C_15
REMARK    5  A    between atoms: C_15  and  N_16
REMARK    6  A    between atoms: N_16  and  C_17
REMARK    7  A    between atoms: C_17  and  C_18
REMARK    8  A    between atoms: N_28  and  C_29
REMARK                            x       y       z     vdW  Elec       q    Type
REMARK                         _______ _______ _______ _____ _____    ______ ____
ROOT
ATOM      1  N   UNL     1       6.809   5.670  -0.135  0.00  0.00    -0.278 N 
ATOM      2  C   UNL     1       6.581   6.759  -0.896  0.00  0.00    +0.303 C 
ATOM      3  O   UNL     1       5.830   6.689  -1.849  0.00  0.00    -0.253 OA
ATOM      4  N   UNL     1       7.185   7.927  -0.599  0.00  0.00    -0.294 N 
ATOM      5  H   UNL     1       7.926   7.972   0.213  0.00  0.00    +0.151 HD
ENDROOT
BRANCH   4   6
ATOM      6  C   UNL     1       6.856   9.136  -1.358  0.00  0.00    +0.037 C 
ATOM      7  C   UNL     1       5.364   9.443  -1.207  0.00  0.00    +0.029 C 
ATOM      8  C   UNL     1       5.020  10.705  -1.999  0.00  0.00    -0.008 C 
ATOM      9  C   UNL     1       5.840  11.882  -1.466  0.00  0.00    +0.007 C 
ATOM     10  C   UNL     1       7.331  11.575  -1.617  0.00  0.00    -0.008 C 
ATOM     11  C   UNL     1       7.675  10.312  -0.825  0.00  0.00    +0.029 C 
ATOM     12  C   UNL     1       7.659  11.354  -3.095  0.00  0.00    +0.007 C 
ATOM     13  C   UNL     1       6.839  10.178  -3.629  0.00  0.00    -0.008 C 
ATOM     14  C   UNL     1       5.348  10.484  -3.477  0.00  0.00    +0.007 C 
ATOM     15  C   UNL     1       7.183   8.915  -2.836  0.00  0.00    +0.029 C 
ENDBRANCH   4   6
BRANCH   1  16
ATOM     16  C   UNL     1       6.068   4.432  -0.388  0.00  0.00    +0.157 C 
BRANCH  16  20
ATOM     17  C   UNL     1       2.452   3.867  -0.129  0.00  0.00    +0.094 C 
ATOM     18  N   UNL     1       2.568   5.152  -0.203  0.00  0.00    -0.088 NA
ATOM     19  O   UNL     1       3.915   5.583  -0.184  0.00  0.00    -0.388 OA
ATOM     20  C   UNL     1       4.714   4.495   0.323  0.00  0.00    +0.227 C 
ATOM     21  C   UNL     1       3.842   3.269  -0.032  0.00  0.00    +0.108 C 
BRANCH  17  27
ATOM     22  C   UNL     1      -0.039   3.791  -0.222  0.00  0.00    +0.129 A 
ATOM     23  C   UNL     1      -1.224   3.073  -0.225  0.00  0.00    +0.046 A 
ATOM     24  C   UNL     1      -1.198   1.694  -0.145  0.00  0.00    +0.004 A 
ATOM     25  C   UNL     1       0.008   1.020  -0.050  0.00  0.00    +0.001 A 
ATOM     26  C   UNL     1       1.196   1.720  -0.046  0.00  0.00    +0.013 A 
ATOM     27  C   UNL     1       1.184   3.113  -0.133  0.00  0.00    +0.041 A 
BRANCH  22  29
ATOM     28  C   UNL     1      -1.346   5.768  -0.395  0.00  0.00    +0.277 C 
ATOM     29  O   UNL     1      -0.062   5.146  -0.306  0.00  0.00    -0.494 OA
ENDBRANCH  22  29
ENDBRANCH  17  27
ENDBRANCH  16  20
ENDBRANCH   1  16
BRANCH   1  30
ATOM     30  C   UNL     1       7.798   5.724   0.944  0.00  0.00    +0.147 C 
BRANCH  30  31
ATOM     31  C   UNL     1       7.107   6.050   2.243  0.00  0.00    +0.005 A 
ATOM     32  C   UNL     1       7.085   7.352   2.707  0.00  0.00    +0.011 A 
ATOM     33  C   UNL     1       6.447   7.652   3.895  0.00  0.00    +0.039 A 
ATOM     34  C   UNL     1       5.839   6.648   4.628  0.00  0.00    +0.126 A 
ATOM     35  C   UNL     1       5.865   5.343   4.168  0.00  0.00    +0.077 A 
ATOM     36  C   UNL     1       6.500   5.043   2.974  0.00  0.00    +0.131 A 
ATOM     37  F   UNL     1       6.526   3.770   2.524  0.00  0.00    -0.205 F 
ATOM     38  F   UNL     1       5.219   6.941   5.793  0.00  0.00    -0.205 F 
ENDBRANCH  30  31
ENDBRANCH   1  30
TORSDOF 7
