REMARK  Name = ZINC09404275
REMARK  5 active torsions:
REMARK  status: ('A' for Active; 'I' for Inactive)
REMARK    1  A    between atoms: C_1  and  C_2
REMARK    2  A    between atoms: C_5  and  S_8
REMARK    3  A    between atoms: S_8  and  N_11
REMARK    4  A    between atoms: C_12  and  C_23
REMARK    5  A    between atoms: C_15  and  C_17
REMARK                            x       y       z     vdW  Elec       q    Type
REMARK                         _______ _______ _______ _____ _____    ______ ____
ROOT
ATOM      1  N   UNL     1      -1.174   6.667  -0.807  0.00  0.00    -0.115 N 
ATOM      2  C   UNL     1      -0.082   6.158   0.037  0.00  0.00    +0.154 C 
ATOM      3  C   UNL     1      -0.434   6.687   1.442  0.00  0.00    +0.088 C 
ATOM      4  C   UNL     1      -1.719   7.455   1.229  0.00  0.00    +0.070 C 
ATOM      5  N   UNL     1      -2.055   7.398  -0.013  0.00  0.00    -0.167 NA
ENDROOT
BRANCH   2   6
ATOM      6  C   UNL     1      -0.061   4.651   0.028  0.00  0.00    -0.023 A 
ATOM      7  C   UNL     1       1.145   3.977   0.013  0.00  0.00    +0.006 A 
ATOM      8  C   UNL     1       1.165   2.595   0.005  0.00  0.00    +0.015 A 
ATOM      9  C   UNL     1      -0.024   1.887   0.012  0.00  0.00    +0.018 A 
ATOM     10  C   UNL     1      -1.231   2.562   0.022  0.00  0.00    +0.015 A 
ATOM     11  C   UNL     1      -1.249   3.944   0.036  0.00  0.00    +0.006 A 
ATOM     12 BR   UNL     1       0.002  -0.004   0.002  0.00  0.00    -0.050 Br
ENDBRANCH   2   6
BRANCH   4  13
ATOM     13  C   UNL     1      -2.473   8.162   2.282  0.00  0.00    -0.002 A 
ATOM     14  C   UNL     1      -2.014   8.150   3.601  0.00  0.00    +0.010 A 
ATOM     15  C   UNL     1      -2.721   8.817   4.580  0.00  0.00    +0.001 A 
ATOM     16  C   UNL     1      -3.888   9.487   4.260  0.00  0.00    +0.000 A 
ATOM     17  C   UNL     1      -4.352   9.499   2.956  0.00  0.00    +0.001 A 
ATOM     18  C   UNL     1      -3.652   8.841   1.966  0.00  0.00    +0.010 A 
ENDBRANCH   4  13
BRANCH   1  19
ATOM     19  S   UNL     1      -1.331   6.411  -2.436  0.00  0.00    +0.089 S 
ATOM     20  O   UNL     1      -2.031   7.532  -2.957  0.00  0.00    -0.149 OA
ATOM     21  O   UNL     1      -0.049   6.024  -2.912  0.00  0.00    -0.149 OA
BRANCH  19  26
ATOM     22  C   UNL     1      -4.949   1.635  -3.151  0.00  0.00    +0.044 C 
ATOM     23  C   UNL     1      -4.045   2.828  -2.973  0.00  0.00    -0.050 A 
ATOM     24  C   UNL     1      -4.583   4.100  -2.913  0.00  0.00    +0.005 A 
ATOM     25  C   UNL     1      -3.754   5.194  -2.749  0.00  0.00    +0.029 A 
ATOM     26  C   UNL     1      -2.388   5.016  -2.645  0.00  0.00    +0.110 A 
ATOM     27  C   UNL     1      -1.849   3.745  -2.710  0.00  0.00    +0.029 A 
ATOM     28  C   UNL     1      -2.678   2.650  -2.869  0.00  0.00    +0.005 A 
ENDBRANCH  19  26
ENDBRANCH   1  19
TORSDOF 4
