REMARK  Name = ZINC12246624
REMARK  8 active torsions:
REMARK  status: ('A' for Active; 'I' for Inactive)
REMARK    1  A    between atoms: C_1  and  N_2
REMARK    2  A    between atoms: N_2  and  C_3
REMARK    3  A    between atoms: C_3  and  C_4
REMARK    4  A    between atoms: C_13  and  C_15
REMARK    5  A    between atoms: C_18  and  S_29
REMARK    6  A    between atoms: N_21  and  C_22
REMARK    7  A    between atoms: C_22  and  C_23
REMARK    8  A    between atoms: S_29  and  C_30
REMARK                            x       y       z     vdW  Elec       q    Type
REMARK                         _______ _______ _______ _____ _____    ______ ____
ROOT
ATOM      1  C   UNL     1      -3.367   8.223   3.443  0.00  0.00    +0.021 C 
ATOM      2  C   UNL     1      -4.834   8.703   3.432  0.00  0.00    +0.006 C 
ATOM      3  C   UNL     1      -4.866   9.914   4.387  0.00  0.00    +0.037 C 
ATOM      4  C   UNL     1      -3.416  10.064   4.894  0.00  0.00    -0.063 C 
ATOM      5  N   UNL     1      -2.582   9.418   3.846  0.00  0.00    +0.391 N 
ATOM      6  H   UNL     1      -2.363  10.089   3.003  0.00  0.00    -0.080 HD
ENDROOT
BRANCH   1   9
ATOM      7  C   UNL     1      -3.745   5.530   2.638  0.00  0.00    +0.132 C 
ATOM      8  N   UNL     1      -3.188   6.492   1.685  0.00  0.00    -0.301 N 
ATOM      9  C   UNL     1      -2.955   7.763   2.068  0.00  0.00    +0.202 C 
ATOM     10  O   UNL     1      -2.413   8.537   1.307  0.00  0.00    -0.277 OA
BRANCH   8  11
ATOM     11  C   UNL     1      -2.883   6.073   0.314  0.00  0.00    +0.149 C 
BRANCH  11  12
ATOM     12  C   UNL     1      -1.466   5.567   0.246  0.00  0.00    +0.008 A 
ATOM     13  C   UNL     1      -1.021   4.316   0.432  0.00  0.00    +0.021 A 
ATOM     14  C   UNL     1       0.404   4.042   0.321  0.00  0.00    -0.011 A 
ATOM     15  C   UNL     1       1.084   2.810   0.471  0.00  0.00    +0.009 A 
ATOM     16  C   UNL     1       2.435   2.740   0.335  0.00  0.00    +0.001 A 
ATOM     17  C   UNL     1       3.193   3.864   0.035  0.00  0.00    +0.001 A 
ATOM     18  C   UNL     1       2.567   5.084  -0.124  0.00  0.00    +0.015 A 
ATOM     19  C   UNL     1       1.198   5.169   0.016  0.00  0.00    +0.020 A 
ATOM     20  S   UNL     1       0.020   6.490  -0.099  0.00  0.00    -0.092 S 
ENDBRANCH  11  12
ENDBRANCH   8  11
ENDBRANCH   1   9
BRANCH   5  21
ATOM     21  C   UNL     1      -1.269   9.030   4.380  0.00  0.00    -0.042 C 
BRANCH  21  22
ATOM     22  C   UNL     1      -0.412  10.258   4.548  0.00  0.00    -0.064 A 
ATOM     23  C   UNL     1       0.398  10.682   3.511  0.00  0.00    +0.002 A 
ATOM     24  C   UNL     1       1.181  11.812   3.663  0.00  0.00    +0.000 A 
ATOM     25  C   UNL     1       1.160  12.511   4.856  0.00  0.00    +0.000 A 
ATOM     26  C   UNL     1       0.354  12.083   5.894  0.00  0.00    +0.000 A 
ATOM     27  C   UNL     1      -0.432  10.957   5.740  0.00  0.00    +0.002 A 
ENDBRANCH  21  22
ENDBRANCH   5  21
BRANCH   3  28
ATOM     28  S   UNL     1      -5.989   9.595   5.770  0.00  0.00    -0.086 S 
BRANCH  28  29
ATOM     29  C   UNL     1      -5.934  11.160   6.577  0.00  0.00    +0.167 A 
ATOM     30  N   UNL     1      -6.620  11.482   7.714  0.00  0.00    -0.333 N 
ATOM     31  H   UNL     1      -7.268  10.735   8.195  0.00  0.00    +0.168 HD
ATOM     32  C   UNL     1      -6.310  12.797   8.022  0.00  0.00    +0.067 A 
ATOM     33  C   UNL     1      -6.689  13.661   9.038  0.00  0.00    +0.028 A 
ATOM     34  C   UNL     1      -6.189  14.947   9.068  0.00  0.00    +0.002 A 
ATOM     35  C   UNL     1      -5.310  15.382   8.087  0.00  0.00    +0.002 A 
ATOM     36  C   UNL     1      -4.923  14.537   7.071  0.00  0.00    +0.030 A 
ATOM     37  C   UNL     1      -5.419  13.232   7.027  0.00  0.00    +0.090 A 
ATOM     38  N   UNL     1      -5.225  12.188   6.179  0.00  0.00    -0.222 NA
ENDBRANCH  28  29
ENDBRANCH   3  28
TORSDOF 7
