REMARK  Name = ZINC14538657
REMARK  13 active torsions:
REMARK  status: ('A' for Active; 'I' for Inactive)
REMARK    1  A    between atoms: C_1  and  C_2
REMARK    2  A    between atoms: C_3  and  C_9
REMARK    3  A    between atoms: N_5  and  C_7
REMARK    4  A    between atoms: C_9  and  N_65
REMARK    5  A    between atoms: C_14  and  C_26
REMARK    6  A    between atoms: C_16  and  C_17
REMARK    7  A    between atoms: C_19  and  C_23
REMARK    8  A    between atoms: C_23  and  C_24
REMARK    9  A    between atoms: C_23  and  C_25
REMARK   10  A    between atoms: C_26  and  C_27
REMARK   11  A    between atoms: C_27  and  C_28
REMARK   12  A    between atoms: C_28  and  C_29
REMARK   13  A    between atoms: C_28  and  C_30
REMARK                            x       y       z     vdW  Elec       q    Type
REMARK                         _______ _______ _______ _____ _____    ______ ____
ROOT
ATOM      1  C   UNL     1      -3.963   0.236   3.279  0.00  0.00    -0.056 C 
ATOM      2  C   UNL     1      -3.118   1.349   3.912  0.00  0.00    +0.105 C 
ATOM      3  N   UNL     1      -2.062   1.714   2.965  0.00  0.00    -0.330 N 
ATOM      4  C   UNL     1      -1.700   0.931   1.895  0.00  0.00    +0.025 A 
ATOM      5  C   UNL     1      -0.718   1.572   1.248  0.00  0.00    +0.061 A 
ATOM      6  N   UNL     1      -0.467   2.718   1.897  0.00  0.00    -0.231 NA
ATOM      7  C   UNL     1      -1.276   2.819   2.935  0.00  0.00    +0.159 A 
ATOM      8  C   UNL     1      -2.342  -0.397   1.583  0.00  0.00    -0.022 C 
ATOM      9  N   UNL     1      -3.067  -0.840   2.800  0.00  0.00    +0.387 N 
ATOM     10  H   UNL     1      -2.383  -1.055   3.535  0.00  0.00    -0.081 HD
ENDROOT
BRANCH   7  11
ATOM     11  C   UNL     1      -1.314   3.935   3.897  0.00  0.00    +0.101 A 
ATOM     12  C   UNL     1      -0.354   4.911   4.059  0.00  0.00    +0.056 A 
ATOM     13  C   UNL     1      -0.786   5.766   5.072  0.00  0.00    +0.066 A 
ATOM     14  N   UNL     1      -1.945   5.345   5.511  0.00  0.00    -0.178 NA
ATOM     15  N   UNL     1      -2.310   4.200   4.792  0.00  0.00    -0.274 N 
ATOM     16  H   UNL     1      -3.151   3.671   4.913  0.00  0.00    +0.189 HD
BRANCH  13  17
ATOM     17  C   UNL     1      -0.042   6.975   5.577  0.00  0.00    +0.033 C 
ATOM     18  C   UNL     1       0.969   6.543   6.642  0.00  0.00    +0.014 C 
ATOM     19  C   UNL     1       0.696   7.643   4.415  0.00  0.00    +0.014 C 
ENDBRANCH  13  17
ENDBRANCH   7  11
BRANCH   9  20
ATOM     20  C   UNL     1      -3.852  -2.056   2.505  0.00  0.00    -0.038 C 
BRANCH  20  23
ATOM     21  C   UNL     1      -6.648  -1.346   3.815  0.00  0.00    +0.068 C 
ATOM     22  C   UNL     1      -5.625  -2.299   4.377  0.00  0.00    +0.063 A 
ATOM     23  C   UNL     1      -4.391  -2.611   3.798  0.00  0.00    -0.005 A 
ATOM     24  C   UNL     1      -3.768  -3.506   4.602  0.00  0.00    +0.128 A 
ATOM     25  N   UNL     1      -4.577  -3.744   5.656  0.00  0.00    -0.256 N 
ATOM     26  N   UNL     1      -5.737  -2.976   5.490  0.00  0.00    -0.175 NA
ATOM     27  C   UNL     1      -4.294  -4.648   6.773  0.00  0.00    +0.174 C 
ATOM     28 CL   UNL     1      -2.208  -4.217   4.328  0.00  0.00    -0.062 Cl
ENDBRANCH  20  23
ENDBRANCH   9  20
BRANCH   5  29
ATOM     29  C   UNL     1      -0.013   1.086   0.008  0.00  0.00    +0.057 C 
BRANCH  29  30
ATOM     30  C   UNL     1      -0.753   1.593  -1.232  0.00  0.00    +0.009 C 
BRANCH  30  31
ATOM     31  C   UNL     1      -0.037   1.099  -2.490  0.00  0.00    -0.017 C 
ATOM     32  C   UNL     1      -0.124  -0.427  -2.562  0.00  0.00    +0.007 C 
ATOM     33  C   UNL     1      -0.702   1.707  -3.727  0.00  0.00    +0.007 C 
ENDBRANCH  30  31
ENDBRANCH  29  30
ENDBRANCH   5  29
TORSDOF 7
