REMARK  Name = ZINC20932521
REMARK  14 active torsions:
REMARK  status: ('A' for Active; 'I' for Inactive)
REMARK    1  A    between atoms: C_1  and  C_2
REMARK    2  A    between atoms: C_2  and  O_3
REMARK    3  A    between atoms: O_3  and  C_4
REMARK    4  A    between atoms: C_9  and  O_10
REMARK    5  A    between atoms: O_10  and  C_11
REMARK    6  A    between atoms: C_11  and  C_12
REMARK    7  A    between atoms: C_13  and  C_32
REMARK    8  A    between atoms: N_15  and  C_18
REMARK    9  A    between atoms: C_18  and  C_19
REMARK   10  A    between atoms: N_21  and  C_22
REMARK   11  A    between atoms: C_32  and  C_33
REMARK   12  A    between atoms: C_33  and  O_35
REMARK   13  A    between atoms: O_35  and  C_36
REMARK   14  A    between atoms: C_36  and  C_37
REMARK                            x       y       z     vdW  Elec       q    Type
REMARK                         _______ _______ _______ _____ _____    ______ ____
ROOT
ATOM      1  C   UNL     1      -1.573   2.644   3.639  0.00  0.00    +0.162 A 
ATOM      2  C   UNL     1      -2.316   2.881   2.496  0.00  0.00    +0.053 A 
ATOM      3  C   UNL     1      -1.915   2.356   1.276  0.00  0.00    -0.044 A 
ATOM      4  C   UNL     1      -0.770   1.591   1.199  0.00  0.00    -0.054 A 
ATOM      5  C   UNL     1      -0.021   1.352   2.342  0.00  0.00    +0.051 A 
ATOM      6  C   UNL     1      -0.416   1.875   3.560  0.00  0.00    +0.162 A 
ATOM      7  C   UNL     1      -0.299   0.996  -0.102  0.00  0.00    -0.026 C 
ATOM      8  N   UNL     1      -0.944   1.666  -1.236  0.00  0.00    +0.391 N 
ATOM      9  C   UNL     1      -2.405   1.670  -1.063  0.00  0.00    -0.073 C 
ATOM     10  C   UNL     1      -2.756   2.646   0.060  0.00  0.00    +0.017 C 
ATOM     11  H   UNL     1      -0.592   2.708  -1.266  0.00  0.00    -0.080 HD
ENDROOT
BRANCH   1  12
ATOM     12  O   UNL     1      -1.970   3.161   4.832  0.00  0.00    -0.489 OA
BRANCH  12  14
ATOM     13  C   UNL     1      -3.453   4.432   6.255  0.00  0.00    +0.048 C 
ATOM     14  C   UNL     1      -3.168   3.940   4.835  0.00  0.00    +0.226 C 
ENDBRANCH  12  14
ENDBRANCH   1  12
BRANCH   6  15
ATOM     15  O   UNL     1       0.323   1.637   4.677  0.00  0.00    -0.489 OA
BRANCH  15  16
ATOM     16  C   UNL     1       1.498   0.839   4.520  0.00  0.00    +0.226 C 
ATOM     17  C   UNL     1       2.193   0.682   5.874  0.00  0.00    +0.048 C 
ENDBRANCH  15  16
ENDBRANCH   6  15
BRANCH   8  18
ATOM     18  C   UNL     1      -0.567   1.031  -2.506  0.00  0.00    +0.020 C 
BRANCH  18  19
ATOM     19  C   UNL     1      -1.117  -0.371  -2.549  0.00  0.00    +0.201 C 
ATOM     20  O   UNL     1      -1.675  -0.834  -1.577  0.00  0.00    -0.278 OA
ATOM     21  N   UNL     1      -0.989  -1.111  -3.668  0.00  0.00    -0.287 N 
ATOM     22  H   UNL     1      -0.425  -0.718  -4.527  0.00  0.00    +0.155 HD
BRANCH  21  23
ATOM     23  C   UNL     1      -1.572  -2.378  -3.738  0.00  0.00    +0.041 A 
ATOM     24  C   UNL     1      -1.773  -3.115  -2.591  0.00  0.00    +0.024 A 
ATOM     25  C   UNL     1      -2.353  -4.379  -2.650  0.00  0.00    +0.002 A 
ATOM     26  C   UNL     1      -2.737  -4.921  -3.838  0.00  0.00    +0.008 A 
ATOM     27  C   UNL     1      -2.550  -4.202  -5.031  0.00  0.00    -0.016 A 
ATOM     28  C   UNL     1      -1.966  -2.913  -4.983  0.00  0.00    +0.003 A 
ATOM     29  C   UNL     1      -1.774  -2.198  -6.176  0.00  0.00    +0.010 A 
ATOM     30  C   UNL     1      -2.161  -2.747  -7.360  0.00  0.00    +0.001 A 
ATOM     31  C   UNL     1      -2.741  -4.014  -7.408  0.00  0.00    +0.001 A 
ATOM     32  C   UNL     1      -2.937  -4.737  -6.272  0.00  0.00    +0.008 A 
ENDBRANCH  21  23
ENDBRANCH  18  19
ENDBRANCH   8  18
BRANCH   7  33
ATOM     33  C   UNL     1       1.218   1.162  -0.214  0.00  0.00    +0.110 C 
BRANCH  33  34
ATOM     34  C   UNL     1       1.562   2.629  -0.240  0.00  0.00    +0.306 C 
ATOM     35  O   UNL     1       0.692   3.456  -0.097  0.00  0.00    -0.251 OA
BRANCH  34  36
ATOM     36  O   UNL     1       2.834   3.017  -0.421  0.00  0.00    -0.465 OA
BRANCH  36  37
ATOM     37  C   UNL     1       3.091   4.446  -0.435  0.00  0.00    +0.229 C 
ATOM     38  C   UNL     1       4.586   4.693  -0.651  0.00  0.00    +0.048 C 
ENDBRANCH  36  37
ENDBRANCH  34  36
ENDBRANCH  33  34
ENDBRANCH   7  33
TORSDOF 11
