REMARK  Name = ZINC15770101
REMARK  6 active torsions:
REMARK  status: ('A' for Active; 'I' for Inactive)
REMARK    1  A    between atoms: C_4  and  C_7
REMARK    2  A    between atoms: N_19  and  C_20
REMARK    3  A    between atoms: C_20  and  C_31
REMARK    4  A    between atoms: C_21  and  C_22
REMARK    5  A    between atoms: C_26  and  N_28
REMARK    6  A    between atoms: C_34  and  N_37
REMARK                            x       y       z     vdW  Elec       q    Type
REMARK                         _______ _______ _______ _____ _____    ______ ____
ROOT
ATOM      1  C   UNL     1      -3.673   1.673   0.130  0.00  0.00    +0.022 C 
ATOM      2  C   UNL     1      -2.417   1.229  -0.092  0.00  0.00    +0.030 C 
ENDROOT
BRANCH   1  12
ATOM      3  C   UNL     1      -6.160  -0.156  -1.906  0.00  0.00    +0.029 C 
ATOM      4  C   UNL     1      -5.059  -1.092  -1.444  0.00  0.00    +0.037 C 
ATOM      5  C   UNL     1      -4.541  -0.668  -0.069  0.00  0.00    +0.128 C 
ATOM      6  C   UNL     1      -5.358  -1.348   1.009  0.00  0.00    +0.175 C 
ATOM      7  O   UNL     1      -4.825  -1.694   2.042  0.00  0.00    -0.291 OA
ATOM      8  C   UNL     1      -6.781  -1.593   0.815  0.00  0.00    +0.044 C 
ATOM      9  C   UNL     1      -7.540  -0.813   0.052  0.00  0.00    -0.018 C 
ATOM     10  C   UNL     1      -6.986   0.343  -0.727  0.00  0.00    +0.035 C 
ATOM     11  C   UNL     1      -6.140   1.250   0.169  0.00  0.00    +0.093 C 
ATOM     12  N   UNL     1      -4.743   0.786   0.081  0.00  0.00    -0.384 NA
ATOM     13  H   UNL     1      -3.898   1.486   0.161  0.00  0.00    +0.127 HD
BRANCH   3  17
ATOM     14  C   UNL     1      -8.712  -2.233  -4.630  0.00  0.00    +0.000 A 
ATOM     15  C   UNL     1      -8.015  -1.116  -5.051  0.00  0.00    +0.000 A 
ATOM     16  C   UNL     1      -7.189  -0.444  -4.169  0.00  0.00    +0.004 A 
ATOM     17  C   UNL     1      -7.061  -0.889  -2.867  0.00  0.00    -0.044 A 
ATOM     18  C   UNL     1      -7.754  -2.009  -2.447  0.00  0.00    +0.004 A 
ATOM     19  C   UNL     1      -8.584  -2.678  -3.327  0.00  0.00    +0.000 A 
ENDBRANCH   3  17
ENDBRANCH   1  12
BRANCH   2  20
ATOM     20  C   UNL     1      -1.270   2.127   0.120  0.00  0.00    -0.021 A 
ATOM     21  C   UNL     1      -0.131   2.014  -0.683  0.00  0.00    +0.008 A 
ATOM     22  C   UNL     1       0.942   2.854  -0.474  0.00  0.00    +0.003 A 
ATOM     23  C   UNL     1       0.890   3.813   0.523  0.00  0.00    +0.033 A 
ATOM     24  C   UNL     1      -0.236   3.935   1.318  0.00  0.00    +0.127 A 
ATOM     25  C   UNL     1      -1.317   3.101   1.122  0.00  0.00    +0.040 A 
BRANCH  24  26
ATOM     26  N   UNL     1      -0.280   4.963   2.382  0.00  0.00    +0.056 N 
ATOM     27  O   UNL     1      -1.271   5.072   3.083  0.00  0.00    -0.126 OA
ATOM     28  O   UNL     1       0.673   5.700   2.557  0.00  0.00    -0.126 OA
ENDBRANCH  24  26
ENDBRANCH   2  20
BRANCH   1  29
ATOM     29  C   UNL     1      -3.910   3.102   0.425  0.00  0.00    -0.005 A 
ATOM     30  C   UNL     1      -4.669   3.471   1.537  0.00  0.00    +0.012 A 
ATOM     31  C   UNL     1      -4.882   4.807   1.809  0.00  0.00    +0.033 A 
ATOM     32  C   UNL     1      -4.355   5.779   0.977  0.00  0.00    +0.126 A 
ATOM     33  C   UNL     1      -3.607   5.419  -0.130  0.00  0.00    +0.033 A 
ATOM     34  C   UNL     1      -3.381   4.087  -0.411  0.00  0.00    +0.012 A 
BRANCH  32  35
ATOM     35  N   UNL     1      -4.592   7.211   1.273  0.00  0.00    +0.056 N 
ATOM     36  O   UNL     1      -4.129   8.068   0.542  0.00  0.00    -0.126 OA
ATOM     37  O   UNL     1      -5.250   7.530   2.246  0.00  0.00    -0.126 OA
ENDBRANCH  32  35
ENDBRANCH   1  29
TORSDOF 6
