REMARK  Name = ZINC11011749
REMARK  9 active torsions:
REMARK  status: ('A' for Active; 'I' for Inactive)
REMARK    1  A    between atoms: C_1  and  N_50
REMARK    2  A    between atoms: C_2  and  C_3
REMARK    3  A    between atoms: C_2  and  N_50
REMARK    4  A    between atoms: C_5  and  N_10
REMARK    5  A    between atoms: C_13  and  C_14
REMARK    6  A    between atoms: C_13  and  N_50
REMARK    7  A    between atoms: N_16  and  C_17
REMARK    8  A    between atoms: C_22  and  O_23
REMARK    9  A    between atoms: O_23  and  C_24
REMARK                            x       y       z     vdW  Elec       q    Type
REMARK                         _______ _______ _______ _____ _____    ______ ____
ROOT
ATOM      1  C   UNL     1      -1.119   3.576  -0.379  0.00  0.00    +0.201 C 
ATOM      2  O   UNL     1      -1.357   2.830  -1.306  0.00  0.00    -0.278 OA
ATOM      3  N   UNL     1      -1.731   4.775  -0.305  0.00  0.00    -0.284 N 
ATOM      4  H   UNL     1      -1.551   5.365   0.443  0.00  0.00    +0.155 HD
ENDROOT
BRANCH   3   5
ATOM      5  C   UNL     1      -2.626   5.169  -1.308  0.00  0.00    +0.076 A 
ATOM      6  C   UNL     1      -3.200   4.218  -2.140  0.00  0.00    +0.027 A 
ATOM      7  C   UNL     1      -4.083   4.609  -3.129  0.00  0.00    +0.002 A 
ATOM      8  C   UNL     1      -4.396   5.946  -3.292  0.00  0.00    +0.004 A 
ATOM      9  C   UNL     1      -3.828   6.899  -2.468  0.00  0.00    +0.048 A 
ATOM     10  C   UNL     1      -2.946   6.515  -1.470  0.00  0.00    +0.150 A 
BRANCH  10  11
ATOM     11  O   UNL     1      -2.391   7.450  -0.654  0.00  0.00    -0.454 OA
BRANCH  11  12
ATOM     12  C   UNL     1      -1.140   7.892  -0.949  0.00  0.00    +0.129 A 
ATOM     13  C   UNL     1      -0.425   7.313  -1.988  0.00  0.00    +0.046 A 
ATOM     14  C   UNL     1       0.845   7.766  -2.288  0.00  0.00    +0.004 A 
ATOM     15  C   UNL     1       1.407   8.790  -1.548  0.00  0.00    +0.000 A 
ATOM     16  C   UNL     1       0.699   9.365  -0.508  0.00  0.00    +0.004 A 
ATOM     17  C   UNL     1      -0.573   8.919  -0.207  0.00  0.00    +0.046 A 
ENDBRANCH  11  12
ENDBRANCH  10  11
ENDBRANCH   3   5
BRANCH   1  18
ATOM     18  C   UNL     1      -0.140   3.162   0.689  0.00  0.00    +0.019 C 
BRANCH  18  20
ATOM     19  C   UNL     1       1.192   1.846  -0.846  0.00  0.00    -0.095 C 
ATOM     20  N   UNL     1       0.361   1.807   0.376  0.00  0.00    +0.386 N 
ATOM     21  H   UNL     1      -0.439   1.184   0.216  0.00  0.00    -0.081 HD
BRANCH  20  22
ATOM     22  C   UNL     1       1.155   1.288   1.510  0.00  0.00    -0.041 C 
BRANCH  22  23
ATOM     23  C   UNL     1       1.466  -0.165   1.261  0.00  0.00    -0.043 A 
ATOM     24  C   UNL     1       2.740  -0.544   0.884  0.00  0.00    +0.036 A 
ATOM     25  C   UNL     1       3.027  -1.878   0.661  0.00  0.00    +0.126 A 
ATOM     26  C   UNL     1       2.037  -2.832   0.804  0.00  0.00    +0.034 A 
ATOM     27  C   UNL     1       0.760  -2.453   1.176  0.00  0.00    +0.022 A 
ATOM     28  C   UNL     1       0.474  -1.119   1.405  0.00  0.00    +0.042 A 
ATOM     29 CL   UNL     1      -1.129  -0.643   1.872  0.00  0.00    -0.083 Cl
BRANCH  25  30
ATOM     30  N   UNL     1       4.393  -2.284   0.262  0.00  0.00    +0.056 N 
ATOM     31  O   UNL     1       4.645  -3.459   0.060  0.00  0.00    -0.126 OA
ATOM     32  O   UNL     1       5.266  -1.444   0.136  0.00  0.00    -0.126 OA
ENDBRANCH  25  30
ENDBRANCH  22  23
ENDBRANCH  20  22
ENDBRANCH  18  20
ENDBRANCH   1  18
TORSDOF 8
