REMARK  Name = ZINC06749250
REMARK  8 active torsions:
REMARK  status: ('A' for Active; 'I' for Inactive)
REMARK    1  A    between atoms: C_1  and  C_2
REMARK    2  A    between atoms: C_2  and  O_3
REMARK    3  A    between atoms: O_3  and  C_4
REMARK    4  A    between atoms: C_4  and  C_6
REMARK    5  A    between atoms: C_11  and  N_12
REMARK    6  A    between atoms: C_13  and  C_15
REMARK    7  A    between atoms: C_18  and  C_20
REMARK    8  A    between atoms: C_23  and  C_26
REMARK                            x       y       z     vdW  Elec       q    Type
REMARK                         _______ _______ _______ _____ _____    ______ ____
ROOT
ATOM      1  C   UNL     1       2.096   2.691   1.123  0.00  0.00    +0.147 A 
ATOM      2  C   UNL     1       1.687   1.513   0.574  0.00  0.00    +0.051 A 
ATOM      3  N   UNL     1       2.648   1.121  -0.295  0.00  0.00    -0.327 N 
ATOM      4  C   UNL     1       3.624   2.076  -0.284  0.00  0.00    +0.142 A 
ATOM      5  N   UNL     1       3.287   3.010   0.573  0.00  0.00    -0.223 NA
ATOM      6  C   UNL     1       2.643  -0.110  -1.092  0.00  0.00    +0.123 C 
ATOM      7  C   UNL     1       1.198  -0.536  -1.362  0.00  0.00    +0.022 C 
ATOM      8  C   UNL     1       0.709  -1.448  -0.238  0.00  0.00    +0.002 C 
ATOM      9  C   UNL     1       0.729  -0.708   1.095  0.00  0.00    +0.006 C 
ATOM     10  C   UNL     1       0.409   0.771   0.862  0.00  0.00    +0.056 C 
ENDROOT
BRANCH   4  11
ATOM     11  C   UNL     1       4.857   2.060  -1.101  0.00  0.00    +0.017 A 
ATOM     12  C   UNL     1       5.318   0.863  -1.651  0.00  0.00    +0.012 A 
ATOM     13  C   UNL     1       6.466   0.855  -2.416  0.00  0.00    +0.004 A 
ATOM     14  C   UNL     1       7.166   2.029  -2.630  0.00  0.00    -0.050 A 
ATOM     15  C   UNL     1       6.717   3.218  -2.084  0.00  0.00    +0.004 A 
ATOM     16  C   UNL     1       5.568   3.240  -1.321  0.00  0.00    +0.012 A 
ATOM     17  C   UNL     1       8.422   2.012  -3.462  0.00  0.00    +0.044 C 
ENDBRANCH   4  11
BRANCH   1  19
ATOM     18  N   UNL     1       1.889   4.630   2.596  0.00  0.00    -0.279 N 
ATOM     19  C   UNL     1       1.368   3.476   2.136  0.00  0.00    +0.268 C 
ATOM     20  O   UNL     1       0.297   3.082   2.556  0.00  0.00    -0.268 OA
ATOM     21  H   UNL     1       2.700   4.988   2.202  0.00  0.00    +0.155 HD
BRANCH  18  27
ATOM     22  C   UNL     1       2.031   5.917   4.644  0.00  0.00    +0.080 A 
ATOM     23  C   UNL     1       1.391   6.596   5.685  0.00  0.00    +0.017 A 
ATOM     24  C   UNL     1       0.015   6.664   5.716  0.00  0.00    +0.001 A 
ATOM     25  C   UNL     1      -0.739   6.063   4.721  0.00  0.00    +0.002 A 
ATOM     26  C   UNL     1      -0.121   5.394   3.684  0.00  0.00    +0.024 A 
ATOM     27  C   UNL     1       1.264   5.309   3.638  0.00  0.00    +0.048 A 
BRANCH  22  28
ATOM     28  C   UNL     1       3.502   5.840   4.604  0.00  0.00    +0.341 C 
ATOM     29  O   UNL     1       4.054   5.208   3.724  0.00  0.00    -0.245 OA
BRANCH  28  30
ATOM     30  O   UNL     1       4.236   6.470   5.542  0.00  0.00    -0.461 OA
BRANCH  30  32
ATOM     31  C   UNL     1       6.337   7.126   6.583  0.00  0.00    +0.048 C 
ATOM     32  C   UNL     1       5.679   6.351   5.440  0.00  0.00    +0.229 C 
ENDBRANCH  30  32
ENDBRANCH  28  30
ENDBRANCH  22  28
ENDBRANCH  18  27
ENDBRANCH   1  19
TORSDOF 6
