REMARK  Name = ZINC20759634
REMARK  12 active torsions:
REMARK  status: ('A' for Active; 'I' for Inactive)
REMARK    1  A    between atoms: C_1  and  C_2
REMARK    2  A    between atoms: C_2  and  O_3
REMARK    3  A    between atoms: O_3  and  C_4
REMARK    4  A    between atoms: C_4  and  C_6
REMARK    5  A    between atoms: C_7  and  C_33
REMARK    6  A    between atoms: C_8  and  C_13
REMARK    7  A    between atoms: C_9  and  C_12
REMARK    8  A    between atoms: C_13  and  C_15
REMARK    9  A    between atoms: C_15  and  C_16
REMARK   10  A    between atoms: C_23  and  O_24
REMARK   11  A    between atoms: O_24  and  C_25
REMARK   12  A    between atoms: N_31  and  C_32
REMARK                            x       y       z     vdW  Elec       q    Type
REMARK                         _______ _______ _______ _____ _____    ______ ____
ROOT
ATOM      1  C   UNL     1       1.292   1.837   1.110  0.00  0.00    +0.103 C 
ENDROOT
BRANCH   1   2
ATOM      2  C   UNL     1       0.344   2.814   1.809  0.00  0.00    +0.098 C 
ATOM      3  C   UNL     1      -0.711   3.265   0.833  0.00  0.00    +0.019 A 
ATOM      4  C   UNL     1      -1.117   4.580   0.758  0.00  0.00    -0.034 A 
ATOM      5  C   UNL     1      -2.105   4.950  -0.142  0.00  0.00    +0.053 A 
ATOM      6  C   UNL     1      -2.684   4.009  -0.977  0.00  0.00    +0.170 A 
ATOM      7  C   UNL     1      -2.270   2.683  -0.911  0.00  0.00    +0.208 A 
ATOM      8  C   UNL     1      -1.282   2.316  -0.008  0.00  0.00    +0.170 A 
ATOM      9  O   UNL     1      -2.981   1.958  -1.825  0.00  0.00    -0.449 OA
ATOM     10  C   UNL     1      -4.119   2.774  -2.162  0.00  0.00    +0.467 C 
ATOM     11  O   UNL     1      -3.655   4.118  -1.931  0.00  0.00    -0.452 OA
ATOM     12  C   UNL     1      -0.514   5.646   1.638  0.00  0.00    +0.051 C 
ATOM     13  C   UNL     1       0.203   4.994   2.826  0.00  0.00    +0.089 C 
ATOM     14  N   UNL     1       1.111   3.961   2.304  0.00  0.00    -0.298 NA
ATOM     15  C   UNL     1       2.079   3.546   3.327  0.00  0.00    +0.105 C 
BRANCH   8  16
ATOM     16  O   UNL     1      -0.875   1.020   0.058  0.00  0.00    -0.491 OA
ATOM     17  C   UNL     1      -1.649   0.137   0.872  0.00  0.00    +0.277 C 
ENDBRANCH   8  16
ENDBRANCH   1   2
BRANCH   1  18
ATOM     18  C   UNL     1       1.835   2.472  -0.143  0.00  0.00    +0.167 C 
ATOM     19  O   UNL     1       1.583   3.632  -0.393  0.00  0.00    -0.292 OA
BRANCH  18  22
ATOM     20  C   UNL     1       3.990   1.112  -2.766  0.00  0.00    +0.128 A 
ATOM     21  C   UNL     1       3.337   2.172  -2.211  0.00  0.00    -0.008 A 
ATOM     22  C   UNL     1       2.668   1.689  -1.062  0.00  0.00    +0.041 A 
ATOM     23  C   UNL     1       2.954   0.336  -0.965  0.00  0.00    +0.024 A 
ATOM     24  N   UNL     1       3.743  -0.004  -1.994  0.00  0.00    -0.352 N 
ATOM     25  H   UNL     1       4.178  -0.974  -2.275  0.00  0.00    +0.166 HD
ATOM     26  C   UNL     1       2.459  -0.595   0.112  0.00  0.00    +0.064 C 
ATOM     27  C   UNL     1       3.329   3.588  -2.725  0.00  0.00    +0.047 C 
BRANCH  20  28
ATOM     28  C   UNL     1       4.815   1.151  -3.978  0.00  0.00    +0.356 C 
ATOM     29  O   UNL     1       4.962   2.197  -4.580  0.00  0.00    -0.243 OA
BRANCH  28  30
ATOM     30  O   UNL     1       5.410   0.026  -4.426  0.00  0.00    -0.460 OA
BRANCH  30  32
ATOM     31  C   UNL     1       6.802  -1.228  -5.981  0.00  0.00    +0.048 C 
ATOM     32  C   UNL     1       6.212   0.139  -5.631  0.00  0.00    +0.229 C 
ENDBRANCH  30  32
ENDBRANCH  28  30
ENDBRANCH  20  28
ENDBRANCH  18  22
ENDBRANCH   1  18
TORSDOF 7
