REMARK  Name = ZINC08790850
REMARK  3 active torsions:
REMARK  status: ('A' for Active; 'I' for Inactive)
REMARK    1  A    between atoms: C_1  and  C_2
REMARK    2  A    between atoms: C_22  and  C_29
REMARK    3  A    between atoms: C_29  and  C_31
REMARK                            x       y       z     vdW  Elec       q    Type
REMARK                         _______ _______ _______ _____ _____    ______ ____
ROOT
ATOM      1  C   UNL     1       3.243 -11.392  -0.635  0.00  0.00    +0.045 C 
ATOM      2  C   UNL     1       1.991 -10.704  -0.156  0.00  0.00    -0.029 A 
ATOM      3  C   UNL     1       0.897 -11.453   0.225  0.00  0.00    +0.005 A 
ATOM      4  C   UNL     1      -0.256 -10.831   0.667  0.00  0.00    +0.001 A 
ATOM      5  C   UNL     1      -0.314  -9.449   0.727  0.00  0.00    +0.004 A 
ATOM      6  C   UNL     1       0.775  -8.698   0.346  0.00  0.00    -0.026 A 
ATOM      7  C   UNL     1       1.941  -9.313  -0.099  0.00  0.00    +0.039 A 
ATOM      8  N   UNL     1       2.900  -8.352  -0.426  0.00  0.00    -0.286 N 
ATOM      9  C   UNL     1       2.451  -7.099  -0.228  0.00  0.00    +0.212 C 
ATOM     10  O   UNL     1       3.064  -6.071  -0.427  0.00  0.00    -0.277 OA
ATOM     11  C   UNL     1       1.039  -7.217   0.289  0.00  0.00    +0.060 C 
ATOM     12  C   UNL     1       0.053  -6.511  -0.636  0.00  0.00    +0.085 C 
ATOM     13  C   UNL     1       0.604  -6.316  -2.017  0.00  0.00    -0.011 A 
ATOM     14  C   UNL     1       1.723  -5.687  -2.515  0.00  0.00    +0.006 A 
ATOM     15  C   UNL     1       1.966  -5.679  -3.877  0.00  0.00    +0.000 A 
ATOM     16  C   UNL     1       1.081  -6.303  -4.737  0.00  0.00    +0.002 A 
ATOM     17  C   UNL     1      -0.042  -6.933  -4.244  0.00  0.00    +0.023 A 
ATOM     18  C   UNL     1      -0.295  -6.946  -2.874  0.00  0.00    +0.038 A 
ATOM     19  N   UNL     1      -1.346  -7.507  -2.145  0.00  0.00    -0.285 N 
ATOM     20  C   UNL     1      -1.215  -7.295  -0.821  0.00  0.00    +0.228 C 
ATOM     21  O   UNL     1      -1.973  -7.665   0.051  0.00  0.00    -0.275 OA
ATOM     22  C   UNL     1      -0.218  -5.163   0.062  0.00  0.00    +0.066 C 
ATOM     23  C   UNL     1      -0.144  -5.566   1.556  0.00  0.00    -0.055 C 
ATOM     24  C   UNL     1       2.174  -5.884   1.952  0.00  0.00    -0.076 C 
ATOM     25  C   UNL     1       1.718  -4.785   2.943  0.00  0.00    -0.020 C 
ATOM     26  C   UNL     1       0.342  -4.363   2.379  0.00  0.00    -0.016 C 
ATOM     27  H   UNL     1       3.786  -8.563  -0.758  0.00  0.00    +0.155 HD
ATOM     28  H   UNL     1      -2.083  -7.994  -2.546  0.00  0.00    +0.155 HD
ATOM     29  N   UNL     1       0.915  -6.571   1.613  0.00  0.00    +0.395 N 
ATOM     30  H   UNL     1       0.696  -7.277   2.325  0.00  0.00    -0.079 HD
ENDROOT
BRANCH  22  31
ATOM     31  C   UNL     1       0.848  -4.154  -0.280  0.00  0.00    +0.166 C 
ATOM     32  O   UNL     1       1.822  -4.036   0.433  0.00  0.00    -0.292 OA
BRANCH  31  33
ATOM     33  C   UNL     1       0.707  -3.314  -1.476  0.00  0.00    +0.021 A 
ATOM     34  C   UNL     1      -0.416  -3.448  -2.300  0.00  0.00    +0.015 A 
ATOM     35  C   UNL     1      -0.545  -2.659  -3.421  0.00  0.00    +0.050 A 
ATOM     36  C   UNL     1       0.437  -1.729  -3.739  0.00  0.00    +0.166 A 
ATOM     37  C   UNL     1       1.560  -1.589  -2.921  0.00  0.00    +0.167 A 
ATOM     38  C   UNL     1       1.696  -2.376  -1.795  0.00  0.00    +0.061 A 
ATOM     39  O   UNL     1       2.363  -0.619  -3.448  0.00  0.00    -0.453 OA
ATOM     40  C   UNL     1       1.528   0.115  -4.363  0.00  0.00    +0.466 C 
ATOM     41  O   UNL     1       0.540  -0.848  -4.774  0.00  0.00    -0.453 OA
ENDBRANCH  31  33
ENDBRANCH  22  31
TORSDOF 2
