REMARK  Name = ZINC12659993
REMARK  15 active torsions:
REMARK  status: ('A' for Active; 'I' for Inactive)
REMARK    1  A    between atoms: C_1  and  C_2
REMARK    2  A    between atoms: C_6  and  O_37
REMARK    3  A    between atoms: C_7  and  O_35
REMARK    4  A    between atoms: C_12  and  C_13
REMARK    5  A    between atoms: C_12  and  N_75
REMARK    6  A    between atoms: C_13  and  C_24
REMARK    7  A    between atoms: N_16  and  C_23
REMARK    8  A    between atoms: N_19  and  C_22
REMARK    9  A    between atoms: C_24  and  C_25
REMARK   10  A    between atoms: C_28  and  O_31
REMARK   11  A    between atoms: O_31  and  C_32
REMARK   12  A    between atoms: C_32  and  C_33
REMARK   13  A    between atoms: C_32  and  C_34
REMARK   14  A    between atoms: O_35  and  C_36
REMARK   15  A    between atoms: O_37  and  C_38
REMARK                            x       y       z     vdW  Elec       q    Type
REMARK                         _______ _______ _______ _____ _____    ______ ____
ROOT
ATOM      1  C   UNL     1      -0.030   1.392   0.206  0.00  0.00    +0.113 C 
ATOM      2  C   UNL     1      -0.938   1.640  -0.984  0.00  0.00    +0.236 C 
ATOM      3  O   UNL     1      -2.070   1.207  -1.012  0.00  0.00    -0.274 OA
ATOM      4  N   UNL     1      -0.438   2.361  -2.010  0.00  0.00    -0.228 N 
ATOM      5  C   UNL     1       0.809   2.845  -1.994  0.00  0.00    +0.317 C 
ATOM      6  O   UNL     1       1.178   3.483  -2.960  0.00  0.00    -0.252 OA
ATOM      7  N   UNL     1       1.680   2.678  -0.993  0.00  0.00    -0.228 N 
ATOM      8  C   UNL     1       1.363   1.985   0.122  0.00  0.00    +0.236 C 
ATOM      9  O   UNL     1       2.163   1.843   1.022  0.00  0.00    -0.274 OA
ATOM     10  C   UNL     1       3.017   3.265  -1.109  0.00  0.00    +0.143 C 
ATOM     11  C   UNL     1      -1.286   2.620  -3.176  0.00  0.00    +0.143 C 
ENDROOT
BRANCH   1  12
ATOM     12  C   UNL     1       0.107  -0.120   0.393  0.00  0.00    -0.052 C 
BRANCH  12  23
ATOM     13  C   UNL     1      -1.174  -2.271  -1.085  0.00  0.00    -0.008 C 
ATOM     14  C   UNL     1       0.341  -2.133  -0.928  0.00  0.00    -0.040 C 
ATOM     15  C   UNL     1       1.023  -2.753  -2.120  0.00  0.00    -0.054 A 
ATOM     16  C   UNL     1       0.542  -3.964  -2.597  0.00  0.00    +0.051 A 
ATOM     17  C   UNL     1       1.141  -4.576  -3.683  0.00  0.00    +0.162 A 
ATOM     18  C   UNL     1       2.232  -3.972  -4.301  0.00  0.00    +0.162 A 
ATOM     19  C   UNL     1       2.707  -2.763  -3.823  0.00  0.00    +0.053 A 
ATOM     20  C   UNL     1       2.102  -2.153  -2.733  0.00  0.00    -0.044 A 
ATOM     21  C   UNL     1       2.654  -0.836  -2.252  0.00  0.00    +0.017 C 
ATOM     22  C   UNL     1       2.151  -0.544  -0.838  0.00  0.00    -0.073 C 
ATOM     23  N   UNL     1       0.682  -0.704  -0.839  0.00  0.00    +0.385 N 
ATOM     24  H   UNL     1       0.291  -0.215  -1.653  0.00  0.00    -0.081 HD
BRANCH  18  25
ATOM     25  O   UNL     1       2.829  -4.566  -5.369  0.00  0.00    -0.491 OA
ATOM     26  C   UNL     1       3.943  -3.886  -5.950  0.00  0.00    +0.277 C 
ENDBRANCH  18  25
BRANCH  17  27
ATOM     27  O   UNL     1       0.665  -5.763  -4.146  0.00  0.00    -0.491 OA
ATOM     28  C   UNL     1      -0.457  -6.324  -3.462  0.00  0.00    +0.277 C 
ENDBRANCH  17  27
ENDBRANCH  12  23
ENDBRANCH   1  12
BRANCH   1  29
ATOM     29  C   UNL     1      -0.716   1.962   1.449  0.00  0.00    +0.058 C 
BRANCH  29  30
ATOM     30  C   UNL     1      -0.868   3.454   1.300  0.00  0.00    -0.046 A 
ATOM     31  C   UNL     1       0.129   4.298   1.752  0.00  0.00    +0.007 A 
ATOM     32  C   UNL     1      -0.005   5.666   1.611  0.00  0.00    +0.046 A 
ATOM     33  C   UNL     1      -1.147   6.192   1.024  0.00  0.00    +0.121 A 
ATOM     34  C   UNL     1      -2.148   5.343   0.576  0.00  0.00    +0.046 A 
ATOM     35  C   UNL     1      -2.007   3.976   0.715  0.00  0.00    +0.007 A 
BRANCH  33  36
ATOM     36  O   UNL     1      -1.284   7.538   0.889  0.00  0.00    -0.489 OA
BRANCH  36  37
ATOM     37  C   UNL     1      -2.519   8.013   0.350  0.00  0.00    +0.167 C 
ATOM     38  C   UNL     1      -3.563   8.098   1.466  0.00  0.00    +0.051 C 
ATOM     39  C   UNL     1      -2.310   9.401  -0.258  0.00  0.00    +0.051 C 
ENDBRANCH  36  37
ENDBRANCH  33  36
ENDBRANCH  29  30
ENDBRANCH   1  29
TORSDOF 8
