REMARK  Name = ZINC59105346
REMARK  13 active torsions:
REMARK  status: ('A' for Active; 'I' for Inactive)
REMARK    1  A    between atoms: C_1  and  C_2
REMARK    2  A    between atoms: C_2  and  O_3
REMARK    3  A    between atoms: O_3  and  C_4
REMARK    4  A    between atoms: C_10  and  C_11
REMARK    5  A    between atoms: C_13  and  O_24
REMARK    6  A    between atoms: C_14  and  O_18
REMARK    7  A    between atoms: O_18  and  C_19
REMARK    8  A    between atoms: C_19  and  C_20
REMARK    9  A    between atoms: C_20  and  O_22
REMARK   10  A    between atoms: O_22  and  C_23
REMARK   11  A    between atoms: O_24  and  C_25
REMARK   12  A    between atoms: N_28  and  C_29
REMARK   13  A    between atoms: C_32  and  C_35
REMARK                            x       y       z     vdW  Elec       q    Type
REMARK                         _______ _______ _______ _____ _____    ______ ____
ROOT
ATOM      1  C   UNL     1      -0.139  -1.787  -1.997  0.00  0.00    +0.346 C 
ATOM      2  O   UNL     1      -0.848  -2.617  -1.210  0.00  0.00    -0.245 OA
ATOM      3  C   UNL     1       0.735  -2.306  -2.945  0.00  0.00    +0.139 C 
ATOM      4  C   UNL     1       0.918  -3.752  -3.126  0.00  0.00    +0.120 C 
ATOM      5  S   UNL     1       2.118  -3.871  -4.436  0.00  0.00    -0.065 S 
ATOM      6  C   UNL     1       2.397  -2.144  -4.765  0.00  0.00    +0.062 C 
ATOM      7  C   UNL     1       3.229  -1.591  -5.683  0.00  0.00    +0.027 C 
ATOM      8  C   UNL     1       1.511  -1.456  -3.815  0.00  0.00    +0.209 C 
ATOM      9  O   UNL     1       1.440  -0.240  -3.762  0.00  0.00    -0.286 OA
ATOM     10  N   UNL     1       0.330  -4.734  -2.469  0.00  0.00    -0.240 NA
ENDROOT
BRANCH   7  11
ATOM     11  C   UNL     1       3.917  -2.446  -6.660  0.00  0.00    -0.019 A 
ATOM     12  C   UNL     1       3.410  -3.717  -6.960  0.00  0.00    +0.057 A 
ATOM     13  C   UNL     1       4.060  -4.516  -7.880  0.00  0.00    +0.164 A 
ATOM     14  C   UNL     1       5.219  -4.059  -8.507  0.00  0.00    +0.181 A 
ATOM     15  C   UNL     1       5.723  -2.799  -8.210  0.00  0.00    +0.087 A 
ATOM     16  C   UNL     1       5.077  -1.992  -7.297  0.00  0.00    +0.032 A 
ATOM     17 CL   UNL     1       7.166  -2.237  -8.994  0.00  0.00    -0.080 Cl
BRANCH  13  18
ATOM     18  O   UNL     1       3.571  -5.750  -8.174  0.00  0.00    -0.491 OA
ATOM     19  C   UNL     1       2.381  -6.155  -7.494  0.00  0.00    +0.277 C 
ENDBRANCH  13  18
BRANCH  14  20
ATOM     20  O   UNL     1       5.857  -4.848  -9.411  0.00  0.00    -0.476 OA
BRANCH  20  21
ATOM     21  C   UNL     1       5.457  -4.723 -10.777  0.00  0.00    +0.349 C 
BRANCH  21  22
ATOM     22  C   UNL     1       6.268  -5.668 -11.626  0.00  0.00    +0.345 C 
ATOM     23  O   UNL     1       7.102  -6.376 -11.113  0.00  0.00    -0.247 OA
BRANCH  22  24
ATOM     24  O   UNL     1       6.063  -5.723 -12.951  0.00  0.00    -0.466 OA
ATOM     25  C   UNL     1       6.867  -6.642 -13.694  0.00  0.00    +0.280 C 
ENDBRANCH  22  24
ENDBRANCH  21  22
ENDBRANCH  20  21
ENDBRANCH  14  20
ENDBRANCH   7  11
BRANCH  10  26
ATOM     26  C   UNL     1       0.626  -6.032  -2.775  0.00  0.00    +0.065 A 
ATOM     27  C   UNL     1       0.699  -6.441  -4.109  0.00  0.00    +0.028 A 
ATOM     28  C   UNL     1       0.998  -7.753  -4.410  0.00  0.00    +0.005 A 
ATOM     29  C   UNL     1       1.225  -8.665  -3.394  0.00  0.00    -0.050 A 
ATOM     30  C   UNL     1       1.154  -8.268  -2.070  0.00  0.00    +0.005 A 
ATOM     31  C   UNL     1       0.862  -6.958  -1.754  0.00  0.00    +0.028 A 
ATOM     32  C   UNL     1       1.551 -10.097  -3.730  0.00  0.00    +0.044 C 
ENDBRANCH  10  26
BRANCH   1  33
ATOM     33  O   UNL     1      -0.276  -0.455  -1.866  0.00  0.00    -0.461 OA
BRANCH  33  35
ATOM     34  C   UNL     1      -1.212   1.538  -0.870  0.00  0.00    +0.048 C 
ATOM     35  C   UNL     1      -1.191   0.008  -0.871  0.00  0.00    +0.229 C 
ENDBRANCH  33  35
ENDBRANCH   1  33
TORSDOF 9
