REMARK  Name = ZINC35073154
REMARK  12 active torsions:
REMARK  status: ('A' for Active; 'I' for Inactive)
REMARK    1  A    between atoms: C_1  and  C_2
REMARK    2  A    between atoms: C_2  and  C_3
REMARK    3  A    between atoms: C_3  and  C_5
REMARK    4  A    between atoms: C_3  and  N_24
REMARK    5  A    between atoms: N_15  and  C_16
REMARK    6  A    between atoms: N_24  and  C_25
REMARK    7  A    between atoms: C_25  and  C_26
REMARK    8  A    between atoms: C_26  and  C_27
REMARK    9  A    between atoms: C_27  and  C_28
REMARK   10  A    between atoms: C_27  and  C_29
REMARK   11  A    between atoms: C_30  and  C_32
REMARK   12  A    between atoms: C_32  and  C_33
REMARK                            x       y       z     vdW  Elec       q    Type
REMARK                         _______ _______ _______ _____ _____    ______ ____
ROOT
ATOM      1  C   UNL     1       0.836  -2.275  -1.379  0.00  0.00    +0.138 A 
ATOM      2  N   UNL     1       0.506  -2.895  -0.287  0.00  0.00    -0.231 NA
ATOM      3  C   UNL     1       0.421  -4.248  -0.236  0.00  0.00    +0.078 A 
ATOM      4  C   UNL     1       0.066  -4.916   0.938  0.00  0.00    +0.028 A 
ATOM      5  C   UNL     1      -0.009  -6.290   0.945  0.00  0.00    +0.002 A 
ATOM      6  C   UNL     1       0.264  -7.024  -0.203  0.00  0.00    +0.001 A 
ATOM      7  C   UNL     1       0.616  -6.388  -1.373  0.00  0.00    +0.015 A 
ATOM      8  C   UNL     1       0.698  -4.997  -1.401  0.00  0.00    +0.065 A 
ATOM      9  C   UNL     1       1.069  -4.265  -2.621  0.00  0.00    +0.266 A 
ATOM     10  O   UNL     1       1.319  -4.850  -3.659  0.00  0.00    -0.267 OA
ATOM     11  N   UNL     1       1.115  -2.914  -2.547  0.00  0.00    -0.263 N 
ENDROOT
BRANCH  11  12
ATOM     12  C   UNL     1       1.457  -2.168  -3.683  0.00  0.00    +0.053 A 
ATOM     13  C   UNL     1       2.768  -2.162  -4.141  0.00  0.00    +0.029 A 
ATOM     14  C   UNL     1       3.104  -1.427  -5.261  0.00  0.00    +0.042 A 
ATOM     15  C   UNL     1       2.135  -0.695  -5.926  0.00  0.00    +0.142 A 
ATOM     16  C   UNL     1       0.827  -0.699  -5.471  0.00  0.00    +0.078 A 
ATOM     17  C   UNL     1       0.486  -1.438  -4.354  0.00  0.00    +0.049 A 
ATOM     18 CL   UNL     1      -0.386   0.219  -6.307  0.00  0.00    -0.081 Cl
ATOM     19  F   UNL     1       2.467   0.024  -7.021  0.00  0.00    -0.204 F 
ENDBRANCH  11  12
BRANCH   1  20
ATOM     20  C   UNL     1       0.908  -0.770  -1.353  0.00  0.00    +0.142 C 
BRANCH  20  21
ATOM     21  N   UNL     1       2.311  -0.348  -1.323  0.00  0.00    -0.291 N 
ATOM     22  C   UNL     1       2.775   0.517  -2.246  0.00  0.00    +0.221 C 
ATOM     23  O   UNL     1       2.031   0.947  -3.102  0.00  0.00    -0.275 OA
BRANCH  21  24
ATOM     24  C   UNL     1       3.210  -0.868  -0.289  0.00  0.00    +0.109 C 
BRANCH  24  25
ATOM     25  C   UNL     1       3.969  -2.079  -0.834  0.00  0.00    +0.022 C 
BRANCH  25  26
ATOM     26  C   UNL     1       4.810  -2.700   0.283  0.00  0.00    -0.016 C 
ATOM     27  C   UNL     1       5.470  -3.982  -0.227  0.00  0.00    +0.007 C 
ATOM     28  C   UNL     1       5.890  -1.708   0.719  0.00  0.00    +0.007 C 
ENDBRANCH  25  26
ENDBRANCH  24  25
ENDBRANCH  21  24
BRANCH  22  29
ATOM     29  C   UNL     1       4.218   0.950  -2.215  0.00  0.00    +0.138 C 
BRANCH  29  30
ATOM     30  C   UNL     1       4.478   1.912  -3.346  0.00  0.00    -0.001 A 
ATOM     31  C   UNL     1       4.375   3.263  -3.358  0.00  0.00    +0.011 A 
ATOM     32  C   UNL     1       4.667   3.948  -4.522  0.00  0.00    +0.008 A 
ATOM     33  C   UNL     1       5.049   3.247  -5.619  0.00  0.00    +0.045 A 
ATOM     34  S   UNL     1       5.009   1.568  -5.015  0.00  0.00    -0.101 S 
ENDBRANCH  29  30
ENDBRANCH  22  29
ENDBRANCH  20  21
BRANCH  20  36
ATOM     35  C   UNL     1       0.150   1.282  -0.146  0.00  0.00    +0.006 C 
ATOM     36  C   UNL     1       0.192  -0.247  -0.106  0.00  0.00    +0.027 C 
ENDBRANCH  20  36
ENDBRANCH   1  20
TORSDOF 9
