REMARK  Name = ZINC38703101
REMARK  10 active torsions:
REMARK  status: ('A' for Active; 'I' for Inactive)
REMARK    1  A    between atoms: C_1  and  C_2
REMARK    2  A    between atoms: C_2  and  C_3
REMARK    3  A    between atoms: C_3  and  C_4
REMARK    4  A    between atoms: C_4  and  C_5
REMARK    5  A    between atoms: C_5  and  C_6
REMARK    6  A    between atoms: C_6  and  O_7
REMARK    7  A    between atoms: O_7  and  C_8
REMARK    8  A    between atoms: C_11  and  C_14
REMARK    9  A    between atoms: C_21  and  C_31
REMARK   10  A    between atoms: C_22  and  C_30
REMARK                            x       y       z     vdW  Elec       q    Type
REMARK                         _______ _______ _______ _____ _____    ______ ____
ROOT
ATOM      1  C   UNL     1       2.666 -10.133   4.226  0.00  0.00    +0.141 C 
ATOM      2  C   UNL     1       4.029 -10.586   3.819  0.00  0.00    +0.072 A 
ATOM      3  C   UNL     1       4.730 -10.505   2.533  0.00  0.00    +0.199 A 
ATOM      4  O   UNL     1       4.318  -9.856   1.588  0.00  0.00    -0.287 OA
ATOM      5  C   UNL     1       5.991 -11.288   2.493  0.00  0.00    +0.065 A 
ATOM      6  C   UNL     1       6.669 -11.475   1.289  0.00  0.00    +0.019 A 
ATOM      7  C   UNL     1       7.827 -12.202   1.268  0.00  0.00    -0.047 A 
ATOM      8  C   UNL     1       8.326 -12.754   2.440  0.00  0.00    -0.044 A 
ATOM      9  C   UNL     1       7.671 -12.578   3.638  0.00  0.00    +0.050 A 
ATOM     10  C   UNL     1       6.489 -11.838   3.686  0.00  0.00    +0.140 A 
ATOM     11  O   UNL     1       5.867 -11.669   4.875  0.00  0.00    -0.450 OA
ATOM     12  C   UNL     1       4.620 -11.160   4.908  0.00  0.00    +0.199 A 
ATOM     13  C   UNL     1       3.671 -11.102   6.034  0.00  0.00    +0.281 C 
ATOM     14  O   UNL     1       3.887 -11.531   7.149  0.00  0.00    -0.267 OA
ATOM     15  N   UNL     1       2.525 -10.503   5.644  0.00  0.00    -0.298 N 
ATOM     16  C   UNL     1       9.601 -13.556   2.400  0.00  0.00    +0.044 C 
ATOM     17  C   UNL     1       8.562 -12.406  -0.031  0.00  0.00    +0.044 C 
ATOM     18  H   UNL     1       1.746 -10.343   6.200  0.00  0.00    +0.150 HD
ENDROOT
BRANCH   1  22
ATOM     19  C   UNL     1       2.324  -5.897   3.768  0.00  0.00    +0.121 A 
ATOM     20  C   UNL     1       1.781  -6.746   2.813  0.00  0.00    +0.046 A 
ATOM     21  C   UNL     1       1.893  -8.114   2.964  0.00  0.00    +0.009 A 
ATOM     22  C   UNL     1       2.545  -8.639   4.065  0.00  0.00    -0.022 A 
ATOM     23  C   UNL     1       3.086  -7.796   5.018  0.00  0.00    +0.009 A 
ATOM     24  C   UNL     1       2.982  -6.426   4.869  0.00  0.00    +0.046 A 
BRANCH  19  25
ATOM     25  O   UNL     1       2.215  -4.551   3.622  0.00  0.00    -0.492 OA
BRANCH  25  26
ATOM     26  C   UNL     1       1.524  -4.077   2.464  0.00  0.00    +0.229 C 
BRANCH  26  27
ATOM     27  C   UNL     1       1.503  -2.548   2.473  0.00  0.00    +0.041 C 
BRANCH  27  28
ATOM     28  C   UNL     1       0.763  -2.041   1.233  0.00  0.00    +0.003 C 
BRANCH  28  29
ATOM     29  C   UNL     1       0.742  -0.511   1.242  0.00  0.00    -0.000 C 
BRANCH  29  31
ATOM     30  C   UNL     1      -0.019   1.526   0.010  0.00  0.00    +0.004 C 
ATOM     31  C   UNL     1       0.002  -0.004   0.002  0.00  0.00    -0.003 C 
ENDBRANCH  29  31
ENDBRANCH  28  29
ENDBRANCH  27  28
ENDBRANCH  26  27
ENDBRANCH  25  26
ENDBRANCH  19  25
ENDBRANCH   1  22
TORSDOF 7
