REMARK  Name = ZINC34685745
REMARK  10 active torsions:
REMARK  status: ('A' for Active; 'I' for Inactive)
REMARK    1  A    between atoms: C_1  and  C_2
REMARK    2  A    between atoms: C_9  and  C_11
REMARK    3  A    between atoms: C_14  and  C_16
REMARK    4  A    between atoms: C_16  and  O_17
REMARK    5  A    between atoms: O_17  and  C_18
REMARK    6  A    between atoms: C_24  and  C_35
REMARK    7  A    between atoms: C_29  and  C_31
REMARK    8  A    between atoms: C_31  and  C_32
REMARK    9  A    between atoms: C_32  and  C_33
REMARK   10  A    between atoms: C_32  and  C_34
REMARK                            x       y       z     vdW  Elec       q    Type
REMARK                         _______ _______ _______ _____ _____    ______ ____
ROOT
ATOM      1  C   UNL     1      -0.810  -9.743   2.343  0.00  0.00    +0.122 A 
ATOM      2  C   UNL     1       0.359 -10.491   2.378  0.00  0.00    +0.046 A 
ATOM      3  C   UNL     1       0.618 -11.305   3.459  0.00  0.00    +0.007 A 
ATOM      4  C   UNL     1      -0.278 -11.383   4.519  0.00  0.00    -0.040 A 
ATOM      5  C   UNL     1      -1.433 -10.634   4.490  0.00  0.00    -0.016 A 
ATOM      6  C   UNL     1      -1.699  -9.814   3.402  0.00  0.00    +0.051 A 
ATOM      7  C   UNL     1      -2.434 -10.649   5.618  0.00  0.00    +0.137 C 
ATOM      8  N   UNL     1      -2.123 -11.747   6.539  0.00  0.00    -0.290 N 
ATOM      9  C   UNL     1      -0.712 -11.933   6.917  0.00  0.00    +0.113 C 
ATOM     10  C   UNL     1       0.067 -12.307   5.657  0.00  0.00    +0.054 C 
ATOM     11  C   UNL     1      -3.089 -12.553   7.021  0.00  0.00    +0.217 C 
ATOM     12  O   UNL     1      -4.252 -12.333   6.754  0.00  0.00    -0.276 OA
ENDROOT
BRANCH   7  13
ATOM     13  C   UNL     1      -3.819 -10.843   5.058  0.00  0.00    -0.023 A 
ATOM     14  C   UNL     1      -4.170 -12.051   4.484  0.00  0.00    +0.006 A 
ATOM     15  C   UNL     1      -5.441 -12.230   3.970  0.00  0.00    +0.000 A 
ATOM     16  C   UNL     1      -6.361 -11.200   4.030  0.00  0.00    +0.000 A 
ATOM     17  C   UNL     1      -6.011  -9.992   4.604  0.00  0.00    +0.000 A 
ATOM     18  C   UNL     1      -4.741  -9.816   5.122  0.00  0.00    +0.006 A 
ENDBRANCH   7  13
BRANCH   1  19
ATOM     19  O   UNL     1      -1.076  -8.941   1.279  0.00  0.00    -0.483 OA
BRANCH  19  20
ATOM     20  C   UNL     1      -0.112  -8.919   0.225  0.00  0.00    +0.324 C 
BRANCH  20  24
ATOM     21  C   UNL     1      -0.890  -6.201  -2.040  0.00  0.00    +0.164 A 
ATOM     22  C   UNL     1      -1.539  -7.226  -2.656  0.00  0.00    +0.230 A 
ATOM     23  O   UNL     1      -1.333  -8.324  -1.911  0.00  0.00    -0.444 OA
ATOM     24  C   UNL     1      -0.575  -7.981  -0.860  0.00  0.00    +0.234 A 
ATOM     25  N   UNL     1      -0.298  -6.713  -0.927  0.00  0.00    -0.206 NA
BRANCH  21  33
ATOM     26  C   UNL     1       1.757  -0.730  -2.826  0.00  0.00    -0.012 C 
ATOM     27  C   UNL     1       1.587  -2.203  -2.450  0.00  0.00    -0.057 C 
ATOM     28  C   UNL     1       0.094  -2.534  -2.345  0.00  0.00    +0.092 C 
ATOM     29  N   UNL     1      -0.044  -3.915  -1.857  0.00  0.00    -0.300 N 
ATOM     30  C   UNL     1       0.706  -4.302  -0.652  0.00  0.00    +0.089 C 
ATOM     31  C   UNL     1       2.169  -3.887  -0.836  0.00  0.00    -0.063 C 
ATOM     32  N   UNL     1       2.235  -2.456  -1.157  0.00  0.00    +0.383 N 
ATOM     33  C   UNL     1      -0.835  -4.800  -2.495  0.00  0.00    +0.268 C 
ATOM     34  O   UNL     1      -1.503  -4.443  -3.446  0.00  0.00    -0.268 OA
ATOM     35  H   UNL     1       3.200  -2.166  -1.203  0.00  0.00    -0.085 HD
ATOM     36  H   UNL     1       1.763  -1.929  -0.437  0.00  0.00    -0.085 HD
ENDBRANCH  21  33
ENDBRANCH  20  24
ENDBRANCH  19  20
ENDBRANCH   1  19
BRANCH  11  37
ATOM     37  C   UNL     1      -2.726 -13.729   7.891  0.00  0.00    +0.099 C 
BRANCH  37  38
ATOM     38  C   UNL     1      -3.998 -14.473   8.300  0.00  0.00    -0.008 C 
ATOM     39  C   UNL     1      -4.657 -15.078   7.058  0.00  0.00    +0.008 C 
ATOM     40  C   UNL     1      -3.642 -15.591   9.283  0.00  0.00    +0.008 C 
ENDBRANCH  37  38
ENDBRANCH  11  37
TORSDOF 7
