REMARK  Name = ZINC03015301
REMARK  4 active torsions:
REMARK  status: ('A' for Active; 'I' for Inactive)
REMARK    1  A    between atoms: C_13  and  C_15
REMARK    2  A    between atoms: C_18  and  S_24
REMARK    3  A    between atoms: C_19  and  N_21
REMARK    4  A    between atoms: S_24  and  C_25
REMARK                            x       y       z     vdW  Elec       q    Type
REMARK                         _______ _______ _______ _____ _____    ______ ____
ROOT
ATOM      1  C   UNL     1       0.208   9.339  -2.696  0.00  0.00    +0.039 A 
ATOM      2  C   UNL     1      -1.138   8.964  -2.746  0.00  0.00    +0.014 A 
ATOM      3  C   UNL     1      -1.944   9.440  -3.740  0.00  0.00    +0.018 A 
ATOM      4  C   UNL     1      -1.427  10.290  -4.715  0.00  0.00    +0.043 A 
ATOM      5  C   UNL     1      -0.086  10.665  -4.676  0.00  0.00    +0.141 A 
ATOM      6  C   UNL     1       0.730  10.193  -3.673  0.00  0.00    +0.047 A 
ENDROOT
BRANCH   1  19
ATOM      7  C   UNL     1       0.209   9.758   5.839  0.00  0.00    +0.005 A 
ATOM      8  C   UNL     1      -0.535  10.930   5.888  0.00  0.00    +0.018 A 
ATOM      9  C   UNL     1      -1.107  11.417   4.730  0.00  0.00    +0.084 A 
ATOM     10  N   UNL     1      -0.959  10.782   3.583  0.00  0.00    -0.350 N 
ATOM     11  C   UNL     1      -0.262   9.660   3.496  0.00  0.00    +0.099 A 
ATOM     12  C   UNL     1       0.342   9.112   4.623  0.00  0.00    +0.042 A 
ATOM     13  N   UNL     1      -0.132   9.023   2.267  0.00  0.00    -0.314 N 
ATOM     14  C   UNL     1       1.283   8.829   1.921  0.00  0.00    +0.125 C 
ATOM     15  C   UNL     1       1.383   7.970   0.657  0.00  0.00    +0.127 C 
ATOM     16  N   UNL     1       0.565   8.590  -0.396  0.00  0.00    -0.295 N 
ATOM     17  C   UNL     1      -0.828   8.940  -0.080  0.00  0.00    +0.127 C 
ATOM     18  C   UNL     1      -0.841   9.762   1.214  0.00  0.00    +0.125 C 
ATOM     19  C   UNL     1       1.078   8.831  -1.619  0.00  0.00    +0.247 C 
ATOM     20  O   UNL     1       2.257   8.628  -1.834  0.00  0.00    -0.270 OA
ATOM     21  H   UNL     1      -1.421  11.182   2.669  0.00  0.00    +0.166 HD
ENDBRANCH   1  19
BRANCH   5  22
ATOM     22  N   UNL     1       0.461  11.569  -5.712  0.00  0.00    +0.058 N 
ATOM     23  O   UNL     1       1.633  11.897  -5.678  0.00  0.00    -0.126 OA
ATOM     24  O   UNL     1      -0.262  11.986  -6.599  0.00  0.00    -0.126 OA
ENDBRANCH   5  22
BRANCH   4  25
ATOM     25  S   UNL     1      -2.472  10.895  -5.999  0.00  0.00    -0.087 S 
BRANCH  25  26
ATOM     26  C   UNL     1      -2.837  12.547  -5.509  0.00  0.00    +0.013 A 
ATOM     27  C   UNL     1      -2.413  13.017  -4.272  0.00  0.00    +0.016 A 
ATOM     28  C   UNL     1      -2.695  14.315  -3.894  0.00  0.00    +0.016 A 
ATOM     29  C   UNL     1      -3.410  15.143  -4.740  0.00  0.00    +0.018 A 
ATOM     30  C   UNL     1      -3.840  14.677  -5.970  0.00  0.00    +0.016 A 
ATOM     31  C   UNL     1      -3.555  13.382  -6.357  0.00  0.00    +0.016 A 
ATOM     32 BR   UNL     1      -3.802  16.917  -4.215  0.00  0.00    -0.050 Br
ENDBRANCH  25  26
ENDBRANCH   4  25
TORSDOF 4
