REMARK  Name = ZINC19210575
REMARK  10 active torsions:
REMARK  status: ('A' for Active; 'I' for Inactive)
REMARK    1  A    between atoms: C_1  and  C_2
REMARK    2  A    between atoms: C_5  and  N_8
REMARK    3  A    between atoms: C_13  and  C_31
REMARK    4  A    between atoms: C_16  and  C_21
REMARK    5  A    between atoms: C_16  and  C_27
REMARK    6  A    between atoms: C_27  and  O_29
REMARK    7  A    between atoms: O_29  and  C_30
REMARK    8  A    between atoms: C_34  and  O_39
REMARK    9  A    between atoms: C_35  and  O_37
REMARK   10  A    between atoms: O_37  and  C_38
REMARK                            x       y       z     vdW  Elec       q    Type
REMARK                         _______ _______ _______ _____ _____    ______ ____
ROOT
ATOM      1  N   UNL     1       0.173  -4.242  -0.220  0.00  0.00    -0.210 N 
ATOM      2  C   UNL     1       0.184  -5.062  -1.321  0.00  0.00    +0.232 C 
ATOM      3  O   UNL     1      -0.009  -4.751  -2.477  0.00  0.00    -0.274 OA
ATOM      4  C   UNL     1       0.475  -6.375  -0.800  0.00  0.00    +0.112 C 
ATOM      5  C   UNL     1       0.341  -7.796  -1.161  0.00  0.00    +0.098 C 
ATOM      6  N   UNL     1       0.700  -8.483   0.128  0.00  0.00    -0.290 NA
ATOM      7  C   UNL     1       0.462  -7.517   1.242  0.00  0.00    +0.155 C 
ATOM      8  C   UNL     1      -0.275  -6.337   0.591  0.00  0.00    +0.125 C 
ATOM      9  C   UNL     1       0.147  -4.938   0.956  0.00  0.00    +0.233 C 
ATOM     10  O   UNL     1       0.408  -4.516   2.062  0.00  0.00    -0.274 OA
ATOM     11  H   UNL     1       0.154  -9.322   0.255  0.00  0.00    +0.124 HD
ENDROOT
BRANCH   1  16
ATOM     12  C   UNL     1       0.249   1.425  -0.518  0.00  0.00    +0.044 C 
ATOM     13  C   UNL     1       0.229  -0.080  -0.439  0.00  0.00    -0.050 A 
ATOM     14  C   UNL     1       0.236  -0.832  -1.599  0.00  0.00    +0.005 A 
ATOM     15  C   UNL     1       0.218  -2.211  -1.530  0.00  0.00    +0.024 A 
ATOM     16  C   UNL     1       0.192  -2.842  -0.293  0.00  0.00    +0.044 A 
ATOM     17  C   UNL     1       0.185  -2.084   0.870  0.00  0.00    +0.024 A 
ATOM     18  C   UNL     1       0.208  -0.706   0.794  0.00  0.00    +0.005 A 
ENDBRANCH   1  16
BRANCH   7  19
ATOM     19  C   UNL     1      -0.412  -8.144   2.298  0.00  0.00    -0.016 A 
ATOM     20  C   UNL     1      -1.280  -7.357   3.033  0.00  0.00    +0.006 A 
ATOM     21  C   UNL     1      -2.081  -7.932   4.002  0.00  0.00    +0.000 A 
ATOM     22  C   UNL     1      -2.015  -9.293   4.236  0.00  0.00    +0.000 A 
ATOM     23  C   UNL     1      -1.147 -10.079   3.501  0.00  0.00    +0.000 A 
ATOM     24  C   UNL     1      -0.349  -9.505   2.529  0.00  0.00    +0.006 A 
ENDBRANCH   7  19
BRANCH   5  25
ATOM     25  C   UNL     1       1.308  -8.167  -2.255  0.00  0.00    -0.026 A 
ATOM     26  C   UNL     1       2.631  -8.428  -1.948  0.00  0.00    +0.009 A 
ATOM     27  C   UNL     1       3.522  -8.769  -2.949  0.00  0.00    +0.049 A 
ATOM     28  C   UNL     1       3.090  -8.849  -4.263  0.00  0.00    +0.158 A 
ATOM     29  C   UNL     1       1.759  -8.586  -4.572  0.00  0.00    +0.162 A 
ATOM     30  C   UNL     1       0.870  -8.251  -3.564  0.00  0.00    +0.054 A 
BRANCH  29  31
ATOM     31  O   UNL     1       1.330  -8.664  -5.861  0.00  0.00    -0.491 OA
ATOM     32  C   UNL     1      -0.049  -8.381  -6.104  0.00  0.00    +0.277 C 
ENDBRANCH  29  31
BRANCH  28  33
ATOM     33  O   UNL     1       3.965  -9.183  -5.249  0.00  0.00    -0.503 OA
ATOM     34  H   UNL     1       4.023 -10.134  -5.418  0.00  0.00    +0.292 HD
ENDBRANCH  28  33
ENDBRANCH   5  25
BRANCH   7  35
ATOM     35  C   UNL     1       1.773  -7.078   1.841  0.00  0.00    +0.333 C 
ATOM     36  O   UNL     1       1.847  -6.839   3.023  0.00  0.00    -0.248 OA
BRANCH  35  37
ATOM     37  O   UNL     1       2.859  -6.954   1.062  0.00  0.00    -0.466 OA
ATOM     38  C   UNL     1       4.069  -6.534   1.696  0.00  0.00    +0.280 C 
ENDBRANCH  35  37
ENDBRANCH   7  35
TORSDOF 7
