REMARK  Name = ZINC20989754
REMARK  4 active torsions:
REMARK  status: ('A' for Active; 'I' for Inactive)
REMARK    1  A    between atoms: C_3  and  N_8
REMARK    2  A    between atoms: N_8  and  S_9
REMARK    3  A    between atoms: S_9  and  C_12
REMARK    4  A    between atoms: C_20  and  C_23
REMARK                            x       y       z     vdW  Elec       q    Type
REMARK                         _______ _______ _______ _____ _____    ______ ____
ROOT
ATOM      1  C   UNL     1       8.536   2.946   2.347  0.00  0.00    +0.112 A 
ATOM      2  C   UNL     1       8.978   1.779   1.751  0.00  0.00    +0.032 A 
ATOM      3  C   UNL     1       8.079   0.937   1.126  0.00  0.00    +0.051 A 
ATOM      4  C   UNL     1       6.730   1.260   1.094  0.00  0.00    +0.163 A 
ATOM      5  C   UNL     1       6.286   2.433   1.692  0.00  0.00    +0.164 A 
ATOM      6  C   UNL     1       7.194   3.274   2.318  0.00  0.00    +0.078 A 
ATOM      7  O   UNL     1       4.968   2.773   1.665  0.00  0.00    -0.484 OA
ATOM      8  C   UNL     1       4.040   1.728   1.354  0.00  0.00    +0.283 C 
ATOM      9  C   UNL     1       4.574   0.959   0.138  0.00  0.00    +0.296 C 
ATOM     10  O   UNL     1       5.856   0.419   0.476  0.00  0.00    -0.473 OA
ENDROOT
BRANCH   9  11
ATOM     11  C   UNL     1       3.627  -0.161  -0.210  0.00  0.00    +0.260 C 
ATOM     12  O   UNL     1       3.943  -1.312   0.005  0.00  0.00    -0.271 OA
ATOM     13  N   UNL     1       2.428   0.117  -0.760  0.00  0.00    -0.298 N 
ATOM     14  C   UNL     1       1.586  -0.982  -1.177  0.00  0.00    +0.108 C 
ATOM     15  C   UNL     1       1.911  -1.357  -2.645  0.00  0.00    +0.019 C 
ATOM     16  C   UNL     1       1.424  -0.312  -3.559  0.00  0.00    +0.002 C 
ATOM     17  C   UNL     1       2.081   1.051  -3.363  0.00  0.00    +0.002 C 
ATOM     18  C   UNL     1       1.360   1.801  -2.271  0.00  0.00    +0.019 C 
ATOM     19  C   UNL     1       2.029   1.530  -0.911  0.00  0.00    +0.108 C 
ENDBRANCH   9  11
BRANCH   1  20
ATOM     20  S   UNL     1       9.686   4.017   3.144  0.00  0.00    +0.072 S 
ATOM     21  O   UNL     1       8.971   4.689   4.172  0.00  0.00    -0.150 OA
ATOM     22  O   UNL     1      10.848   3.242   3.406  0.00  0.00    -0.150 OA
BRANCH  20  23
ATOM     23  N   UNL     1      10.126   5.171   2.041  0.00  0.00    -0.216 N 
ATOM     24  H   UNL     1      11.170   5.241   1.704  0.00  0.00    +0.174 HD
BRANCH  23  27
ATOM     25  C   UNL     1       7.757   7.974   1.831  0.00  0.00    +0.005 A 
ATOM     26  C   UNL     1       8.703   7.099   2.330  0.00  0.00    +0.024 A 
ATOM     27  C   UNL     1       9.170   6.057   1.539  0.00  0.00    +0.051 A 
ATOM     28  C   UNL     1       8.688   5.901   0.245  0.00  0.00    +0.062 A 
ATOM     29  C   UNL     1       7.738   6.777  -0.247  0.00  0.00    +0.125 A 
ATOM     30  C   UNL     1       7.274   7.814   0.546  0.00  0.00    +0.038 A 
ATOM     31  F   UNL     1       7.265   6.623  -1.503  0.00  0.00    -0.205 F 
ENDBRANCH  23  27
ENDBRANCH  20  23
ENDBRANCH   1  20
TORSDOF 4
