REMARK  Name = ZINC20568202
REMARK  13 active torsions:
REMARK  status: ('A' for Active; 'I' for Inactive)
REMARK    1  A    between atoms: C_1  and  C_2
REMARK    2  A    between atoms: C_2  and  C_32
REMARK    3  A    between atoms: C_4  and  N_10
REMARK    4  A    between atoms: C_6  and  C_8
REMARK    5  A    between atoms: C_6  and  C_9
REMARK    6  A    between atoms: N_10  and  C_11
REMARK    7  A    between atoms: N_10  and  C_21
REMARK    8  A    between atoms: C_11  and  C_12
REMARK    9  A    between atoms: C_15  and  N_18
REMARK   10  A    between atoms: N_18  and  C_19
REMARK   11  A    between atoms: N_18  and  C_20
REMARK   12  A    between atoms: C_21  and  N_23
REMARK   13  A    between atoms: N_23  and  C_24
REMARK                            x       y       z     vdW  Elec       q    Type
REMARK                         _______ _______ _______ _____ _____    ______ ____
ROOT
ATOM      1  N   UNL     1       1.271   3.191  -3.507  0.00  0.00    -0.305 N 
ENDROOT
BRANCH   1   5
ATOM      2  C   UNL     1       2.998   2.887   1.080  0.00  0.00    -0.010 C 
ATOM      3  C   UNL     1       1.889   2.357   0.144  0.00  0.00    -0.072 C 
ATOM      4  C   UNL     1       2.175   2.892  -1.257  0.00  0.00    +0.009 C 
ATOM      5  C   UNL     1       0.977   2.648  -2.175  0.00  0.00    +0.073 C 
ATOM      6  C   UNL     1      -0.237   3.371  -1.592  0.00  0.00    +0.009 C 
ATOM      7  C   UNL     1      -0.552   2.839  -0.196  0.00  0.00    -0.072 C 
ATOM      8  N   UNL     1       0.610   2.792   0.666  0.00  0.00    +0.386 N 
ATOM      9  C   UNL     1      -1.214   1.461  -0.310  0.00  0.00    -0.010 C 
ATOM     10  C   UNL     1      -1.587   3.792   0.441  0.00  0.00    -0.010 C 
ATOM     11  C   UNL     1       1.993   0.827   0.139  0.00  0.00    -0.010 C 
ATOM     12  H   UNL     1       0.303   2.126   1.485  0.00  0.00    -0.084 HD
ATOM     13  H   UNL     1       0.700   3.821   1.044  0.00  0.00    -0.084 HD
ENDBRANCH   1   5
BRANCH   1  14
ATOM     14  C   UNL     1       1.365   2.364  -4.567  0.00  0.00    +0.138 C 
ATOM     15  S   UNL     1       1.808   2.983  -6.100  0.00  0.00    -0.018 S 
BRANCH  14  16
ATOM     16  N   UNL     1       1.111   1.049  -4.419  0.00  0.00    -0.296 N 
ATOM     17  H   UNL     1       0.134   0.640  -4.719  0.00  0.00    +0.154 HD
BRANCH  16  18
ATOM     18  C   UNL     1       2.089   0.202  -3.886  0.00  0.00    +0.053 A 
ATOM     19  C   UNL     1       3.310   0.721  -3.478  0.00  0.00    +0.044 A 
ATOM     20  C   UNL     1       4.274  -0.118  -2.950  0.00  0.00    +0.043 A 
ATOM     21  C   UNL     1       4.022  -1.473  -2.829  0.00  0.00    +0.021 A 
ATOM     22  C   UNL     1       2.807  -1.993  -3.234  0.00  0.00    +0.023 A 
ATOM     23  C   UNL     1       1.837  -1.159  -3.757  0.00  0.00    +0.062 A 
ATOM     24 CL   UNL     1       0.309  -1.811  -4.260  0.00  0.00    -0.082 Cl
ATOM     25 CL   UNL     1       5.802   0.530  -2.440  0.00  0.00    -0.083 Cl
ENDBRANCH  16  18
ENDBRANCH  14  16
ENDBRANCH   1  14
BRANCH   1  26
ATOM     26  C   UNL     1       1.461   4.633  -3.684  0.00  0.00    +0.142 C 
BRANCH  26  27
ATOM     27  C   UNL     1       2.917   4.974  -3.502  0.00  0.00    -0.030 A 
ATOM     28  C   UNL     1       3.366   5.454  -2.285  0.00  0.00    +0.007 A 
ATOM     29  C   UNL     1       4.702   5.762  -2.113  0.00  0.00    +0.023 A 
ATOM     30  C   UNL     1       5.592   5.600  -3.167  0.00  0.00    +0.029 A 
ATOM     31  C   UNL     1       5.136   5.122  -4.389  0.00  0.00    +0.023 A 
ATOM     32  C   UNL     1       3.801   4.811  -4.553  0.00  0.00    +0.007 A 
BRANCH  30  33
ATOM     33  N   UNL     1       6.942   5.916  -2.998  0.00  0.00    -0.336 N 
ATOM     34  C   UNL     1       7.879   5.745  -4.111  0.00  0.00    +0.129 C 
ATOM     35  C   UNL     1       7.420   6.419  -1.708  0.00  0.00    +0.129 C 
ENDBRANCH  30  33
ENDBRANCH  26  27
ENDBRANCH   1  26
TORSDOF 7
