REMARK  Name = ZINC13029291
REMARK  16 active torsions:
REMARK  status: ('A' for Active; 'I' for Inactive)
REMARK    1  A    between atoms: C_1  and  C_2
REMARK    2  A    between atoms: C_5  and  C_8
REMARK    3  A    between atoms: C_8  and  N_9
REMARK    4  A    between atoms: N_9  and  C_10
REMARK    5  A    between atoms: C_10  and  C_12
REMARK    6  A    between atoms: C_10  and  C_22
REMARK    7  A    between atoms: C_16  and  O_20
REMARK    8  A    between atoms: C_17  and  O_18
REMARK    9  A    between atoms: O_18  and  C_19
REMARK   10  A    between atoms: O_20  and  C_21
REMARK   11  A    between atoms: N_24  and  C_25
REMARK   12  A    between atoms: C_25  and  C_26
REMARK   13  A    between atoms: C_25  and  C_27
REMARK   14  A    between atoms: C_25  and  C_28
REMARK   15  A    between atoms: C_29  and  C_31
REMARK   16  A    between atoms: C_31  and  N_32
REMARK                            x       y       z     vdW  Elec       q    Type
REMARK                         _______ _______ _______ _____ _____    ______ ____
ROOT
ATOM      1  N   UNL     1       1.181   2.803   3.939  0.00  0.00    -0.280 N 
ATOM      2  C   UNL     1       1.478   3.949   4.583  0.00  0.00    +0.238 C 
ATOM      3  O   UNL     1       2.246   4.744   4.083  0.00  0.00    -0.274 OA
ENDROOT
BRANCH   1   4
ATOM      4  C   UNL     1       0.166   1.898   4.485  0.00  0.00    +0.144 C 
BRANCH   4   9
ATOM      5  C   UNL     1       2.740  -2.205   7.636  0.00  0.00    +0.044 C 
ATOM      6  C   UNL     1       2.068  -1.135   6.815  0.00  0.00    -0.050 A 
ATOM      7  C   UNL     1       1.574   0.000   7.429  0.00  0.00    +0.003 A 
ATOM      8  C   UNL     1       0.959   0.982   6.675  0.00  0.00    +0.005 A 
ATOM      9  C   UNL     1       0.837   0.828   5.307  0.00  0.00    -0.030 A 
ATOM     10  C   UNL     1       1.327  -0.310   4.693  0.00  0.00    +0.005 A 
ATOM     11  C   UNL     1       1.947  -1.289   5.446  0.00  0.00    +0.003 A 
ENDBRANCH   4   9
ENDBRANCH   1   4
BRANCH   1  12
ATOM     12  C   UNL     1       1.872   2.462   2.693  0.00  0.00    +0.196 C 
BRANCH  12  13
ATOM     13  C   UNL     1       1.734   3.600   1.715  0.00  0.00    +0.027 A 
ATOM     14  C   UNL     1       2.810   4.433   1.466  0.00  0.00    +0.010 A 
ATOM     15  C   UNL     1       2.685   5.481   0.574  0.00  0.00    +0.004 A 
ATOM     16  C   UNL     1       1.485   5.699  -0.078  0.00  0.00    +0.049 A 
ATOM     17  C   UNL     1       0.405   4.866   0.163  0.00  0.00    +0.162 A 
ATOM     18  C   UNL     1       0.531   3.810   1.061  0.00  0.00    +0.167 A 
BRANCH  18  19
ATOM     19  O   UNL     1      -0.527   2.990   1.301  0.00  0.00    -0.491 OA
ATOM     20  C   UNL     1      -0.652   1.833   0.471  0.00  0.00    +0.277 C 
ENDBRANCH  18  19
BRANCH  17  21
ATOM     21  O   UNL     1      -0.776   5.079  -0.477  0.00  0.00    -0.491 OA
ATOM     22  C   UNL     1      -0.832   6.181  -1.385  0.00  0.00    +0.277 C 
ENDBRANCH  17  21
ENDBRANCH  12  13
BRANCH  12  23
ATOM     23  C   UNL     1       3.331   2.219   2.978  0.00  0.00    +0.239 C 
ATOM     24  O   UNL     1       3.799   2.528   4.054  0.00  0.00    -0.273 OA
ATOM     25  N   UNL     1       4.118   1.659   2.038  0.00  0.00    -0.309 N 
ATOM     26  H   UNL     1       3.764   1.483   1.152  0.00  0.00    +0.149 HD
BRANCH  25  27
ATOM     27  C   UNL     1       5.506   1.315   2.354  0.00  0.00    +0.026 C 
ATOM     28  C   UNL     1       5.532   0.308   3.506  0.00  0.00    +0.031 C 
ATOM     29  C   UNL     1       6.172   0.698   1.122  0.00  0.00    +0.031 C 
ATOM     30  C   UNL     1       6.264   2.579   2.764  0.00  0.00    +0.031 C 
ENDBRANCH  25  27
ENDBRANCH  12  23
ENDBRANCH   1  12
BRANCH   2  31
ATOM     31  C   UNL     1       0.857   4.243   5.924  0.00  0.00    +0.241 C 
BRANCH  31  32
ATOM     32  N   UNL     1       1.232   5.593   6.351  0.00  0.00    -0.235 N 
ATOM     33  C   UNL     1       2.331   5.945   7.097  0.00  0.00    +0.090 A 
ATOM     34  C   UNL     1       3.390   5.234   7.652  0.00  0.00    +0.029 A 
ATOM     35  C   UNL     1       4.359   5.896   8.353  0.00  0.00    +0.002 A 
ATOM     36  C   UNL     1       4.300   7.274   8.512  0.00  0.00    +0.002 A 
ATOM     37  C   UNL     1       3.275   7.995   7.972  0.00  0.00    +0.032 A 
ATOM     38  C   UNL     1       2.269   7.341   7.249  0.00  0.00    +0.113 A 
ATOM     39  N   UNL     1       1.160   7.772   6.615  0.00  0.00    -0.129 NA
ATOM     40  N   UNL     1       0.536   6.782   6.083  0.00  0.00    -0.064 NA
ENDBRANCH  31  32
ENDBRANCH   2  31
TORSDOF 10
