REMARK  Name = ZINC33000736
REMARK  5 active torsions:
REMARK  status: ('A' for Active; 'I' for Inactive)
REMARK    1  A    between atoms: C_1  and  C_2
REMARK    2  A    between atoms: C_5  and  C_7
REMARK    3  A    between atoms: C_8  and  C_9
REMARK    4  A    between atoms: N_11  and  C_12
REMARK    5  A    between atoms: C_17  and  C_18
REMARK                            x       y       z     vdW  Elec       q    Type
REMARK                         _______ _______ _______ _____ _____    ______ ____
ROOT
ATOM      1  C   UNL     1      -8.283   3.069   2.519  0.00  0.00    +0.044 A 
ATOM      2  C   UNL     1      -8.384   3.491   3.837  0.00  0.00    +0.024 A 
ATOM      3  C   UNL     1      -9.623   3.759   4.385  0.00  0.00    +0.002 A 
ATOM      4  C   UNL     1     -10.771   3.608   3.626  0.00  0.00    +0.001 A 
ATOM      5  C   UNL     1     -10.689   3.189   2.314  0.00  0.00    +0.013 A 
ATOM      6  C   UNL     1      -9.443   2.921   1.746  0.00  0.00    +0.038 A 
ENDROOT
BRANCH   6   7
ATOM      7  C   UNL     1      -9.348   2.479   0.340  0.00  0.00    +0.141 A 
ATOM      8  N   UNL     1     -10.399   2.394  -0.532  0.00  0.00    -0.338 N 
ATOM      9  H   UNL     1     -11.412   2.668  -0.201  0.00  0.00    +0.167 HD
ATOM     10  C   UNL     1      -9.896   1.943  -1.737  0.00  0.00    +0.066 A 
ATOM     11  C   UNL     1     -10.461   1.665  -2.974  0.00  0.00    +0.028 A 
ATOM     12  C   UNL     1      -9.663   1.217  -4.005  0.00  0.00    +0.002 A 
ATOM     13  C   UNL     1      -8.300   1.042  -3.814  0.00  0.00    +0.002 A 
ATOM     14  C   UNL     1      -7.725   1.309  -2.604  0.00  0.00    +0.030 A 
ATOM     15  C   UNL     1      -8.515   1.765  -1.544  0.00  0.00    +0.089 A 
ATOM     16  N   UNL     1      -8.242   2.113  -0.262  0.00  0.00    -0.228 NA
ENDBRANCH   6   7
BRANCH   1  19
ATOM     17  C   UNL     1      -5.930   3.390   2.465  0.00  0.00    +0.241 C 
ATOM     18  O   UNL     1      -6.036   4.236   3.335  0.00  0.00    -0.270 OA
ATOM     19  N   UNL     1      -7.032   2.798   1.964  0.00  0.00    -0.281 N 
ATOM     20  H   UNL     1      -6.946   2.101   1.118  0.00  0.00    +0.155 HD
BRANCH  17  22
ATOM     21  C   UNL     1      -3.542   3.625   2.486  0.00  0.00    +0.051 C 
ATOM     22  C   UNL     1      -4.651   3.029   1.981  0.00  0.00    +0.071 C 
BRANCH  21  27
ATOM     23  C   UNL     1       0.006   1.363  -0.142  0.00  0.00    +0.086 C 
ATOM     24  C   UNL     1      -0.679   2.271   0.846  0.00  0.00    +0.103 A 
ATOM     25  C   UNL     1      -0.059   3.141   1.674  0.00  0.00    +0.045 A 
ATOM     26  C   UNL     1      -1.056   3.786   2.421  0.00  0.00    +0.049 A 
ATOM     27  C   UNL     1      -2.261   3.264   2.001  0.00  0.00    +0.128 A 
ATOM     28  O   UNL     1      -2.003   2.351   1.041  0.00  0.00    -0.461 OA
ENDBRANCH  21  27
ENDBRANCH  17  22
ENDBRANCH   1  19
TORSDOF 4
