REMARK  Name = ZINC63537976
REMARK  7 active torsions:
REMARK  status: ('A' for Active; 'I' for Inactive)
REMARK    1  A    between atoms: C_1  and  O_2
REMARK    2  A    between atoms: O_2  and  C_3
REMARK    3  A    between atoms: C_6  and  N_9
REMARK    4  A    between atoms: N_11  and  C_26
REMARK    5  A    between atoms: C_15  and  C_16
REMARK    6  A    between atoms: C_26  and  C_27
REMARK    7  A    between atoms: C_27  and  C_28
REMARK                            x       y       z     vdW  Elec       q    Type
REMARK                         _______ _______ _______ _____ _____    ______ ____
ROOT
ATOM      1  N   UNL     1      -4.810  -2.654   0.129  0.00  0.00    -0.225 NA
ATOM      2  C   UNL     1      -5.006  -3.689  -0.655  0.00  0.00    +0.168 C 
ATOM      3  N   UNL     1      -6.004  -4.637  -0.589  0.00  0.00    -0.246 N 
ATOM      4  C   UNL     1      -6.055  -5.624  -1.468  0.00  0.00    +0.259 C 
ATOM      5  O   UNL     1      -6.929  -6.470  -1.424  0.00  0.00    -0.269 OA
ATOM      6  C   UNL     1      -5.004  -5.654  -2.503  0.00  0.00    +0.078 C 
ATOM      7  C   UNL     1      -4.816  -6.539  -3.514  0.00  0.00    +0.028 C 
ATOM      8  S   UNL     1      -4.049  -4.206  -2.071  0.00  0.00    -0.049 S 
ENDROOT
BRANCH   7   9
ATOM      9  C   UNL     1      -5.831  -7.563  -3.792  0.00  0.00    -0.020 A 
ATOM     10  C   UNL     1      -7.192  -7.242  -3.720  0.00  0.00    +0.012 A 
ATOM     11  C   UNL     1      -8.141  -8.205  -3.981  0.00  0.00    +0.050 A 
ATOM     12  C   UNL     1      -7.755  -9.496  -4.316  0.00  0.00    +0.166 A 
ATOM     13  C   UNL     1      -6.400  -9.824  -4.389  0.00  0.00    +0.167 A 
ATOM     14  C   UNL     1      -5.441  -8.864  -4.134  0.00  0.00    +0.057 A 
ATOM     15  O   UNL     1      -6.290 -11.141  -4.733  0.00  0.00    -0.453 OA
ATOM     16  C   UNL     1      -7.583 -11.717  -4.469  0.00  0.00    +0.466 C 
ATOM     17  O   UNL     1      -8.488 -10.607  -4.614  0.00  0.00    -0.453 OA
ENDBRANCH   7   9
BRANCH   1  21
ATOM     18  C   UNL     1      -1.620  -0.105  -0.564  0.00  0.00    +0.120 A 
ATOM     19  C   UNL     1      -2.876   0.417  -0.285  0.00  0.00    +0.048 A 
ATOM     20  C   UNL     1      -3.941  -0.427  -0.054  0.00  0.00    +0.031 A 
ATOM     21  C   UNL     1      -3.755  -1.811  -0.100  0.00  0.00    +0.067 A 
ATOM     22  C   UNL     1      -2.490  -2.332  -0.381  0.00  0.00    +0.031 A 
ATOM     23  C   UNL     1      -1.432  -1.479  -0.617  0.00  0.00    +0.048 A 
BRANCH  18  25
ATOM     24  C   UNL     1      -0.836   2.135  -0.721  0.00  0.00    +0.277 C 
ATOM     25  O   UNL     1      -0.573   0.732  -0.791  0.00  0.00    -0.495 OA
ENDBRANCH  18  25
ENDBRANCH   1  21
BRANCH   3  26
ATOM     26  C   UNL     1      -7.019  -4.551   0.464  0.00  0.00    +0.120 C 
BRANCH  26  27
ATOM     27  C   UNL     1      -8.198  -3.711  -0.030  0.00  0.00    +0.052 C 
BRANCH  27  28
ATOM     28  C   UNL     1      -9.241  -3.622   1.053  0.00  0.00    -0.040 C 
ATOM     29  C   UNL     1      -9.389  -2.630   1.960  0.00  0.00    -0.001 A 
ATOM     30  C   UNL     1      -8.650  -1.385   2.201  0.00  0.00    +0.010 A 
ATOM     31  C   UNL     1      -9.043  -0.573   3.209  0.00  0.00    +0.001 A 
ATOM     32  C   UNL     1     -10.136  -0.891   4.028  0.00  0.00    +0.002 A 
ATOM     33  C   UNL     1     -10.863  -2.017   3.869  0.00  0.00    +0.026 A 
ATOM     34  C   UNL     1     -10.539  -2.942   2.839  0.00  0.00    +0.043 A 
ATOM     35  N   UNL     1     -11.081  -4.083   2.488  0.00  0.00    -0.380 N 
ATOM     36  C   UNL     1     -10.339  -4.621   1.343  0.00  0.00    +0.144 C 
ATOM     37  H   UNL     1     -11.847  -4.500   2.913  0.00  0.00    +0.160 HD
ENDBRANCH  27  28
ENDBRANCH  26  27
ENDBRANCH   3  26
TORSDOF 6
