REMARK  Name = ZINC36000021
REMARK  10 active torsions:
REMARK  status: ('A' for Active; 'I' for Inactive)
REMARK    1  A    between atoms: C_1  and  C_2
REMARK    2  A    between atoms: C_2  and  O_3
REMARK    3  A    between atoms: O_3  and  C_4
REMARK    4  A    between atoms: C_4  and  C_6
REMARK    5  A    between atoms: C_7  and  C_22
REMARK    6  A    between atoms: N_8  and  C_21
REMARK    7  A    between atoms: C_12  and  C_14
REMARK    8  A    between atoms: C_22  and  N_23
REMARK    9  A    between atoms: C_27  and  C_30
REMARK   10  A    between atoms: C_31  and  C_33
REMARK                            x       y       z     vdW  Elec       q    Type
REMARK                         _______ _______ _______ _____ _____    ______ ____
ROOT
ATOM      1  C   UNL     1      -3.221  -2.670  -0.237  0.00  0.00    +0.080 C 
ATOM      2  C   UNL     1      -3.386  -4.010  -0.240  0.00  0.00    +0.041 C 
ATOM      3  N   UNL     1      -4.619  -4.569  -0.062  0.00  0.00    -0.260 N 
ATOM      4  C   UNL     1      -5.737  -3.856   0.124  0.00  0.00    +0.307 C 
ATOM      5  O   UNL     1      -6.791  -4.443   0.273  0.00  0.00    -0.252 OA
ATOM      6  N   UNL     1      -5.732  -2.509   0.151  0.00  0.00    -0.288 N 
ATOM      7  C   UNL     1      -4.449  -1.808  -0.025  0.00  0.00    +0.144 C 
ATOM      8  C   UNL     1      -4.725  -6.030  -0.077  0.00  0.00    +0.139 C 
ATOM      9  H   UNL     1      -6.554  -2.012   0.287  0.00  0.00    +0.151 HD
ENDROOT
BRANCH   7  10
ATOM     10  C   UNL     1      -4.211  -0.952   1.192  0.00  0.00    -0.022 A 
ATOM     11  C   UNL     1      -4.379  -1.486   2.457  0.00  0.00    +0.007 A 
ATOM     12  C   UNL     1      -4.160  -0.700   3.573  0.00  0.00    +0.020 A 
ATOM     13  C   UNL     1      -3.774   0.620   3.425  0.00  0.00    +0.041 A 
ATOM     14  C   UNL     1      -3.606   1.153   2.160  0.00  0.00    +0.020 A 
ATOM     15  C   UNL     1      -3.819   0.366   1.044  0.00  0.00    +0.007 A 
ATOM     16 CL   UNL     1      -3.500   1.607   4.827  0.00  0.00    -0.084 Cl
ENDBRANCH   7  10
BRANCH   1  17
ATOM     17  C   UNL     1      -1.944  -2.090  -0.420  0.00  0.00    +0.339 C 
ATOM     18  O   UNL     1      -1.334  -1.646   0.535  0.00  0.00    -0.245 OA
BRANCH  17  19
ATOM     19  O   UNL     1      -1.401  -2.029  -1.654  0.00  0.00    -0.462 OA
BRANCH  19  21
ATOM     20  C   UNL     1       0.339  -1.451  -3.229  0.00  0.00    +0.048 C 
ATOM     21  C   UNL     1      -0.108  -1.430  -1.766  0.00  0.00    +0.229 C 
ENDBRANCH  19  21
ENDBRANCH  17  19
ENDBRANCH   1  17
BRANCH   2  22
ATOM     22  C   UNL     1      -2.189  -4.904  -0.443  0.00  0.00    +0.136 C 
BRANCH  22  23
ATOM     23  N   UNL     1      -1.968  -5.707   0.767  0.00  0.00    -0.294 NA
ATOM     24  C   UNL     1      -1.589  -4.856   1.903  0.00  0.00    +0.104 C 
ATOM     25  C   UNL     1      -1.544  -5.703   3.179  0.00  0.00    +0.123 C 
ATOM     26  N   UNL     1      -0.662  -6.856   2.944  0.00  0.00    -0.296 N 
ATOM     27  C   UNL     1      -0.895  -7.678   1.748  0.00  0.00    +0.087 C 
ATOM     28  C   UNL     1      -0.965  -6.754   0.527  0.00  0.00    +0.107 C 
ATOM     29  C   UNL     1       0.253  -8.675   1.577  0.00  0.00    +0.029 C 
ATOM     30  C   UNL     1       0.334  -7.151   3.803  0.00  0.00    +0.219 C 
ATOM     31  O   UNL     1       1.103  -8.055   3.553  0.00  0.00    -0.275 OA
BRANCH  30  32
ATOM     32  C   UNL     1       0.492  -6.358   5.075  0.00  0.00    +0.075 C 
ATOM     33  C   UNL     1       1.717  -5.449   5.194  0.00  0.00    +0.013 C 
ATOM     34  C   UNL     1       1.642  -6.742   6.009  0.00  0.00    +0.013 C 
ENDBRANCH  30  32
ENDBRANCH  22  23
ENDBRANCH   2  22
TORSDOF 7
