REMARK  Name = ZINC33453020
REMARK  9 active torsions:
REMARK  status: ('A' for Active; 'I' for Inactive)
REMARK    1  A    between atoms: C_1  and  C_2
REMARK    2  A    between atoms: C_2  and  C_3
REMARK    3  A    between atoms: C_6  and  S_9
REMARK    4  A    between atoms: S_9  and  N_12
REMARK    5  A    between atoms: N_14  and  C_31
REMARK    6  A    between atoms: C_17  and  C_20
REMARK    7  A    between atoms: C_20  and  C_21
REMARK    8  A    between atoms: N_23  and  C_24
REMARK    9  A    between atoms: C_29  and  C_30
REMARK                            x       y       z     vdW  Elec       q    Type
REMARK                         _______ _______ _______ _____ _____    ______ ____
ROOT
ATOM      1  N   UNL     1       3.223  -0.610  -5.799  0.00  0.00    -0.106 NA
ATOM      2  C   UNL     1       3.891  -0.729  -6.911  0.00  0.00    +0.185 C 
ATOM      3  N   UNL     1       4.204  -1.886  -7.599  0.00  0.00    -0.245 N 
ATOM      4  C   UNL     1       4.893  -1.875  -8.727  0.00  0.00    +0.235 C 
ATOM      5  O   UNL     1       5.164  -2.894  -9.325  0.00  0.00    -0.274 OA
ATOM      6  C   UNL     1       5.324  -0.506  -9.226  0.00  0.00    +0.149 C 
ATOM      7  S   UNL     1       4.611   0.565  -7.910  0.00  0.00    -0.075 S 
ENDROOT
BRANCH   3   8
ATOM      8  C   UNL     1       3.755  -3.172  -7.058  0.00  0.00    +0.083 C 
ATOM      9  C   UNL     1       4.965  -3.968  -6.567  0.00  0.00    +0.023 C 
ATOM     10  C   UNL     1       4.497  -5.311  -6.002  0.00  0.00    +0.002 C 
ATOM     11  C   UNL     1       3.776  -6.101  -7.096  0.00  0.00    +0.000 C 
ATOM     12  C   UNL     1       2.566  -5.304  -7.588  0.00  0.00    +0.002 C 
ATOM     13  C   UNL     1       3.034  -3.962  -8.152  0.00  0.00    +0.023 C 
ENDBRANCH   3   8
BRANCH   1  14
ATOM     14  S   UNL     1       2.721  -1.962  -4.985  0.00  0.00    +0.101 S 
ATOM     15  O   UNL     1       3.890  -2.716  -4.692  0.00  0.00    -0.146 OA
ATOM     16  O   UNL     1       1.633  -2.500  -5.724  0.00  0.00    -0.146 OA
BRANCH  14  20
ATOM     17  C   UNL     1       1.037  -0.590  -1.014  0.00  0.00    -0.048 A 
ATOM     18  C   UNL     1       0.210  -0.694  -2.117  0.00  0.00    +0.005 A 
ATOM     19  C   UNL     1       0.724  -1.113  -3.330  0.00  0.00    +0.029 A 
ATOM     20  C   UNL     1       2.066  -1.427  -3.440  0.00  0.00    +0.113 A 
ATOM     21  C   UNL     1       2.893  -1.321  -2.337  0.00  0.00    +0.029 A 
ATOM     22  C   UNL     1       2.380  -0.898  -1.126  0.00  0.00    +0.005 A 
BRANCH  17  24
ATOM     23  C   UNL     1       0.572   1.391   0.403  0.00  0.00    +0.009 C 
ATOM     24  C   UNL     1       0.476  -0.133   0.308  0.00  0.00    +0.032 C 
ENDBRANCH  17  24
ENDBRANCH  14  20
ENDBRANCH   1  14
BRANCH   6  25
ATOM     25  C   UNL     1       6.849  -0.389  -9.278  0.00  0.00    +0.120 C 
BRANCH  25  26
ATOM     26  C   UNL     1       7.231   0.933  -9.892  0.00  0.00    +0.219 C 
ATOM     27  O   UNL     1       6.369   1.706 -10.253  0.00  0.00    -0.275 OA
ATOM     28  N   UNL     1       8.531   1.256 -10.040  0.00  0.00    -0.285 N 
ATOM     29  H   UNL     1       9.220   0.674  -9.683  0.00  0.00    +0.155 HD
BRANCH  28  30
ATOM     30  C   UNL     1       8.888   2.432 -10.710  0.00  0.00    +0.036 A 
ATOM     31  C   UNL     1       8.020   2.996 -11.635  0.00  0.00    +0.023 A 
ATOM     32  C   UNL     1       8.374   4.157 -12.294  0.00  0.00    +0.002 A 
ATOM     33  C   UNL     1       9.593   4.756 -12.034  0.00  0.00    +0.000 A 
ATOM     34  C   UNL     1      10.460   4.197 -11.114  0.00  0.00    +0.005 A 
ATOM     35  C   UNL     1      10.108   3.039 -10.447  0.00  0.00    -0.029 A 
ATOM     36  C   UNL     1      11.051   2.434  -9.439  0.00  0.00    +0.045 C 
ENDBRANCH  28  30
ENDBRANCH  25  26
ENDBRANCH   6  25
TORSDOF 7
