REMARK  Name = ZINC04881795
REMARK  11 active torsions:
REMARK  status: ('A' for Active; 'I' for Inactive)
REMARK    1  A    between atoms: C_1  and  C_2
REMARK    2  A    between atoms: C_2  and  C_3
REMARK    3  A    between atoms: C_3  and  C_5
REMARK    4  A    between atoms: C_3  and  N_6
REMARK    5  A    between atoms: C_7  and  C_9
REMARK    6  A    between atoms: C_9  and  C_10
REMARK    7  A    between atoms: C_10  and  C_11
REMARK    8  A    between atoms: N_13  and  C_14
REMARK    9  A    between atoms: C_20  and  C_33
REMARK   10  A    between atoms: C_25  and  C_32
REMARK   11  A    between atoms: C_28  and  C_31
REMARK                            x       y       z     vdW  Elec       q    Type
REMARK                         _______ _______ _______ _____ _____    ______ ____
ROOT
ATOM      1  C   UNL     1      -8.523   1.155  -4.556  0.00  0.00    +0.034 A 
ATOM      2  C   UNL     1      -8.159   2.375  -5.137  0.00  0.00    +0.025 A 
ATOM      3  C   UNL     1      -8.913   2.935  -6.120  0.00  0.00    +0.028 A 
ATOM      4  C   UNL     1     -10.079   2.288  -6.566  0.00  0.00    +0.048 A 
ATOM      5  C   UNL     1     -10.453   1.053  -5.982  0.00  0.00    +0.003 A 
ATOM      6  C   UNL     1      -9.656   0.491  -4.974  0.00  0.00    +0.033 A 
ATOM      7  C   UNL     1     -11.623   0.408  -6.433  0.00  0.00    -0.038 A 
ATOM      8  C   UNL     1     -12.351   1.003  -7.418  0.00  0.00    +0.045 A 
ATOM      9  C   UNL     1     -11.928   2.227  -7.956  0.00  0.00    +0.099 A 
ATOM     10  N   UNL     1     -12.680   2.822  -8.960  0.00  0.00    -0.316 N 
ATOM     11  C   UNL     1     -12.859   1.908 -10.095  0.00  0.00    +0.109 C 
ATOM     12  C   UNL     1     -13.809   2.539 -11.115  0.00  0.00    +0.004 C 
ATOM     13  C   UNL     1     -13.224   3.870 -11.594  0.00  0.00    +0.009 C 
ATOM     14  C   UNL     1     -13.003   4.786 -10.387  0.00  0.00    +0.004 C 
ATOM     15  C   UNL     1     -12.075   4.089  -9.389  0.00  0.00    +0.109 C 
ATOM     16  C   UNL     1     -12.363   6.096 -10.851  0.00  0.00    +0.009 C 
ATOM     17  C   UNL     1     -15.170   2.785 -10.460  0.00  0.00    +0.009 C 
ATOM     18  C   UNL     1     -12.057  -0.908  -5.839  0.00  0.00    +0.044 C 
ATOM     19  N   UNL     1     -10.814   2.892  -7.563  0.00  0.00    -0.343 N 
ATOM     20  H   UNL     1     -10.536   3.788  -7.982  0.00  0.00    +0.167 HD
ENDROOT
BRANCH   1  23
ATOM     21  C   UNL     1      -7.108   1.406  -2.660  0.00  0.00    +0.218 C 
ATOM     22  O   UNL     1      -7.172   2.611  -2.786  0.00  0.00    -0.275 OA
ATOM     23  N   UNL     1      -7.727   0.602  -3.547  0.00  0.00    -0.285 N 
ATOM     24  H   UNL     1      -7.621  -0.360  -3.485  0.00  0.00    +0.155 HD
BRANCH  21  25
ATOM     25  C   UNL     1      -6.335   0.809  -1.512  0.00  0.00    +0.105 C 
BRANCH  25  26
ATOM     26  C   UNL     1      -5.735   1.931  -0.663  0.00  0.00    +0.105 C 
BRANCH  26  28
ATOM     27  N   UNL     1      -4.343   2.138   1.372  0.00  0.00    -0.313 N 
ATOM     28  C   UNL     1      -4.963   1.333   0.485  0.00  0.00    +0.214 C 
ATOM     29  O   UNL     1      -4.898   0.129   0.611  0.00  0.00    -0.276 OA
ATOM     30  H   UNL     1      -4.395   3.101   1.271  0.00  0.00    +0.149 HD
BRANCH  27  31
ATOM     31  C   UNL     1      -3.592   1.557   2.488  0.00  0.00    +0.070 C 
ATOM     32  C   UNL     1      -4.547   1.260   3.646  0.00  0.00    +0.028 C 
BRANCH  31  34
ATOM     33  C   UNL     1      -1.495   2.746   1.833  0.00  0.00    +0.005 C 
ATOM     34  C   UNL     1      -2.521   2.546   2.951  0.00  0.00    +0.018 C 
ENDBRANCH  31  34
ENDBRANCH  27  31
ENDBRANCH  26  28
ENDBRANCH  25  26
ENDBRANCH  21  25
ENDBRANCH   1  23
TORSDOF 6
