REMARK  Name = ZINC46058479
REMARK  8 active torsions:
REMARK  status: ('A' for Active; 'I' for Inactive)
REMARK    1  A    between atoms: C_1  and  C_2
REMARK    2  A    between atoms: C_2  and  C_4
REMARK    3  A    between atoms: C_2  and  N_10
REMARK    4  A    between atoms: C_11  and  C_13
REMARK    5  A    between atoms: C_17  and  N_22
REMARK    6  A    between atoms: N_22  and  C_23
REMARK    7  A    between atoms: N_22  and  S_24
REMARK    8  A    between atoms: S_24  and  C_27
REMARK                            x       y       z     vdW  Elec       q    Type
REMARK                         _______ _______ _______ _____ _____    ______ ____
ROOT
ATOM      1  C   UNL     1       0.924  -0.787   3.638  0.00  0.00    +0.075 A 
ATOM      2  C   UNL     1       0.438  -0.962   4.896  0.00  0.00    +0.029 A 
ATOM      3  C   UNL     1       1.216  -1.623   5.863  0.00  0.00    -0.008 A 
ATOM      4  C   UNL     1       0.887  -1.898   7.216  0.00  0.00    +0.033 A 
ATOM      5  C   UNL     1       1.776  -2.560   8.028  0.00  0.00    +0.052 A 
ATOM      6  C   UNL     1       3.020  -2.978   7.552  0.00  0.00    +0.026 A 
ATOM      7  C   UNL     1       3.366  -2.727   6.252  0.00  0.00    +0.017 A 
ATOM      8  C   UNL     1       2.486  -2.064   5.422  0.00  0.00    +0.020 A 
ATOM      9  S   UNL     1       2.531  -1.557   3.721  0.00  0.00    -0.084 S 
ENDROOT
BRANCH   1  11
ATOM     10  N   UNL     1       0.924  -0.059   1.308  0.00  0.00    -0.304 N 
ATOM     11  C   UNL     1       0.281  -0.131   2.490  0.00  0.00    +0.251 C 
ATOM     12  O   UNL     1      -0.832   0.347   2.608  0.00  0.00    -0.270 OA
ATOM     13  H   UNL     1       1.811  -0.440   1.214  0.00  0.00    +0.150 HD
BRANCH  10  15
ATOM     14  C   UNL     1       0.539   2.102   0.229  0.00  0.00    +0.033 C 
ATOM     15  C   UNL     1       0.283   0.595   0.164  0.00  0.00    +0.100 C 
BRANCH  15  16
ATOM     16  C   UNL     1       0.855   0.042  -1.116  0.00  0.00    -0.027 A 
ATOM     17  C   UNL     1       2.208  -0.224  -1.210  0.00  0.00    +0.005 A 
ATOM     18  C   UNL     1       2.733  -0.731  -2.384  0.00  0.00    +0.000 A 
ATOM     19  C   UNL     1       1.905  -0.972  -3.464  0.00  0.00    +0.000 A 
ATOM     20  C   UNL     1       0.552  -0.706  -3.370  0.00  0.00    +0.000 A 
ATOM     21  C   UNL     1       0.026  -0.203  -2.194  0.00  0.00    +0.005 A 
ENDBRANCH  15  16
ENDBRANCH  10  15
ENDBRANCH   1  11
BRANCH   5  22
ATOM     22  N   UNL     1       1.428  -2.819   9.358  0.00  0.00    -0.206 N 
ATOM     23  C   UNL     1       0.253  -3.640   9.661  0.00  0.00    +0.157 C 
BRANCH  22  24
ATOM     24  S   UNL     1       2.344  -2.199  10.590  0.00  0.00    +0.074 S 
ATOM     25  O   UNL     1       2.232  -3.107  11.677  0.00  0.00    -0.150 OA
ATOM     26  O   UNL     1       3.597  -1.840  10.023  0.00  0.00    -0.150 OA
BRANCH  24  27
ATOM     27  C   UNL     1       1.577  -0.698  11.105  0.00  0.00    +0.109 A 
ATOM     28  C   UNL     1       1.928   0.498  10.508  0.00  0.00    +0.029 A 
ATOM     29  C   UNL     1       1.327   1.675  10.912  0.00  0.00    +0.002 A 
ATOM     30  C   UNL     1       0.373   1.655  11.913  0.00  0.00    +0.000 A 
ATOM     31  C   UNL     1       0.021   0.459  12.509  0.00  0.00    +0.002 A 
ATOM     32  C   UNL     1       0.620  -0.719  12.102  0.00  0.00    +0.029 A 
ENDBRANCH  24  27
ENDBRANCH  22  24
ENDBRANCH   5  22
TORSDOF 6
