REMARK  Name = ZINC36146693
REMARK  12 active torsions:
REMARK  status: ('A' for Active; 'I' for Inactive)
REMARK    1  A    between atoms: C_1  and  C_2
REMARK    2  A    between atoms: C_7  and  O_8
REMARK    3  A    between atoms: O_8  and  C_9
REMARK    4  A    between atoms: C_9  and  C_10
REMARK    5  A    between atoms: C_10  and  C_12
REMARK    6  A    between atoms: C_10  and  O_36
REMARK    7  A    between atoms: C_12  and  N_13
REMARK    8  A    between atoms: N_13  and  C_14
REMARK    9  A    between atoms: N_13  and  C_22
REMARK   10  A    between atoms: C_14  and  C_15
REMARK   11  A    between atoms: C_22  and  C_23
REMARK   12  A    between atoms: C_26  and  C_29
REMARK                            x       y       z     vdW  Elec       q    Type
REMARK                         _______ _______ _______ _____ _____    ______ ____
ROOT
ATOM      1  N   UNL     1      -0.147   0.772   7.246  0.00  0.00    +0.387 N 
ATOM      2  H   UNL     1       0.279   1.667   7.059  0.00  0.00    -0.081 HD
ENDROOT
BRANCH   1   3
ATOM      3  C   UNL     1       0.345  -0.216   6.277  0.00  0.00    -0.043 C 
BRANCH   3   4
ATOM      4  C   UNL     1       0.362   0.405   4.879  0.00  0.00    +0.135 C 
BRANCH   4   5
ATOM      5  O   UNL     1      -0.979   0.584   4.420  0.00  0.00    -0.390 OA
ATOM      6  H   UNL     1      -1.473  -0.240   4.317  0.00  0.00    +0.210 HD
ENDBRANCH   4   5
BRANCH   4   7
ATOM      7  C   UNL     1       1.110  -0.522   3.918  0.00  0.00    +0.258 C 
BRANCH   7   8
ATOM      8  O   UNL     1       1.228   0.109   2.642  0.00  0.00    -0.489 OA
BRANCH   8  15
ATOM      9  C   UNL     1       1.471   1.340   0.111  0.00  0.00    +0.047 C 
ATOM     10  C   UNL     1       2.021  -0.032   0.403  0.00  0.00    -0.009 A 
ATOM     11  C   UNL     1       2.681  -0.738  -0.584  0.00  0.00    +0.007 A 
ATOM     12  C   UNL     1       3.185  -1.997  -0.317  0.00  0.00    +0.000 A 
ATOM     13  C   UNL     1       3.031  -2.553   0.940  0.00  0.00    +0.004 A 
ATOM     14  C   UNL     1       2.373  -1.851   1.931  0.00  0.00    +0.046 A 
ATOM     15  C   UNL     1       1.871  -0.585   1.667  0.00  0.00    +0.124 A 
ENDBRANCH   8  15
ENDBRANCH   7   8
ENDBRANCH   4   7
ENDBRANCH   3   4
ENDBRANCH   1   3
BRANCH   1  16
ATOM     16  C   UNL     1      -1.607   0.891   7.125  0.00  0.00    -0.043 C 
BRANCH  16  17
ATOM     17  C   UNL     1      -2.244  -0.448   7.393  0.00  0.00    -0.064 A 
ATOM     18  C   UNL     1      -2.493  -1.316   6.346  0.00  0.00    +0.004 A 
ATOM     19  C   UNL     1      -3.076  -2.545   6.591  0.00  0.00    +0.038 A 
ATOM     20  C   UNL     1      -3.412  -2.906   7.885  0.00  0.00    +0.123 A 
ATOM     21  C   UNL     1      -3.162  -2.035   8.932  0.00  0.00    +0.038 A 
ATOM     22  C   UNL     1      -2.574  -0.809   8.686  0.00  0.00    +0.004 A 
ATOM     23  F   UNL     1      -3.983  -4.106   8.125  0.00  0.00    -0.205 F 
ENDBRANCH  16  17
ENDBRANCH   1  16
BRANCH   1  24
ATOM     24  C   UNL     1       0.198   0.339   8.606  0.00  0.00    -0.030 C 
BRANCH  24  25
ATOM     25  C   UNL     1      -0.071   1.480   9.589  0.00  0.00    +0.194 C 
ATOM     26  C   UNL     1       0.222   1.040  11.043  0.00  0.00    +0.104 C 
ATOM     27  C   UNL     1      -0.877   1.733  11.825  0.00  0.00    +0.091 C 
ATOM     28  N   UNL     1      -1.782   2.123  10.992  0.00  0.00    -0.089 NA
ATOM     29  O   UNL     1      -1.478   1.787   9.652  0.00  0.00    -0.392 OA
BRANCH  27  30
ATOM     30  C   UNL     1      -0.906   1.928  13.288  0.00  0.00    -0.000 A 
ATOM     31  C   UNL     1       0.144   1.459  14.079  0.00  0.00    +0.011 A 
ATOM     32  C   UNL     1       0.111   1.644  15.445  0.00  0.00    +0.020 A 
ATOM     33  C   UNL     1      -0.962   2.293  16.033  0.00  0.00    +0.041 A 
ATOM     34  C   UNL     1      -2.007   2.760  15.254  0.00  0.00    +0.020 A 
ATOM     35  C   UNL     1      -1.983   2.586  13.886  0.00  0.00    +0.011 A 
ATOM     36 CL   UNL     1      -0.997   2.522  17.753  0.00  0.00    -0.084 Cl
ENDBRANCH  27  30
ENDBRANCH  24  25
ENDBRANCH   1  24
TORSDOF 11
