REMARK  Name = ZINC04017222
REMARK  10 active torsions:
REMARK  status: ('A' for Active; 'I' for Inactive)
REMARK    1  A    between atoms: C_1  and  C_2
REMARK    2  A    between atoms: C_6  and  C_36
REMARK    3  A    between atoms: C_7  and  N_8
REMARK    4  A    between atoms: C_9  and  C_13
REMARK    5  A    between atoms: C_13  and  C_15
REMARK    6  A    between atoms: C_13  and  N_64
REMARK    7  A    between atoms: C_22  and  C_23
REMARK    8  A    between atoms: C_22  and  N_64
REMARK    9  A    between atoms: C_29  and  C_30
REMARK   10  A    between atoms: C_29  and  N_64
REMARK                            x       y       z     vdW  Elec       q    Type
REMARK                         _______ _______ _______ _____ _____    ______ ____
ROOT
ATOM      1  C   UNL     1      -2.510   6.156  -0.052  0.00  0.00    +0.036 C 
ENDROOT
BRANCH   1   2
ATOM      2  C   UNL     1      -2.825   6.364   1.407  0.00  0.00    -0.035 A 
ATOM      3  C   UNL     1      -3.814   7.255   1.781  0.00  0.00    +0.004 A 
ATOM      4  C   UNL     1      -4.103   7.446   3.119  0.00  0.00    +0.000 A 
ATOM      5  C   UNL     1      -3.403   6.747   4.085  0.00  0.00    +0.001 A 
ATOM      6  C   UNL     1      -2.414   5.856   3.712  0.00  0.00    +0.020 A 
ATOM      7  C   UNL     1      -2.128   5.660   2.373  0.00  0.00    +0.043 A 
ATOM      8 CL   UNL     1      -0.891   4.536   1.904  0.00  0.00    -0.083 Cl
ENDBRANCH   1   2
BRANCH   1  10
ATOM      9  N   UNL     1      -0.311   7.195  -0.822  0.00  0.00    -0.198 N 
ATOM     10  C   UNL     1      -1.629   7.277  -0.540  0.00  0.00    +0.148 A 
ATOM     11  N   UNL     1      -1.999   8.510  -0.770  0.00  0.00    -0.114 NA
ATOM     12  N   UNL     1      -1.005   9.213  -1.177  0.00  0.00    -0.023 NA
ATOM     13  N   UNL     1       0.061   8.488  -1.231  0.00  0.00    -0.039 NA
BRANCH   9  20
ATOM     14  C   UNL     1       1.262   6.876   1.529  0.00  0.00    +0.046 C 
ATOM     15  C   UNL     1       1.296   5.871   0.407  0.00  0.00    -0.025 A 
ATOM     16  C   UNL     1       2.105   4.755   0.502  0.00  0.00    +0.005 A 
ATOM     17  C   UNL     1       2.136   3.832  -0.527  0.00  0.00    +0.001 A 
ATOM     18  C   UNL     1       1.361   4.024  -1.656  0.00  0.00    +0.005 A 
ATOM     19  C   UNL     1       0.546   5.135  -1.754  0.00  0.00    -0.025 A 
ATOM     20  C   UNL     1       0.513   6.064  -0.723  0.00  0.00    +0.075 A 
ATOM     21  C   UNL     1      -0.303   5.342  -2.983  0.00  0.00    +0.046 C 
ENDBRANCH   9  20
ENDBRANCH   1  10
BRANCH   1  22
ATOM     22  N   UNL     1      -3.775   6.163  -0.815  0.00  0.00    +0.394 N 
ATOM     23  H   UNL     1      -4.372   6.923  -0.466  0.00  0.00    -0.079 HD
BRANCH  22  24
ATOM     24  C   UNL     1      -3.499   6.391  -2.249  0.00  0.00    -0.041 C 
BRANCH  24  25
ATOM     25  C   UNL     1      -4.805   6.613  -2.967  0.00  0.00    -0.064 A 
ATOM     26  C   UNL     1      -5.480   5.541  -3.521  0.00  0.00    +0.002 A 
ATOM     27  C   UNL     1      -6.681   5.744  -4.174  0.00  0.00    +0.000 A 
ATOM     28  C   UNL     1      -7.202   7.020  -4.284  0.00  0.00    +0.000 A 
ATOM     29  C   UNL     1      -6.524   8.093  -3.735  0.00  0.00    +0.000 A 
ATOM     30  C   UNL     1      -5.326   7.889  -3.076  0.00  0.00    +0.002 A 
ENDBRANCH  24  25
ENDBRANCH  22  24
BRANCH  22  31
ATOM     31  C   UNL     1      -4.481   4.877  -0.635  0.00  0.00    -0.041 C 
BRANCH  31  32
ATOM     32  C   UNL     1      -5.183   4.895   0.698  0.00  0.00    -0.064 A 
ATOM     33  C   UNL     1      -4.606   4.276   1.792  0.00  0.00    +0.002 A 
ATOM     34  C   UNL     1      -5.247   4.297   3.016  0.00  0.00    +0.000 A 
ATOM     35  C   UNL     1      -6.471   4.927   3.145  0.00  0.00    +0.000 A 
ATOM     36  C   UNL     1      -7.051   5.540   2.050  0.00  0.00    +0.000 A 
ATOM     37  C   UNL     1      -6.407   5.524   0.827  0.00  0.00    +0.002 A 
ENDBRANCH  31  32
ENDBRANCH  22  31
ENDBRANCH   1  22
TORSDOF 8
