REMARK  Name = ZINC39694251
REMARK  9 active torsions:
REMARK  status: ('A' for Active; 'I' for Inactive)
REMARK    1  A    between atoms: C_1  and  C_2
REMARK    2  A    between atoms: C_2  and  C_3
REMARK    3  A    between atoms: C_3  and  C_4
REMARK    4  A    between atoms: C_4  and  C_6
REMARK    5  A    between atoms: C_4  and  C_7
REMARK    6  A    between atoms: C_11  and  C_20
REMARK    7  A    between atoms: N_22  and  C_23
REMARK    8  A    between atoms: C_23  and  C_24
REMARK    9  A    between atoms: C_29  and  N_30
REMARK                            x       y       z     vdW  Elec       q    Type
REMARK                         _______ _______ _______ _____ _____    ______ ____
ROOT
ATOM      1  C   UNL     1       1.443  -2.433  -2.280  0.00  0.00    +0.218 C 
ATOM      2  O   UNL     1       1.958  -1.678  -3.077  0.00  0.00    -0.275 OA
ATOM      3  N   UNL     1       1.605  -3.764  -2.411  0.00  0.00    -0.300 N 
ATOM      4  C   UNL     1       1.145  -4.830  -1.490  0.00  0.00    +0.121 C 
ATOM      5  C   UNL     1       0.660  -5.966  -2.418  0.00  0.00    +0.100 C 
ATOM      6  C   UNL     1       1.412  -5.740  -3.740  0.00  0.00    -0.004 C 
ATOM      7  C   UNL     1       2.280  -4.494  -3.511  0.00  0.00    +0.115 C 
ATOM      8  C   UNL     1       2.292  -6.945  -4.060  0.00  0.00    -0.010 C 
ATOM      9  C   UNL     1       2.985  -6.723  -5.407  0.00  0.00    -0.082 C 
ATOM     10  N   UNL     1       1.974  -6.538  -6.455  0.00  0.00    +0.379 N 
ATOM     11  C   UNL     1       1.193  -5.324  -6.189  0.00  0.00    -0.082 C 
ATOM     12  C   UNL     1       0.424  -5.487  -4.875  0.00  0.00    -0.010 C 
ATOM     13  H   UNL     1       2.431  -6.452  -7.351  0.00  0.00    -0.086 HD
ATOM     14  H   UNL     1       1.357  -7.336  -6.471  0.00  0.00    -0.086 HD
ENDROOT
BRANCH   5  15
ATOM     15  C   UNL     1      -0.828  -5.866  -2.636  0.00  0.00    +0.218 C 
ATOM     16  O   UNL     1      -1.363  -4.778  -2.680  0.00  0.00    -0.275 OA
ATOM     17  N   UNL     1      -1.565  -6.985  -2.780  0.00  0.00    -0.311 N 
ATOM     18  H   UNL     1      -1.151  -7.855  -2.672  0.00  0.00    +0.149 HD
BRANCH  17  19
ATOM     19  C   UNL     1      -2.991  -6.887  -3.100  0.00  0.00    +0.141 C 
BRANCH  19  20
ATOM     20  C   UNL     1      -3.605  -8.263  -3.086  0.00  0.00    -0.009 A 
ATOM     21  C   UNL     1      -3.836  -8.929  -4.274  0.00  0.00    +0.007 A 
ATOM     22  C   UNL     1      -4.399 -10.191  -4.263  0.00  0.00    +0.000 A 
ATOM     23  C   UNL     1      -4.733 -10.793  -3.063  0.00  0.00    +0.002 A 
ATOM     24  C   UNL     1      -4.504 -10.133  -1.872  0.00  0.00    +0.023 A 
ATOM     25  C   UNL     1      -3.933  -8.867  -1.879  0.00  0.00    +0.035 A 
BRANCH  25  26
ATOM     26  N   UNL     1      -3.696  -8.199  -0.675  0.00  0.00    -0.325 N 
ATOM     27  C   UNL     1      -4.753  -7.409  -0.026  0.00  0.00    +0.133 C 
ATOM     28  C   UNL     1      -4.848  -7.842   1.442  0.00  0.00    +0.178 C 
ATOM     29  O   UNL     1      -3.550  -7.776   2.037  0.00  0.00    -0.377 OA
ATOM     30  C   UNL     1      -2.590  -8.656   1.448  0.00  0.00    +0.178 C 
ATOM     31  C   UNL     1      -2.382  -8.270  -0.017  0.00  0.00    +0.133 C 
ENDBRANCH  25  26
ENDBRANCH  19  20
ENDBRANCH  17  19
ENDBRANCH   5  15
BRANCH   1  32
ATOM     32  C   UNL     1       0.621  -1.882  -1.143  0.00  0.00    +0.072 C 
ATOM     33  C   UNL     1       1.347  -2.134   0.180  0.00  0.00    +0.017 C 
BRANCH  32  34
ATOM     34  C   UNL     1       0.424  -0.378  -1.338  0.00  0.00    +0.012 C 
BRANCH  34  36
ATOM     35  C   UNL     1      -0.649   1.674  -0.399  0.00  0.00    +0.004 C 
ATOM     36  C   UNL     1      -0.536   0.154  -0.272  0.00  0.00    -0.003 C 
ENDBRANCH  34  36
ENDBRANCH  32  34
ENDBRANCH   1  32
TORSDOF 7
