REMARK  Name = ZINC17123782
REMARK  9 active torsions:
REMARK  status: ('A' for Active; 'I' for Inactive)
REMARK    1  A    between atoms: C_1  and  C_2
REMARK    2  A    between atoms: C_3  and  C_14
REMARK    3  A    between atoms: C_4  and  O_13
REMARK    4  A    between atoms: N_5  and  C_7
REMARK    5  A    between atoms: C_14  and  C_15
REMARK    6  A    between atoms: C_14  and  C_24
REMARK    7  A    between atoms: C_19  and  N_21
REMARK    8  A    between atoms: C_25  and  C_36
REMARK    9  A    between atoms: N_27  and  C_30
REMARK                            x       y       z     vdW  Elec       q    Type
REMARK                         _______ _______ _______ _____ _____    ______ ____
ROOT
ATOM      1  C   UNL     1      -0.283  -0.328  -2.470  0.00  0.00    +0.093 C 
ENDROOT
BRANCH   1   2
ATOM      2  C   UNL     1       0.913  -0.652  -3.328  0.00  0.00    +0.051 A 
ATOM      3  C   UNL     1       1.677   0.241  -3.990  0.00  0.00    +0.039 A 
ATOM      4  N   UNL     1       2.660  -0.439  -4.652  0.00  0.00    -0.294 N 
ATOM      5  N   UNL     1       2.498  -1.806  -4.390  0.00  0.00    -0.219 N 
ATOM      6  C   UNL     1       1.433  -1.944  -3.574  0.00  0.00    +0.276 A 
ATOM      7  O   UNL     1       0.996  -2.991  -3.132  0.00  0.00    -0.266 OA
ATOM      8  C   UNL     1       1.480   1.735  -3.999  0.00  0.00    +0.065 C 
ATOM      9  H   UNL     1       3.350  -0.044  -5.207  0.00  0.00    +0.187 HD
BRANCH   5  10
ATOM     10  C   UNL     1       3.301  -2.841  -4.881  0.00  0.00    +0.067 A 
ATOM     11  C   UNL     1       3.020  -4.159  -4.543  0.00  0.00    +0.028 A 
ATOM     12  C   UNL     1       3.815  -5.178  -5.030  0.00  0.00    +0.002 A 
ATOM     13  C   UNL     1       4.888  -4.888  -5.852  0.00  0.00    +0.000 A 
ATOM     14  C   UNL     1       5.170  -3.578  -6.190  0.00  0.00    +0.002 A 
ATOM     15  C   UNL     1       4.376  -2.554  -5.712  0.00  0.00    +0.028 A 
ENDBRANCH   5  10
ENDBRANCH   1   2
BRANCH   1  18
ATOM     16  C   UNL     1       2.452  -0.735  -0.928  0.00  0.00    +0.068 C 
ATOM     17  C   UNL     1       1.090  -1.147  -0.432  0.00  0.00    +0.068 A 
ATOM     18  C   UNL     1      -0.117  -0.967  -1.115  0.00  0.00    +0.048 A 
ATOM     19  C   UNL     1      -1.114  -1.469  -0.340  0.00  0.00    +0.220 A 
ATOM     20  N   UNL     1      -0.545  -1.950   0.797  0.00  0.00    -0.200 N 
ATOM     21  N   UNL     1       0.837  -1.739   0.707  0.00  0.00    -0.168 NA
BRANCH  20  22
ATOM     22  C   UNL     1      -1.219  -2.554   1.867  0.00  0.00    +0.069 A 
ATOM     23  C   UNL     1      -2.489  -2.121   2.223  0.00  0.00    +0.028 A 
ATOM     24  C   UNL     1      -3.152  -2.718   3.277  0.00  0.00    +0.002 A 
ATOM     25  C   UNL     1      -2.551  -3.748   3.979  0.00  0.00    +0.000 A 
ATOM     26  C   UNL     1      -1.286  -4.182   3.627  0.00  0.00    +0.002 A 
ATOM     27  C   UNL     1      -0.621  -3.592   2.570  0.00  0.00    +0.028 A 
ENDBRANCH  20  22
BRANCH  19  28
ATOM     28  O   UNL     1      -2.437  -1.486  -0.644  0.00  0.00    -0.492 OA
ATOM     29  H   UNL     1      -2.740  -2.318  -1.035  0.00  0.00    +0.294 HD
ENDBRANCH  19  28
ENDBRANCH   1  18
BRANCH   1  30
ATOM     30  C   UNL     1      -1.531  -0.860  -3.127  0.00  0.00    -0.033 A 
ATOM     31  C   UNL     1      -1.734  -2.224  -3.222  0.00  0.00    +0.005 A 
ATOM     32  C   UNL     1      -2.878  -2.712  -3.825  0.00  0.00    +0.003 A 
ATOM     33  C   UNL     1      -3.820  -1.836  -4.330  0.00  0.00    +0.033 A 
ATOM     34  C   UNL     1      -3.618  -0.472  -4.234  0.00  0.00    +0.126 A 
ATOM     35  C   UNL     1      -2.475   0.016  -3.628  0.00  0.00    +0.037 A 
BRANCH  34  36
ATOM     36  N   UNL     1      -4.627   0.466  -4.776  0.00  0.00    +0.056 N 
ATOM     37  O   UNL     1      -5.627   0.039  -5.303  0.00  0.00    -0.126 OA
ATOM     38  O   UNL     1      -4.449   1.659  -4.691  0.00  0.00    -0.126 OA
ENDBRANCH  34  36
ENDBRANCH   1  30
TORSDOF 7
