REMARK  Name = ZINC08856348
REMARK  12 active torsions:
REMARK  status: ('A' for Active; 'I' for Inactive)
REMARK    1  A    between atoms: C_1  and  C_2
REMARK    2  A    between atoms: C_2  and  C_3
REMARK    3  A    between atoms: C_2  and  C_4
REMARK    4  A    between atoms: C_7  and  C_10
REMARK    5  A    between atoms: C_13  and  C_14
REMARK    6  A    between atoms: C_13  and  O_24
REMARK    7  A    between atoms: N_29  and  C_30
REMARK    8  A    between atoms: C_30  and  C_31
REMARK    9  A    between atoms: C_31  and  C_32
REMARK   10  A    between atoms: C_32  and  N_66
REMARK   11  A    between atoms: C_33  and  N_66
REMARK   12  A    between atoms: C_34  and  N_66
REMARK                            x       y       z     vdW  Elec       q    Type
REMARK                         _______ _______ _______ _____ _____    ______ ____
ROOT
ATOM      1  C   UNL     1       3.330   2.214   0.069  0.00  0.00    +0.144 C 
ATOM      2  C   UNL     1       3.648   2.709   1.461  0.00  0.00    +0.071 C 
ATOM      3  C   UNL     1       4.160   1.967   2.509  0.00  0.00    +0.133 C 
ATOM      4  C   UNL     1       3.319   4.072   1.476  0.00  0.00    +0.249 C 
ATOM      5  O   UNL     1       3.434   4.825   2.426  0.00  0.00    -0.282 OA
ATOM      6  C   UNL     1       2.804   4.439   0.129  0.00  0.00    +0.288 C 
ATOM      7  O   UNL     1       2.430   5.548  -0.194  0.00  0.00    -0.266 OA
ATOM      8  N   UNL     1       2.812   3.365  -0.677  0.00  0.00    -0.284 N 
ENDROOT
BRANCH   3   9
ATOM      9  C   UNL     1       4.551   2.635   3.760  0.00  0.00    +0.021 A 
ATOM     10  C   UNL     1       5.407   3.742   3.728  0.00  0.00    +0.015 A 
ATOM     11  C   UNL     1       5.767   4.366   4.900  0.00  0.00    +0.050 A 
ATOM     12  C   UNL     1       5.294   3.895   6.120  0.00  0.00    +0.162 A 
ATOM     13  C   UNL     1       4.444   2.791   6.161  0.00  0.00    +0.163 A 
ATOM     14  C   UNL     1       4.074   2.161   4.987  0.00  0.00    +0.061 A 
ATOM     15  O   UNL     1       3.966   2.323   7.346  0.00  0.00    -0.485 OA
ATOM     16  C   UNL     1       4.651   2.750   8.529  0.00  0.00    +0.270 C 
ATOM     17  C   UNL     1       4.881   4.264   8.432  0.00  0.00    +0.270 C 
ATOM     18  O   UNL     1       5.671   4.522   7.266  0.00  0.00    -0.485 OA
ENDBRANCH   3   9
BRANCH   1  22
ATOM     19  C   UNL     1       0.371  -0.862   0.252  0.00  0.00    -0.045 A 
ATOM     20  C   UNL     1       0.001   0.463   0.394  0.00  0.00    +0.004 A 
ATOM     21  C   UNL     1       0.958   1.458   0.336  0.00  0.00    +0.006 A 
ATOM     22  C   UNL     1       2.286   1.129   0.134  0.00  0.00    -0.022 A 
ATOM     23  C   UNL     1       2.656  -0.196  -0.008  0.00  0.00    +0.006 A 
ATOM     24  C   UNL     1       1.698  -1.191   0.051  0.00  0.00    +0.004 A 
BRANCH  19  26
ATOM     25  C   UNL     1      -0.681  -2.725  -1.002  0.00  0.00    +0.012 C 
ATOM     26  C   UNL     1      -0.673  -1.947   0.315  0.00  0.00    +0.013 C 
ATOM     27  C   UNL     1      -0.350  -2.898   1.469  0.00  0.00    +0.012 C 
ENDBRANCH  19  26
ENDBRANCH   1  22
BRANCH   3  28
ATOM     28  O   UNL     1       4.301   0.630   2.384  0.00  0.00    -0.506 OA
ATOM     29  H   UNL     1       4.682   0.255   3.229  0.00  0.00    +0.292 HD
ENDBRANCH   3  28
BRANCH   8  30
ATOM     30  C   UNL     1       2.375   3.345  -2.075  0.00  0.00    +0.107 C 
BRANCH  30  31
ATOM     31  C   UNL     1       0.883   3.011  -2.138  0.00  0.00    +0.000 C 
BRANCH  31  32
ATOM     32  C   UNL     1       0.427   2.991  -3.598  0.00  0.00    -0.078 C 
BRANCH  32  35
ATOM     33  C   UNL     1      -1.811   3.741  -3.056  0.00  0.00    -0.097 C 
ATOM     34  C   UNL     1      -1.428   2.409  -5.042  0.00  0.00    -0.097 C 
ATOM     35  N   UNL     1      -1.010   2.647  -3.644  0.00  0.00    +0.376 N 
ATOM     36  H   UNL     1      -1.165   1.790  -3.099  0.00  0.00    -0.083 HD
ENDBRANCH  32  35
ENDBRANCH  31  32
ENDBRANCH  30  31
ENDBRANCH   8  30
TORSDOF 8
