REMARK  Name = ZINC39324811
REMARK  9 active torsions:
REMARK  status: ('A' for Active; 'I' for Inactive)
REMARK    1  A    between atoms: C_1  and  C_2
REMARK    2  A    between atoms: C_2  and  C_3
REMARK    3  A    between atoms: C_10  and  C_15
REMARK    4  A    between atoms: C_15  and  N_16
REMARK    5  A    between atoms: N_16  and  C_17
REMARK    6  A    between atoms: N_16  and  S_23
REMARK    7  A    between atoms: C_17  and  C_18
REMARK    8  A    between atoms: S_23  and  C_26
REMARK    9  A    between atoms: C_31  and  C_32
REMARK                            x       y       z     vdW  Elec       q    Type
REMARK                         _______ _______ _______ _____ _____    ______ ____
ROOT
ATOM      1  N   UNL     1      -8.195  -1.911  -2.625  0.00  0.00    -0.171 NA
ENDROOT
BRANCH   1   2
ATOM      2  S   UNL     1      -8.522  -3.152  -3.671  0.00  0.00    +0.062 S 
ATOM      3  O   UNL     1      -9.912  -3.423  -3.557  0.00  0.00    -0.153 OA
ATOM      4  O   UNL     1      -7.911  -2.812  -4.908  0.00  0.00    -0.153 OA
BRANCH   2   5
ATOM      5  C   UNL     1      -7.680  -4.577  -3.068  0.00  0.00    +0.117 A 
ATOM      6  C   UNL     1      -7.157  -4.581  -1.788  0.00  0.00    +0.029 A 
ATOM      7  C   UNL     1      -6.496  -5.699  -1.315  0.00  0.00    +0.002 A 
ATOM      8  C   UNL     1      -6.359  -6.814  -2.121  0.00  0.00    +0.001 A 
ATOM      9  C   UNL     1      -6.883  -6.810  -3.400  0.00  0.00    +0.014 A 
ATOM     10  C   UNL     1      -7.547  -5.693  -3.872  0.00  0.00    +0.081 A 
BRANCH  10  11
ATOM     11  C   UNL     1      -8.123  -5.691  -5.264  0.00  0.00    +0.419 C 
ATOM     12  F   UNL     1      -7.989  -6.966  -5.826  0.00  0.00    -0.166 F 
ATOM     13  F   UNL     1      -9.478  -5.346  -5.209  0.00  0.00    -0.166 F 
ATOM     14  F   UNL     1      -7.437  -4.761  -6.052  0.00  0.00    -0.166 F 
ENDBRANCH  10  11
ENDBRANCH   2   5
ENDBRANCH   1   2
BRANCH   1  15
ATOM     15  C   UNL     1      -7.002  -1.084  -2.819  0.00  0.00    +0.126 C 
BRANCH  15  23
ATOM     16  C   UNL     1      -4.301   3.159  -5.780  0.00  0.00    -0.047 A 
ATOM     17  C   UNL     1      -5.050   2.900  -6.928  0.00  0.00    +0.005 A 
ATOM     18  C   UNL     1      -6.150   2.102  -6.922  0.00  0.00    +0.024 A 
ATOM     19  C   UNL     1      -6.583   1.493  -5.730  0.00  0.00    +0.040 A 
ATOM     20  N   UNL     1      -7.663   0.712  -5.736  0.00  0.00    -0.284 N 
ATOM     21  C   UNL     1      -8.125   0.110  -4.652  0.00  0.00    +0.225 C 
ATOM     22  O   UNL     1      -9.117  -0.592  -4.719  0.00  0.00    -0.275 OA
ATOM     23  C   UNL     1      -7.416   0.298  -3.330  0.00  0.00    +0.114 C 
ATOM     24  C   UNL     1      -6.187   1.185  -3.318  0.00  0.00    -0.003 C 
ATOM     25  C   UNL     1      -5.811   1.749  -4.501  0.00  0.00    -0.007 A 
ATOM     26  C   UNL     1      -4.634   2.614  -4.581  0.00  0.00    +0.013 A 
ATOM     27  H   UNL     1      -8.133   0.579  -6.574  0.00  0.00    +0.155 HD
BRANCH  16  29
ATOM     28  C   UNL     1      -1.857   3.214  -6.194  0.00  0.00    +0.009 C 
ATOM     29  C   UNL     1      -3.094   4.055  -5.873  0.00  0.00    +0.032 C 
ENDBRANCH  16  29
ENDBRANCH  15  23
ENDBRANCH   1  15
BRANCH   1  30
ATOM     30  C   UNL     1      -9.099  -1.639  -1.504  0.00  0.00    +0.151 C 
BRANCH  30  31
ATOM     31  C   UNL     1     -10.106  -0.594  -1.913  0.00  0.00    +0.005 A 
ATOM     32  C   UNL     1     -11.265  -0.747  -2.598  0.00  0.00    +0.012 A 
ATOM     33  C   UNL     1     -12.039   0.367  -2.862  0.00  0.00    +0.008 A 
ATOM     34  C   UNL     1     -11.617   1.579  -2.428  0.00  0.00    +0.045 A 
ATOM     35  S   UNL     1     -10.084   1.165  -1.612  0.00  0.00    -0.100 S 
ENDBRANCH  30  31
ENDBRANCH   1  30
TORSDOF 8
