REMARK  Name = ZINC02953207
REMARK  8 active torsions:
REMARK  status: ('A' for Active; 'I' for Inactive)
REMARK    1  A    between atoms: C_1  and  C_2
REMARK    2  A    between atoms: C_2  and  C_3
REMARK    3  A    between atoms: C_6  and  N_9
REMARK    4  A    between atoms: C_11  and  C_23
REMARK    5  A    between atoms: C_14  and  C_21
REMARK    6  A    between atoms: C_17  and  C_20
REMARK    7  A    between atoms: C_21  and  O_22
REMARK    8  A    between atoms: N_25  and  C_26
REMARK                            x       y       z     vdW  Elec       q    Type
REMARK                         _______ _______ _______ _____ _____    ______ ____
ROOT
ATOM      1  N   UNL     1       3.565  -1.659   4.677  0.00  0.00    -0.325 N 
ATOM      2  C   UNL     1       2.793  -1.265   5.665  0.00  0.00    +0.212 A 
ATOM      3  C   UNL     1       2.821  -1.954   6.971  0.00  0.00    +0.098 A 
ATOM      4  C   UNL     1       2.463  -1.219   8.080  0.00  0.00    +0.030 A 
ATOM      5  C   UNL     1       2.083   0.179   7.865  0.00  0.00    +0.027 A 
ATOM      6  C   UNL     1       1.955   1.079   8.930  0.00  0.00    +0.007 A 
ATOM      7  C   UNL     1       1.597   2.382   8.649  0.00  0.00    +0.117 A 
ATOM      8  N   UNL     1       1.377   2.779   7.410  0.00  0.00    -0.256 NA
ATOM      9  C   UNL     1       1.484   1.970   6.375  0.00  0.00    +0.081 A 
ATOM     10  C   UNL     1       1.838   0.640   6.558  0.00  0.00    +0.159 A 
ATOM     11  O   UNL     1       1.952  -0.209   5.515  0.00  0.00    -0.437 OA
ATOM     12  C   UNL     1       1.220   2.490   4.986  0.00  0.00    +0.069 C 
ATOM     13  H   UNL     1       4.243  -2.336   4.831  0.00  0.00    +0.169 HD
ENDROOT
BRANCH   1  17
ATOM     14  C   UNL     1       3.101  -0.019   0.907  0.00  0.00    -0.047 A 
ATOM     15  C   UNL     1       4.369  -0.173   1.440  0.00  0.00    +0.005 A 
ATOM     16  C   UNL     1       4.531  -0.719   2.696  0.00  0.00    +0.026 A 
ATOM     17  C   UNL     1       3.412  -1.117   3.431  0.00  0.00    +0.042 A 
ATOM     18  C   UNL     1       2.135  -0.957   2.887  0.00  0.00    +0.026 A 
ATOM     19  C   UNL     1       1.988  -0.405   1.632  0.00  0.00    +0.005 A 
BRANCH  14  21
ATOM     20  C   UNL     1       2.798   2.098  -0.348  0.00  0.00    +0.009 C 
ATOM     21  C   UNL     1       2.933   0.579  -0.466  0.00  0.00    +0.032 C 
ENDBRANCH  14  21
ENDBRANCH   1  17
BRANCH   3  22
ATOM     22  C   UNL     1       3.216  -3.370   7.083  0.00  0.00    +0.253 C 
ATOM     23  O   UNL     1       3.329  -3.885   8.179  0.00  0.00    -0.270 OA
ATOM     24  N   UNL     1       3.451  -4.094   5.971  0.00  0.00    -0.279 N 
ATOM     25  H   UNL     1       3.407  -3.671   5.099  0.00  0.00    +0.155 HD
BRANCH  24  26
ATOM     26  C   UNL     1       3.759  -5.455   6.075  0.00  0.00    +0.069 A 
ATOM     27  C   UNL     1       4.242  -5.970   7.270  0.00  0.00    +0.026 A 
ATOM     28  C   UNL     1       4.545  -7.314   7.369  0.00  0.00    +0.002 A 
ATOM     29  C   UNL     1       4.369  -8.148   6.279  0.00  0.00    +0.003 A 
ATOM     30  C   UNL     1       3.887  -7.640   5.087  0.00  0.00    +0.040 A 
ATOM     31  C   UNL     1       3.576  -6.296   4.982  0.00  0.00    +0.144 A 
ATOM     32  F   UNL     1       3.100  -5.801   3.819  0.00  0.00    -0.204 F 
ENDBRANCH  24  26
ENDBRANCH   3  22
BRANCH   6  33
ATOM     33  C   UNL     1       2.204   0.637  10.348  0.00  0.00    +0.193 C 
BRANCH  33  34
ATOM     34  O   UNL     1       2.007   1.741  11.234  0.00  0.00    -0.390 OA
ATOM     35  H   UNL     1       2.151   1.528  12.166  0.00  0.00    +0.210 HD
ENDBRANCH  33  34
ENDBRANCH   6  33
TORSDOF 6
