REMARK  Name = ZINC40083944
REMARK  9 active torsions:
REMARK  status: ('A' for Active; 'I' for Inactive)
REMARK    1  A    between atoms: C_1  and  C_2
REMARK    2  A    between atoms: C_4  and  C_40
REMARK    3  A    between atoms: C_8  and  C_12
REMARK    4  A    between atoms: C_12  and  C_14
REMARK    5  A    between atoms: C_12  and  O_15
REMARK    6  A    between atoms: O_15  and  C_16
REMARK    7  A    between atoms: C_16  and  C_18
REMARK    8  A    between atoms: C_31  and  C_32
REMARK    9  A    between atoms: C_35  and  O_38
REMARK                            x       y       z     vdW  Elec       q    Type
REMARK                         _______ _______ _______ _____ _____    ______ ____
ROOT
ATOM      1  C   UNL     1      -0.399  -6.816   5.759  0.00  0.00    +0.073 A 
ATOM      2  C   UNL     1       1.045  -6.907   5.543  0.00  0.00    +0.015 A 
ATOM      3  C   UNL     1       1.849  -5.766   5.473  0.00  0.00    +0.011 A 
ATOM      4  C   UNL     1       3.192  -5.899   5.271  0.00  0.00    +0.001 A 
ATOM      5  C   UNL     1       3.771  -7.158   5.133  0.00  0.00    +0.002 A 
ATOM      6  C   UNL     1       3.017  -8.289   5.196  0.00  0.00    +0.028 A 
ATOM      7  C   UNL     1       1.627  -8.192   5.404  0.00  0.00    +0.072 A 
ATOM      8  N   UNL     1       0.864  -9.280   5.471  0.00  0.00    -0.247 NA
ATOM      9  C   UNL     1      -0.450  -9.231   5.666  0.00  0.00    +0.072 A 
ATOM     10  C   UNL     1      -1.115  -8.003   5.821  0.00  0.00    -0.007 A 
ATOM     11  C   UNL     1      -2.588  -8.245   6.035  0.00  0.00    +0.043 C 
ATOM     12  C   UNL     1      -2.784  -9.766   6.005  0.00  0.00    +0.042 C 
ATOM     13  C   UNL     1      -1.413 -10.345   5.760  0.00  0.00    -0.021 C 
ATOM     14  C   UNL     1      -1.116 -11.653   5.662  0.00  0.00    +0.013 C 
ENDROOT
BRANCH  14  15
ATOM     15  C   UNL     1      -2.155 -12.665   5.915  0.00  0.00    -0.024 A 
ATOM     16  C   UNL     1      -1.814 -14.019   5.987  0.00  0.00    +0.011 A 
ATOM     17  C   UNL     1      -2.789 -14.961   6.225  0.00  0.00    +0.046 A 
ATOM     18  C   UNL     1      -4.112 -14.569   6.392  0.00  0.00    +0.117 A 
ATOM     19  C   UNL     1      -4.456 -13.225   6.321  0.00  0.00    +0.046 A 
ATOM     20  C   UNL     1      -3.487 -12.274   6.090  0.00  0.00    +0.011 A 
BRANCH  18  21
ATOM     21  O   UNL     1      -5.071 -15.502   6.625  0.00  0.00    -0.507 OA
ATOM     22  H   UNL     1      -5.214 -15.693   7.562  0.00  0.00    +0.292 HD
ENDBRANCH  18  21
ENDBRANCH  14  15
BRANCH   1  23
ATOM     23  C   UNL     1      -1.070  -5.508   5.912  0.00  0.00    +0.341 C 
ATOM     24  O   UNL     1      -1.188  -5.011   7.014  0.00  0.00    -0.245 OA
BRANCH  23  25
ATOM     25  O   UNL     1      -1.550  -4.867   4.829  0.00  0.00    -0.450 OA
BRANCH  25  26
ATOM     26  C   UNL     1      -2.187  -3.607   5.051  0.00  0.00    +0.238 C 
ATOM     27  C   UNL     1      -3.681  -3.826   5.295  0.00  0.00    +0.060 C 
BRANCH  26  34
ATOM     28  C   UNL     1       0.048   1.752   0.586  0.00  0.00    +0.024 C 
ATOM     29  C   UNL     1       0.052   0.224   0.509  0.00  0.00    +0.076 C 
ATOM     30  C   UNL     1      -1.354  -0.326   0.592  0.00  0.00    -0.045 C 
ATOM     31  C   UNL     1      -1.652  -1.125   1.627  0.00  0.00    +0.071 C 
ATOM     32  C   UNL     1      -0.582  -1.406   2.607  0.00  0.00    +0.112 C 
ATOM     33  N   UNL     1      -0.812  -2.180   3.641  0.00  0.00    -0.224 NA
ATOM     34  C   UNL     1      -2.000  -2.729   3.840  0.00  0.00    +0.164 C 
ATOM     35  N   UNL     1      -3.022  -2.551   3.038  0.00  0.00    -0.158 NA
ATOM     36  C   UNL     1      -2.956  -1.792   1.939  0.00  0.00    +0.271 C 
ATOM     37  O   UNL     1      -3.926  -1.648   1.215  0.00  0.00    -0.268 OA
ATOM     38  S   UNL     1       0.828  -0.508   2.007  0.00  0.00    -0.098 S 
ATOM     39  C   UNL     1      -2.386   0.013  -0.454  0.00  0.00    +0.041 C 
ENDBRANCH  26  34
ENDBRANCH  25  26
ENDBRANCH  23  25
ENDBRANCH   1  23
TORSDOF 6
