REMARK  Name = ZINC59463981
REMARK  13 active torsions:
REMARK  status: ('A' for Active; 'I' for Inactive)
REMARK    1  A    between atoms: C_1  and  O_2
REMARK    2  A    between atoms: O_2  and  C_3
REMARK    3  A    between atoms: C_5  and  C_13
REMARK    4  A    between atoms: C_7  and  O_11
REMARK    5  A    between atoms: C_8  and  O_9
REMARK    6  A    between atoms: O_9  and  C_10
REMARK    7  A    between atoms: O_11  and  C_12
REMARK    8  A    between atoms: N_14  and  N_15
REMARK    9  A    between atoms: C_16  and  C_18
REMARK   10  A    between atoms: C_18  and  N_19
REMARK   11  A    between atoms: N_19  and  C_20
REMARK   12  A    between atoms: N_19  and  S_32
REMARK   13  A    between atoms: S_32  and  C_35
REMARK                            x       y       z     vdW  Elec       q    Type
REMARK                         _______ _______ _______ _____ _____    ______ ____
ROOT
ATOM      1  N   UNL     1      -7.288   0.689   0.358  0.00  0.00    -0.206 N 
ATOM      2  C   UNL     1      -8.413  -0.043   0.240  0.00  0.00    +0.251 C 
ATOM      3  O   UNL     1      -8.354  -1.254   0.267  0.00  0.00    -0.272 OA
ATOM      4  H   UNL     1      -7.335   1.658   0.337  0.00  0.00    +0.177 HD
ENDROOT
BRANCH   1   6
ATOM      5  C   UNL     1      -4.966   0.757   0.624  0.00  0.00    +0.138 C 
ATOM      6  N   UNL     1      -6.050   0.051   0.511  0.00  0.00    -0.188 NA
BRANCH   5   9
ATOM      7  C   UNL     1      -1.275   0.210   1.059  0.00  0.00    +0.166 A 
ATOM      8  C   UNL     1      -2.496   0.843   0.907  0.00  0.00    +0.059 A 
ATOM      9  C   UNL     1      -3.663   0.085   0.785  0.00  0.00    +0.002 A 
ATOM     10  C   UNL     1      -3.594  -1.310   0.816  0.00  0.00    +0.059 A 
ATOM     11  C   UNL     1      -2.370  -1.936   0.968  0.00  0.00    +0.166 A 
ATOM     12  C   UNL     1      -1.209  -1.179   1.083  0.00  0.00    +0.204 A 
BRANCH   7  14
ATOM     13  C   UNL     1      -0.280   2.369   1.144  0.00  0.00    +0.277 C 
ATOM     14  O   UNL     1      -0.139   0.947   1.178  0.00  0.00    -0.491 OA
ENDBRANCH   7  14
BRANCH  12  15
ATOM     15  O   UNL     1      -0.006  -1.798   1.227  0.00  0.00    -0.488 OA
ATOM     16  C   UNL     1       0.425  -2.078   2.560  0.00  0.00    +0.277 C 
ENDBRANCH  12  15
BRANCH  11  17
ATOM     17  O   UNL     1      -2.302  -3.294   0.998  0.00  0.00    -0.491 OA
ATOM     18  C   UNL     1      -3.532  -4.009   0.868  0.00  0.00    +0.277 C 
ENDBRANCH  11  17
ENDBRANCH   5   9
ENDBRANCH   1   6
BRANCH   2  19
ATOM     19  C   UNL     1      -9.745   0.643   0.075  0.00  0.00    +0.228 C 
BRANCH  19  20
ATOM     20  N   UNL     1     -10.803  -0.364  -0.038  0.00  0.00    -0.198 N 
BRANCH  20  21
ATOM     21  C   UNL     1     -11.394  -0.886   1.110  0.00  0.00    +0.059 A 
ATOM     22  C   UNL     1     -10.831  -1.963   1.768  0.00  0.00    +0.025 A 
ATOM     23  C   UNL     1     -11.399  -2.507   2.919  0.00  0.00    +0.006 A 
ATOM     24  C   UNL     1     -12.545  -1.984   3.438  0.00  0.00    -0.039 A 
ATOM     25  C   UNL     1     -13.126  -0.899   2.789  0.00  0.00    -0.010 A 
ATOM     26  C   UNL     1     -12.578  -0.322   1.630  0.00  0.00    +0.005 A 
ATOM     27  C   UNL     1     -13.246   0.774   1.063  0.00  0.00    +0.010 A 
ATOM     28  C   UNL     1     -14.386   1.231   1.660  0.00  0.00    +0.001 A 
ATOM     29  C   UNL     1     -14.910   0.645   2.814  0.00  0.00    +0.004 A 
ATOM     30  C   UNL     1     -14.292  -0.426   3.383  0.00  0.00    -0.039 A 
ATOM     31  C   UNL     1     -14.561  -1.283   4.596  0.00  0.00    +0.040 C 
ATOM     32  C   UNL     1     -13.409  -2.311   4.632  0.00  0.00    +0.040 C 
ENDBRANCH  20  21
BRANCH  20  33
ATOM     33  S   UNL     1     -11.294  -0.883  -1.532  0.00  0.00    +0.043 S 
ATOM     34  O   UNL     1     -12.663  -1.228  -1.363  0.00  0.00    -0.155 OA
ATOM     35  O   UNL     1     -10.914   0.158  -2.421  0.00  0.00    -0.155 OA
ATOM     36  C   UNL     1     -10.310  -2.372  -1.856  0.00  0.00    +0.218 C 
ENDBRANCH  20  33
ENDBRANCH  19  20
ENDBRANCH   2  19
TORSDOF 9
