REMARK  Name = ZINC08856995
REMARK  9 active torsions:
REMARK  status: ('A' for Active; 'I' for Inactive)
REMARK    1  A    between atoms: C_1  and  O_2
REMARK    2  A    between atoms: O_2  and  C_3
REMARK    3  A    between atoms: C_6  and  C_9
REMARK    4  A    between atoms: N_17  and  C_20
REMARK    5  A    between atoms: C_26  and  C_27
REMARK    6  A    between atoms: C_26  and  C_34
REMARK    7  A    between atoms: C_27  and  C_28
REMARK    8  A    between atoms: C_34  and  O_36
REMARK    9  A    between atoms: O_36  and  C_37
REMARK                            x       y       z     vdW  Elec       q    Type
REMARK                         _______ _______ _______ _____ _____    ______ ____
ROOT
ATOM      1  C   UNL     1       3.671   2.186  -0.022  0.00  0.00    -0.027 C 
ATOM      2  C   UNL     1       3.931   2.791   1.347  0.00  0.00    +0.077 C 
ATOM      3  C   UNL     1       3.096   4.119   1.177  0.00  0.00    +0.086 C 
ATOM      4  C   UNL     1       2.981   4.555   2.554  0.00  0.00    +0.229 C 
ATOM      5  O   UNL     1       2.963   5.697   2.959  0.00  0.00    -0.275 OA
ATOM      6  N   UNL     1       2.911   3.403   3.297  0.00  0.00    -0.210 N 
ATOM      7  C   UNL     1       3.244   2.289   2.576  0.00  0.00    +0.229 C 
ATOM      8  O   UNL     1       3.026   1.134   2.873  0.00  0.00    -0.275 OA
ATOM      9  C   UNL     1       3.573   4.604  -0.132  0.00  0.00    +0.048 C 
ATOM     10  N   UNL     1       3.576   3.347  -0.947  0.00  0.00    +0.396 N 
ATOM     11  H   UNL     1       2.709   3.285  -1.492  0.00  0.00    -0.083 HD
ATOM     12  H   UNL     1       4.381   3.349  -1.584  0.00  0.00    -0.083 HD
ENDROOT
BRANCH   1  16
ATOM     13  C   UNL     1       0.002  -0.004   0.001  0.00  0.00    +0.120 A 
ATOM     14  C   UNL     1       1.200  -0.652   0.265  0.00  0.00    +0.046 A 
ATOM     15  C   UNL     1       2.385   0.058   0.257  0.00  0.00    +0.005 A 
ATOM     16  C   UNL     1       2.377   1.414  -0.013  0.00  0.00    -0.060 A 
ATOM     17  C   UNL     1       1.185   2.062  -0.278  0.00  0.00    +0.005 A 
ATOM     18  C   UNL     1      -0.003   1.356  -0.271  0.00  0.00    +0.046 A 
BRANCH  13  20
ATOM     19  C   UNL     1      -2.359   0.032  -0.273  0.00  0.00    +0.277 C 
ATOM     20  O   UNL     1      -1.165  -0.701   0.008  0.00  0.00    -0.495 OA
ENDBRANCH  13  20
ENDBRANCH   1  16
BRANCH   6  21
ATOM     21  C   UNL     1       2.540   3.372   4.649  0.00  0.00    +0.044 A 
ATOM     22  C   UNL     1       2.223   4.550   5.310  0.00  0.00    +0.024 A 
ATOM     23  C   UNL     1       1.851   4.515   6.640  0.00  0.00    +0.002 A 
ATOM     24  C   UNL     1       1.806   3.310   7.316  0.00  0.00    +0.000 A 
ATOM     25  C   UNL     1       2.127   2.135   6.661  0.00  0.00    +0.002 A 
ATOM     26  C   UNL     1       2.494   2.163   5.329  0.00  0.00    +0.024 A 
ENDBRANCH   6  21
BRANCH   9  27
ATOM     27  C   UNL     1       4.964   5.172  -0.018  0.00  0.00    +0.297 C 
ATOM     28  O   UNL     1       5.356   5.602   1.042  0.00  0.00    -0.252 OA
BRANCH  27  29
ATOM     29  O   UNL     1       5.768   5.201  -1.093  0.00  0.00    -0.469 OA
ATOM     30  C   UNL     1       7.094   5.763  -0.909  0.00  0.00    +0.280 C 
ENDBRANCH  27  29
ENDBRANCH   9  27
BRANCH   9  31
ATOM     31  C   UNL     1       2.610   5.641  -0.712  0.00  0.00    +0.034 C 
BRANCH  31  32
ATOM     32  C   UNL     1       3.060   6.024  -2.098  0.00  0.00    -0.048 A 
ATOM     33  C   UNL     1       3.931   7.083  -2.274  0.00  0.00    +0.003 A 
ATOM     34  C   UNL     1       4.348   7.431  -3.546  0.00  0.00    +0.000 A 
ATOM     35  C   UNL     1       3.885   6.727  -4.642  0.00  0.00    +0.000 A 
ATOM     36  C   UNL     1       3.010   5.672  -4.466  0.00  0.00    +0.000 A 
ATOM     37  C   UNL     1       2.597   5.320  -3.195  0.00  0.00    +0.003 A 
ENDBRANCH  31  32
ENDBRANCH   9  31
TORSDOF 7
