REMARK  Name = ZINC22615446
REMARK  7 active torsions:
REMARK  status: ('A' for Active; 'I' for Inactive)
REMARK    1  A    between atoms: C_6  and  N_7
REMARK    2  A    between atoms: N_10  and  C_15
REMARK    3  A    between atoms: C_15  and  C_16
REMARK    4  A    between atoms: N_18  and  C_19
REMARK    5  A    between atoms: C_24  and  O_25
REMARK    6  A    between atoms: O_25  and  C_26
REMARK    7  A    between atoms: C_26  and  C_27
REMARK                            x       y       z     vdW  Elec       q    Type
REMARK                         _______ _______ _______ _____ _____    ______ ____
ROOT
ATOM      1  C   UNL     1      -3.574  -0.726  -0.052  0.00  0.00    +0.235 C 
ATOM      2  O   UNL     1      -3.558  -1.939  -0.059  0.00  0.00    -0.274 OA
ATOM      3  N   UNL     1      -2.418  -0.038   0.037  0.00  0.00    -0.281 N 
ATOM      4  H   UNL     1      -2.437   1.058   0.134  0.00  0.00    +0.155 HD
ENDROOT
BRANCH   3   5
ATOM      5  C   UNL     1      -1.193  -0.717   0.004  0.00  0.00    +0.077 A 
ATOM      6  C   UNL     1      -1.103  -1.958  -0.611  0.00  0.00    +0.047 A 
ATOM      7  C   UNL     1       0.106  -2.629  -0.636  0.00  0.00    +0.043 A 
ATOM      8  C   UNL     1       1.227  -2.064  -0.054  0.00  0.00    +0.024 A 
ATOM      9  C   UNL     1       1.144  -0.826   0.555  0.00  0.00    +0.049 A 
ATOM     10  C   UNL     1      -0.063  -0.147   0.585  0.00  0.00    +0.142 A 
ATOM     11 CL   UNL     1       0.217  -4.184  -1.401  0.00  0.00    -0.083 Cl
BRANCH  10  12
ATOM     12  O   UNL     1      -0.146   1.070   1.185  0.00  0.00    -0.481 OA
BRANCH  12  13
ATOM     13  C   UNL     1       1.052   1.590   1.765  0.00  0.00    +0.342 C 
BRANCH  13  14
ATOM     14  C   UNL     1       0.765   2.958   2.388  0.00  0.00    +0.424 C 
ATOM     15  F   UNL     1      -0.212   2.823   3.380  0.00  0.00    -0.167 F 
ATOM     16  F   UNL     1       1.938   3.467   2.956  0.00  0.00    -0.167 F 
ATOM     17  F   UNL     1       0.308   3.834   1.399  0.00  0.00    -0.167 F 
ENDBRANCH  13  14
ENDBRANCH  12  13
ENDBRANCH  10  12
ENDBRANCH   3   5
BRANCH   1  18
ATOM     18  C   UNL     1      -4.885   0.011  -0.143  0.00  0.00    +0.209 C 
BRANCH  18  25
ATOM     19  C   UNL     1      -7.342  -2.337  -3.920  0.00  0.00    +0.036 A 
ATOM     20  C   UNL     1      -8.112  -2.526  -2.786  0.00  0.00    +0.050 A 
ATOM     21  C   UNL     1      -7.659  -2.066  -1.562  0.00  0.00    +0.143 A 
ATOM     22  C   UNL     1      -6.433  -1.411  -1.476  0.00  0.00    +0.081 A 
ATOM     23  C   UNL     1      -5.663  -1.230  -2.615  0.00  0.00    +0.060 A 
ATOM     24  C   UNL     1      -6.122  -1.692  -3.835  0.00  0.00    +0.128 A 
ATOM     25  N   UNL     1      -5.983  -0.955  -0.229  0.00  0.00    -0.256 N 
ATOM     26  C   UNL     1      -6.582  -1.414   0.891  0.00  0.00    +0.258 C 
ATOM     27  O   UNL     1      -6.233  -1.006   1.979  0.00  0.00    -0.271 OA
ATOM     28  C   UNL     1      -7.685  -2.436   0.784  0.00  0.00    +0.325 C 
ATOM     29  O   UNL     1      -8.403  -2.243  -0.437  0.00  0.00    -0.481 OA
BRANCH  24  30
ATOM     30  N   UNL     1      -5.305  -1.495  -5.053  0.00  0.00    +0.056 N 
ATOM     31  O   UNL     1      -5.707  -1.901  -6.129  0.00  0.00    -0.126 OA
ATOM     32  O   UNL     1      -4.230  -0.927  -4.980  0.00  0.00    -0.126 OA
ENDBRANCH  24  30
ENDBRANCH  18  25
ENDBRANCH   1  18
TORSDOF 7
