REMARK  Name = ZINC20804068
REMARK  8 active torsions:
REMARK  status: ('A' for Active; 'I' for Inactive)
REMARK    1  A    between atoms: C_1  and  C_2
REMARK    2  A    between atoms: C_5  and  N_9
REMARK    3  A    between atoms: C_6  and  C_8
REMARK    4  A    between atoms: C_10  and  C_12
REMARK    5  A    between atoms: C_14  and  C_34
REMARK    6  A    between atoms: C_22  and  C_24
REMARK    7  A    between atoms: C_27  and  O_30
REMARK    8  A    between atoms: O_30  and  C_31
REMARK                            x       y       z     vdW  Elec       q    Type
REMARK                         _______ _______ _______ _____ _____    ______ ____
ROOT
ATOM      1  C   UNL     1      -0.959   2.100   0.605  0.00  0.00    +0.124 C 
ATOM      2  C   UNL     1      -0.986   3.578   1.011  0.00  0.00    +0.084 C 
ATOM      3  N   UNL     1      -2.228   4.186   0.496  0.00  0.00    -0.310 N 
ATOM      4  C   UNL     1      -3.388   3.437   0.650  0.00  0.00    +0.214 A 
ATOM      5  N   UNL     1      -4.636   3.794   0.506  0.00  0.00    -0.202 NA
ATOM      6  C   UNL     1      -5.431   2.748   0.756  0.00  0.00    +0.247 A 
ATOM      7  N   UNL     1      -4.693   1.710   1.063  0.00  0.00    -0.156 NA
ATOM      8  N   UNL     1      -3.363   2.128   1.000  0.00  0.00    -0.225 N 
ATOM      9  C   UNL     1      -2.141   1.365   1.248  0.00  0.00    +0.154 C 
ATOM     10  C   UNL     1       0.227   4.296   0.417  0.00  0.00    +0.028 C 
ATOM     11  H   UNL     1      -2.200   5.178   0.021  0.00  0.00    +0.149 HD
ENDROOT
BRANCH   9  12
ATOM     12  C   UNL     1      -2.273  -0.008   0.642  0.00  0.00    -0.022 A 
ATOM     13  C   UNL     1      -2.501  -0.144  -0.715  0.00  0.00    +0.009 A 
ATOM     14  C   UNL     1      -2.617  -1.402  -1.275  0.00  0.00    +0.046 A 
ATOM     15  C   UNL     1      -2.515  -2.529  -0.472  0.00  0.00    +0.127 A 
ATOM     16  C   UNL     1      -2.292  -2.390   0.890  0.00  0.00    +0.046 A 
ATOM     17  C   UNL     1      -2.171  -1.130   1.444  0.00  0.00    +0.009 A 
BRANCH  15  18
ATOM     18  O   UNL     1      -2.634  -3.767  -1.019  0.00  0.00    -0.434 OA
BRANCH  18  19
ATOM     19  C   UNL     1      -2.863  -3.834  -2.428  0.00  0.00    +0.541 C 
ATOM     20  F   UNL     1      -4.054  -3.171  -2.739  0.00  0.00    -0.166 F 
ATOM     21  F   UNL     1      -1.800  -3.225  -3.103  0.00  0.00    -0.166 F 
ENDBRANCH  18  19
ENDBRANCH  15  18
ENDBRANCH   9  12
BRANCH   1  23
ATOM     22  N   UNL     1       1.452   1.620   0.333  0.00  0.00    -0.285 N 
ATOM     23  C   UNL     1       0.332   1.476   1.069  0.00  0.00    +0.224 C 
ATOM     24  O   UNL     1       0.362   0.841   2.101  0.00  0.00    -0.275 OA
ATOM     25  H   UNL     1       1.414   2.152  -0.628  0.00  0.00    +0.155 HD
BRANCH  22  30
ATOM     26  C   UNL     1       6.363  -0.523   2.198  0.00  0.00    +0.044 C 
ATOM     27  C   UNL     1       5.059   0.046   1.703  0.00  0.00    -0.050 A 
ATOM     28  C   UNL     1       3.863  -0.542   2.074  0.00  0.00    +0.005 A 
ATOM     29  C   UNL     1       2.666  -0.020   1.627  0.00  0.00    +0.024 A 
ATOM     30  C   UNL     1       2.663   1.091   0.793  0.00  0.00    +0.036 A 
ATOM     31  C   UNL     1       3.865   1.680   0.422  0.00  0.00    -0.029 A 
ATOM     32  C   UNL     1       5.059   1.155   0.877  0.00  0.00    +0.008 A 
ATOM     33  C   UNL     1       3.866   2.889  -0.477  0.00  0.00    +0.045 C 
ENDBRANCH  22  30
ENDBRANCH   1  23
TORSDOF 5
