REMARK  Name = ZINC01149648
REMARK  7 active torsions:
REMARK  status: ('A' for Active; 'I' for Inactive)
REMARK    1  A    between atoms: C_4  and  C_7
REMARK    2  A    between atoms: C_7  and  N_8
REMARK    3  A    between atoms: C_9  and  C_11
REMARK    4  A    between atoms: C_16  and  N_17
REMARK    5  A    between atoms: N_17  and  S_18
REMARK    6  A    between atoms: S_18  and  C_21
REMARK    7  A    between atoms: C_26  and  N_27
REMARK                            x       y       z     vdW  Elec       q    Type
REMARK                         _______ _______ _______ _____ _____    ______ ____
ROOT
ATOM      1  C   UNL     1       1.245   3.422   0.492  0.00  0.00    +0.059 A 
ATOM      2  C   UNL     1      -0.000   4.014   0.718  0.00  0.00    +0.015 A 
ATOM      3  C   UNL     1      -0.108   5.386   0.776  0.00  0.00    +0.001 A 
ATOM      4  C   UNL     1       1.011   6.185   0.600  0.00  0.00    +0.002 A 
ATOM      5  C   UNL     1       2.246   5.616   0.371  0.00  0.00    +0.025 A 
ATOM      6  C   UNL     1       2.376   4.233   0.315  0.00  0.00    +0.060 A 
ENDROOT
BRANCH   1   8
ATOM      7  N   UNL     1       0.280   1.179   0.606  0.00  0.00    -0.307 N 
ATOM      8  C   UNL     1       1.369   1.954   0.435  0.00  0.00    +0.246 C 
ATOM      9  O   UNL     1       2.453   1.442   0.233  0.00  0.00    -0.270 OA
ATOM     10  H   UNL     1      -0.586   1.586   0.763  0.00  0.00    +0.149 HD
BRANCH   7  11
ATOM     11  C   UNL     1       0.403  -0.280   0.549  0.00  0.00    +0.139 C 
BRANCH  11  15
ATOM     12  C   UNL     1      -3.431  -2.058   1.175  0.00  0.00    +0.000 A 
ATOM     13  C   UNL     1      -3.016  -1.742  -0.105  0.00  0.00    +0.000 A 
ATOM     14  C   UNL     1      -1.776  -1.166  -0.308  0.00  0.00    +0.005 A 
ATOM     15  C   UNL     1      -0.950  -0.907   0.770  0.00  0.00    -0.030 A 
ATOM     16  C   UNL     1      -1.362  -1.229   2.050  0.00  0.00    +0.005 A 
ATOM     17  C   UNL     1      -2.605  -1.799   2.253  0.00  0.00    +0.000 A 
ENDBRANCH  11  15
ENDBRANCH   7  11
ENDBRANCH   1   8
BRANCH   6  18
ATOM     18  N   UNL     1       3.619   3.658   0.084  0.00  0.00    -0.215 N 
ATOM     19  H   UNL     1       3.688   2.849  -0.447  0.00  0.00    +0.174 HD
BRANCH  18  20
ATOM     20  S   UNL     1       4.983   4.353   0.715  0.00  0.00    +0.075 S 
ATOM     21  O   UNL     1       4.690   4.666   2.070  0.00  0.00    -0.150 OA
ATOM     22  O   UNL     1       6.072   3.519   0.344  0.00  0.00    -0.150 OA
BRANCH  20  23
ATOM     23  C   UNL     1       5.218   5.888  -0.117  0.00  0.00    +0.139 A 
ATOM     24  C   UNL     1       5.195   7.072   0.597  0.00  0.00    +0.031 A 
ATOM     25  C   UNL     1       5.384   8.276  -0.055  0.00  0.00    +0.002 A 
ATOM     26  C   UNL     1       5.586   8.297  -1.422  0.00  0.00    +0.002 A 
ATOM     27  C   UNL     1       5.604   7.114  -2.137  0.00  0.00    +0.035 A 
ATOM     28  C   UNL     1       5.420   5.910  -1.484  0.00  0.00    +0.153 A 
BRANCH  28  29
ATOM     29  N   UNL     1       5.438   4.643  -2.249  0.00  0.00    +0.058 N 
ATOM     30  O   UNL     1       5.569   4.665  -3.460  0.00  0.00    -0.126 OA
ATOM     31  O   UNL     1       5.323   3.579  -1.668  0.00  0.00    -0.126 OA
ENDBRANCH  28  29
ENDBRANCH  20  23
ENDBRANCH  18  20
ENDBRANCH   6  18
TORSDOF 7
