REMARK  Name = ZINC12699413
REMARK  8 active torsions:
REMARK  status: ('A' for Active; 'I' for Inactive)
REMARK    1  A    between atoms: C_1  and  C_2
REMARK    2  A    between atoms: C_4  and  C_30
REMARK    3  A    between atoms: C_6  and  O_8
REMARK    4  A    between atoms: O_8  and  C_9
REMARK    5  A    between atoms: C_9  and  C_10
REMARK    6  A    between atoms: N_12  and  C_13
REMARK    7  A    between atoms: C_17  and  S_19
REMARK    8  A    between atoms: S_19  and  N_22
REMARK                            x       y       z     vdW  Elec       q    Type
REMARK                         _______ _______ _______ _____ _____    ______ ____
ROOT
ATOM      1  C   UNL     1       2.337   1.172   0.079  0.00  0.00    +0.035 A 
ATOM      2  C   UNL     1       2.309  -0.216   0.070  0.00  0.00    +0.023 A 
ATOM      3  C   UNL     1       3.489  -0.930   0.142  0.00  0.00    +0.004 A 
ATOM      4  C   UNL     1       4.698  -0.263   0.233  0.00  0.00    +0.029 A 
ATOM      5  C   UNL     1       4.729   1.119   0.247  0.00  0.00    +0.114 A 
ATOM      6  C   UNL     1       3.552   1.839   0.170  0.00  0.00    +0.052 A 
ENDROOT
BRANCH   1   9
ATOM      7  C   UNL     1       0.108   1.419  -0.716  0.00  0.00    +0.255 C 
ATOM      8  O   UNL     1       0.242   0.407  -1.372  0.00  0.00    -0.272 OA
ATOM      9  N   UNL     1       1.143   1.898   0.001  0.00  0.00    -0.283 N 
ATOM     10  H   UNL     1       1.061   2.747   0.464  0.00  0.00    +0.155 HD
BRANCH   7  11
ATOM     11  C   UNL     1      -1.213   2.143  -0.709  0.00  0.00    +0.324 C 
BRANCH  11  12
ATOM     12  O   UNL     1      -2.142   1.448  -1.544  0.00  0.00    -0.483 OA
BRANCH  12  18
ATOM     13  C   UNL     1      -5.341   4.926  -0.322  0.00  0.00    +0.044 C 
ATOM     14  C   UNL     1      -4.987   3.665  -1.067  0.00  0.00    -0.047 A 
ATOM     15  C   UNL     1      -5.934   3.042  -1.859  0.00  0.00    +0.007 A 
ATOM     16  C   UNL     1      -5.612   1.885  -2.545  0.00  0.00    -0.047 A 
ATOM     17  C   UNL     1      -4.343   1.349  -2.441  0.00  0.00    +0.049 A 
ATOM     18  C   UNL     1      -3.391   1.973  -1.647  0.00  0.00    +0.122 A 
ATOM     19  C   UNL     1      -3.718   3.130  -0.955  0.00  0.00    +0.049 A 
ATOM     20  C   UNL     1      -6.646   1.209  -3.408  0.00  0.00    +0.044 C 
ENDBRANCH  12  18
ENDBRANCH  11  12
ENDBRANCH   7  11
ENDBRANCH   1   9
BRANCH   5  21
ATOM     21  S   UNL     1       6.271   1.964   0.363  0.00  0.00    +0.100 S 
ATOM     22  O   UNL     1       7.261   1.070  -0.127  0.00  0.00    -0.146 OA
ATOM     23  O   UNL     1       6.069   3.256  -0.191  0.00  0.00    -0.146 OA
BRANCH  21  24
ATOM     24  N   UNL     1       6.588   2.184   1.974  0.00  0.00    -0.118 NA
ATOM     25  C   UNL     1       7.671   2.786   2.343  0.00  0.00    +0.117 C 
ATOM     26  C   UNL     1       8.663   3.289   1.296  0.00  0.00    +0.073 C 
ATOM     27  C   UNL     1       8.604   4.807   1.322  0.00  0.00    +0.008 C 
ATOM     28  C   UNL     1       9.568   5.434   2.331  0.00  0.00    +0.002 C 
ATOM     29  C   UNL     1       9.588   4.704   3.674  0.00  0.00    +0.019 C 
ATOM     30  C   UNL     1       8.210   4.313   4.162  0.00  0.00    +0.102 C 
ATOM     31  N   UNL     1       7.926   2.963   3.625  0.00  0.00    -0.331 N 
ATOM     32  H   UNL     1       7.926   2.199   4.223  0.00  0.00    +0.147 HD
ENDBRANCH  21  24
ENDBRANCH   5  21
TORSDOF 6
