REMARK  Name = ZINC09505033
REMARK  8 active torsions:
REMARK  status: ('A' for Active; 'I' for Inactive)
REMARK    1  A    between atoms: C_1  and  N_57
REMARK    2  A    between atoms: C_2  and  N_57
REMARK    3  A    between atoms: C_3  and  C_4
REMARK    4  A    between atoms: C_3  and  N_57
REMARK    5  A    between atoms: C_4  and  N_5
REMARK    6  A    between atoms: C_15  and  C_17
REMARK    7  A    between atoms: N_20  and  S_23
REMARK    8  A    between atoms: S_23  and  C_26
REMARK                            x       y       z     vdW  Elec       q    Type
REMARK                         _______ _______ _______ _____ _____    ______ ____
ROOT
ATOM      1  N   UNL     1       1.492   7.240   0.357  0.00  0.00    -0.252 N 
ATOM      2  C   UNL     1       1.238   5.883   0.477  0.00  0.00    +0.168 A 
ATOM      3  N   UNL     1       0.107   5.239   0.305  0.00  0.00    -0.224 NA
ATOM      4  C   UNL     1       0.004   3.901   0.457  0.00  0.00    +0.080 A 
ATOM      5  C   UNL     1      -1.145   3.091   0.303  0.00  0.00    +0.029 A 
ATOM      6  C   UNL     1      -1.075   1.735   0.489  0.00  0.00    +0.002 A 
ATOM      7  C   UNL     1       0.113   1.112   0.845  0.00  0.00    +0.001 A 
ATOM      8  C   UNL     1       1.256   1.873   1.004  0.00  0.00    +0.017 A 
ATOM      9  C   UNL     1       1.197   3.231   0.813  0.00  0.00    +0.041 A 
ATOM     10  S   UNL     1       2.367   4.565   0.903  0.00  0.00    -0.052 S 
ATOM     11  C   UNL     1       0.474   8.101   0.156  0.00  0.00    +0.224 C 
ATOM     12  O   UNL     1       0.703   9.276  -0.039  0.00  0.00    -0.275 OA
ENDROOT
BRANCH  11  13
ATOM     13  C   UNL     1      -0.948   7.603   0.173  0.00  0.00    +0.078 C 
ATOM     14  C   UNL     1      -1.289   6.986  -1.186  0.00  0.00    +0.030 C 
ATOM     15  C   UNL     1      -2.724   6.450  -1.154  0.00  0.00    +0.110 C 
ATOM     16  N   UNL     1      -3.624   7.535  -0.741  0.00  0.00    -0.176 NA
ATOM     17  C   UNL     1      -3.336   8.256   0.507  0.00  0.00    +0.110 C 
ATOM     18  C   UNL     1      -1.895   8.772   0.456  0.00  0.00    +0.030 C 
BRANCH  16  19
ATOM     19  S   UNL     1      -4.940   7.937  -1.663  0.00  0.00    +0.067 S 
ATOM     20  O   UNL     1      -5.268   6.784  -2.426  0.00  0.00    -0.152 OA
ATOM     21  O   UNL     1      -5.871   8.563  -0.791  0.00  0.00    -0.152 OA
BRANCH  19  22
ATOM     22  C   UNL     1      -4.417   9.168  -2.809  0.00  0.00    +0.144 A 
ATOM     23  C   UNL     1      -3.908   9.013  -4.055  0.00  0.00    +0.038 A 
ATOM     24  C   UNL     1      -3.562  10.137  -4.783  0.00  0.00    +0.030 A 
ATOM     25  C   UNL     1      -3.743  11.361  -4.228  0.00  0.00    +0.080 A 
ATOM     26  S   UNL     1      -4.426  10.945  -2.632  0.00  0.00    -0.057 S 
ATOM     27 CL   UNL     1      -3.404  12.926  -4.897  0.00  0.00    -0.076 Cl
ENDBRANCH  19  22
ENDBRANCH  16  19
ENDBRANCH  11  13
BRANCH   1  28
ATOM     28  C   UNL     1       2.866   7.739   0.449  0.00  0.00    +0.097 C 
BRANCH  28  29
ATOM     29  C   UNL     1       3.542   7.627  -0.919  0.00  0.00    -0.060 C 
BRANCH  29  32
ATOM     30  C   UNL     1       5.675   7.820  -2.049  0.00  0.00    -0.097 C 
ATOM     31  C   UNL     1       4.938   9.569  -0.545  0.00  0.00    -0.097 C 
ATOM     32  N   UNL     1       4.933   8.114  -0.805  0.00  0.00    +0.377 N 
ATOM     33  H   UNL     1       5.391   7.634  -0.022  0.00  0.00    -0.083 HD
ENDBRANCH  29  32
ENDBRANCH  28  29
ENDBRANCH   1  28
TORSDOF 6
