REMARK  Name = ZINC15690684
REMARK  11 active torsions:
REMARK  status: ('A' for Active; 'I' for Inactive)
REMARK    1  A    between atoms: C_1  and  N_63
REMARK    2  A    between atoms: C_2  and  N_63
REMARK    3  A    between atoms: C_3  and  C_5
REMARK    4  A    between atoms: C_3  and  C_27
REMARK    5  A    between atoms: C_3  and  N_63
REMARK    6  A    between atoms: C_5  and  N_6
REMARK    7  A    between atoms: C_7  and  C_9
REMARK    8  A    between atoms: C_13  and  S_15
REMARK    9  A    between atoms: S_15  and  N_18
REMARK   10  A    between atoms: C_32  and  O_33
REMARK   11  A    between atoms: O_33  and  C_34
REMARK                            x       y       z     vdW  Elec       q    Type
REMARK                         _______ _______ _______ _____ _____    ______ ____
ROOT
ATOM      1  N   UNL     1      -2.742  -0.441   0.255  0.00  0.00    -0.313 N 
ATOM      2  C   UNL     1      -2.830   0.903   0.186  0.00  0.00    +0.244 C 
ATOM      3  O   UNL     1      -3.849   1.425  -0.220  0.00  0.00    -0.270 OA
ATOM      4  H   UNL     1      -1.929  -0.858   0.579  0.00  0.00    +0.149 HD
ENDROOT
BRANCH   2   5
ATOM      5  C   UNL     1      -1.685   1.740   0.603  0.00  0.00    +0.039 A 
ATOM      6  C   UNL     1      -0.512   1.143   1.069  0.00  0.00    +0.013 A 
ATOM      7  C   UNL     1       0.554   1.930   1.452  0.00  0.00    +0.003 A 
ATOM      8  C   UNL     1       0.461   3.309   1.379  0.00  0.00    +0.029 A 
ATOM      9  C   UNL     1      -0.700   3.907   0.924  0.00  0.00    +0.109 A 
ATOM     10  C   UNL     1      -1.774   3.131   0.538  0.00  0.00    +0.041 A 
BRANCH   9  11
ATOM     11  S   UNL     1      -0.808   5.664   0.836  0.00  0.00    +0.075 S 
ATOM     12  O   UNL     1      -2.190   5.989   0.893  0.00  0.00    -0.150 OA
ATOM     13  O   UNL     1       0.135   6.176   1.768  0.00  0.00    -0.150 OA
BRANCH  11  14
ATOM     14  N   UNL     1      -0.278   6.112  -0.668  0.00  0.00    -0.202 N 
ATOM     15  C   UNL     1      -1.130   6.249  -1.852  0.00  0.00    +0.136 C 
ATOM     16  C   UNL     1      -0.182   6.680  -2.983  0.00  0.00    +0.058 C 
ATOM     17  C   UNL     1       1.179   6.756  -2.329  0.00  0.00    -0.023 A 
ATOM     18  C   UNL     1       1.045   6.420  -0.991  0.00  0.00    +0.054 A 
ATOM     19  C   UNL     1       2.177   6.425  -0.174  0.00  0.00    +0.025 A 
ATOM     20  C   UNL     1       3.408   6.763  -0.694  0.00  0.00    +0.002 A 
ATOM     21  C   UNL     1       3.531   7.101  -2.029  0.00  0.00    +0.000 A 
ATOM     22  C   UNL     1       2.416   7.089  -2.847  0.00  0.00    +0.005 A 
ENDBRANCH  11  14
ENDBRANCH   9  11
ENDBRANCH   2   5
BRANCH   1  23
ATOM     23  C   UNL     1      -3.877  -1.270  -0.159  0.00  0.00    +0.094 C 
BRANCH  23  24
ATOM     24  C   UNL     1      -3.452  -2.740  -0.179  0.00  0.00    -0.017 C 
BRANCH  24  25
ATOM     25  C   UNL     1      -4.654  -3.606  -0.458  0.00  0.00    -0.018 A 
ATOM     26  C   UNL     1      -4.887  -4.075  -1.736  0.00  0.00    +0.005 A 
ATOM     27  C   UNL     1      -5.987  -4.873  -1.991  0.00  0.00    +0.000 A 
ATOM     28  C   UNL     1      -6.861  -5.196  -0.969  0.00  0.00    +0.004 A 
ATOM     29  C   UNL     1      -6.635  -4.726   0.309  0.00  0.00    +0.046 A 
ATOM     30  C   UNL     1      -5.530  -3.929   0.569  0.00  0.00    +0.122 A 
BRANCH  30  31
ATOM     31  O   UNL     1      -5.305  -3.465   1.826  0.00  0.00    -0.495 OA
ATOM     32  C   UNL     1      -6.248  -3.837   2.833  0.00  0.00    +0.277 C 
ENDBRANCH  30  31
ENDBRANCH  24  25
BRANCH  24  35
ATOM     33  C   UNL     1      -2.652  -2.009  -2.344  0.00  0.00    -0.096 C 
ATOM     34  C   UNL     1      -1.087  -2.829  -0.689  0.00  0.00    -0.096 C 
ATOM     35  N   UNL     1      -2.450  -2.972  -1.241  0.00  0.00    +0.382 N 
ATOM     36  H   UNL     1      -2.565  -3.925  -1.606  0.00  0.00    -0.082 HD
ENDBRANCH  24  35
ENDBRANCH  23  24
ENDBRANCH   1  23
TORSDOF 8
