REMARK  Name = ZINC12278380
REMARK  13 active torsions:
REMARK  status: ('A' for Active; 'I' for Inactive)
REMARK    1  A    between atoms: C_1  and  C_2
REMARK    2  A    between atoms: C_2  and  O_3
REMARK    3  A    between atoms: O_3  and  C_4
REMARK    4  A    between atoms: C_6  and  C_11
REMARK    5  A    between atoms: C_9  and  O_10
REMARK    6  A    between atoms: C_11  and  N_71
REMARK    7  A    between atoms: C_14  and  C_17
REMARK    8  A    between atoms: C_17  and  C_19
REMARK    9  A    between atoms: C_17  and  N_27
REMARK   10  A    between atoms: C_19  and  C_20
REMARK   11  A    between atoms: N_27  and  C_28
REMARK   12  A    between atoms: C_29  and  C_31
REMARK   13  A    between atoms: C_35  and  C_36
REMARK                            x       y       z     vdW  Elec       q    Type
REMARK                         _______ _______ _______ _____ _____    ______ ____
ROOT
ATOM      1  C   UNL     1       4.498  -0.172   4.299  0.00  0.00    -0.078 C 
ATOM      2  C   UNL     1       5.243   1.164   4.332  0.00  0.00    -0.013 C 
ATOM      3  C   UNL     1       6.693   0.924   4.762  0.00  0.00    +0.006 C 
ATOM      4  C   UNL     1       7.348  -0.064   3.791  0.00  0.00    -0.013 C 
ATOM      5  C   UNL     1       6.541  -1.364   3.774  0.00  0.00    -0.078 C 
ATOM      6  N   UNL     1       5.162  -1.068   3.329  0.00  0.00    +0.382 N 
ATOM      7  H   UNL     1       5.200  -0.601   2.416  0.00  0.00    -0.081 HD
ENDROOT
BRANCH   6   8
ATOM      8  C   UNL     1       4.395  -2.324   3.194  0.00  0.00    -0.043 C 
BRANCH   8  11
ATOM      9  C   UNL     1       1.092  -1.484   1.565  0.00  0.00    +0.162 A 
ATOM     10  C   UNL     1       2.433  -1.788   1.738  0.00  0.00    +0.051 A 
ATOM     11  C   UNL     1       2.937  -1.993   3.009  0.00  0.00    -0.060 A 
ATOM     12  C   UNL     1       2.106  -1.895   4.109  0.00  0.00    +0.005 A 
ATOM     13  C   UNL     1       0.767  -1.592   3.944  0.00  0.00    +0.049 A 
ATOM     14  C   UNL     1       0.257  -1.380   2.674  0.00  0.00    +0.158 A 
BRANCH  14  15
ATOM     15  O   UNL     1      -1.059  -1.076   2.510  0.00  0.00    -0.503 OA
ATOM     16  H   UNL     1      -1.630  -1.848   2.399  0.00  0.00    +0.292 HD
ENDBRANCH  14  15
BRANCH   9  17
ATOM     17  O   UNL     1       0.594  -1.282   0.316  0.00  0.00    -0.489 OA
BRANCH  17  19
ATOM     18  C   UNL     1       0.774  -1.140  -2.090  0.00  0.00    +0.048 C 
ATOM     19  C   UNL     1       1.510  -1.399  -0.774  0.00  0.00    +0.226 C 
ENDBRANCH  17  19
ENDBRANCH   9  17
ENDBRANCH   8  11
ENDBRANCH   6   8
BRANCH   3  20
ATOM     20  C   UNL     1       7.460   2.248   4.738  0.00  0.00    +0.083 C 
BRANCH  20  21
ATOM     21  N   UNL     1       7.655   2.675   3.350  0.00  0.00    -0.297 N 
ATOM     22  C   UNL     1       6.755   2.189   2.301  0.00  0.00    +0.132 C 
ATOM     23  C   UNL     1       8.662   3.514   3.039  0.00  0.00    +0.250 C 
ATOM     24  O   UNL     1       9.476   3.829   3.886  0.00  0.00    -0.270 OA
BRANCH  23  25
ATOM     25  C   UNL     1       8.777   4.051   1.671  0.00  0.00    +0.077 A 
ATOM     26  C   UNL     1       7.804   3.913   0.577  0.00  0.00    +0.054 A 
ATOM     27  C   UNL     1       8.332   4.564  -0.470  0.00  0.00    +0.196 A 
ATOM     28  O   UNL     1       9.525   5.070  -0.118  0.00  0.00    -0.467 OA
ATOM     29  C   UNL     1       9.810   4.777   1.154  0.00  0.00    +0.114 A 
ATOM     30  C   UNL     1      11.061   5.179   1.892  0.00  0.00    +0.087 C 
ENDBRANCH  23  25
ENDBRANCH  20  21
BRANCH  20  31
ATOM     31  C   UNL     1       6.661   3.313   5.492  0.00  0.00    +0.060 C 
BRANCH  31  32
ATOM     32  C   UNL     1       7.501   4.555   5.646  0.00  0.00    -0.010 A 
ATOM     33  C   UNL     1       8.209   4.770   6.814  0.00  0.00    +0.006 A 
ATOM     34  C   UNL     1       8.983   5.907   6.953  0.00  0.00    +0.000 A 
ATOM     35  C   UNL     1       9.042   6.834   5.929  0.00  0.00    +0.003 A 
ATOM     36  C   UNL     1       8.331   6.624   4.764  0.00  0.00    +0.038 A 
ATOM     37  C   UNL     1       7.559   5.483   4.621  0.00  0.00    +0.127 A 
ATOM     38  F   UNL     1       6.862   5.276   3.482  0.00  0.00    -0.205 F 
ENDBRANCH  31  32
ENDBRANCH  20  31
ENDBRANCH   3  20
TORSDOF 10
