REMARK  Name = ZINC05464851
REMARK  11 active torsions:
REMARK  status: ('A' for Active; 'I' for Inactive)
REMARK    1  A    between atoms: C_1  and  C_2
REMARK    2  A    between atoms: C_7  and  N_8
REMARK    3  A    between atoms: N_9  and  C_10
REMARK    4  A    between atoms: C_13  and  N_17
REMARK    5  A    between atoms: C_14  and  C_16
REMARK    6  A    between atoms: N_18  and  C_19
REMARK    7  A    between atoms: C_21  and  C_30
REMARK    8  A    between atoms: C_22  and  O_29
REMARK    9  A    between atoms: C_30  and  N_59
REMARK   10  A    between atoms: C_31  and  N_59
REMARK   11  A    between atoms: C_32  and  N_59
REMARK                            x       y       z     vdW  Elec       q    Type
REMARK                         _______ _______ _______ _____ _____    ______ ____
ROOT
ATOM      1  N   UNL     1       4.704   4.097  -0.021  0.00  0.00    -0.149 NA
ATOM      2  N   UNL     1       5.830   3.467  -0.034  0.00  0.00    -0.149 NA
ENDROOT
BRANCH   2   3
ATOM      3  C   UNL     1       6.997   4.163  -0.041  0.00  0.00    +0.096 A 
ATOM      4  C   UNL     1       6.993   5.556  -0.040  0.00  0.00    +0.035 A 
ATOM      5  C   UNL     1       8.183   6.263  -0.042  0.00  0.00    -0.018 A 
ATOM      6  C   UNL     1       9.405   5.625  -0.056  0.00  0.00    +0.144 A 
ATOM      7  C   UNL     1       9.478   4.215  -0.064  0.00  0.00    +0.114 A 
ATOM      8  C   UNL     1       8.281   3.462  -0.056  0.00  0.00    +0.031 A 
ATOM      9  C   UNL     1       8.351   2.062  -0.062  0.00  0.00    +0.014 A 
ATOM     10  C   UNL     1       9.589   1.479  -0.077  0.00  0.00    +0.020 A 
ATOM     11  C   UNL     1      10.730   2.276  -0.083  0.00  0.00    +0.111 A 
ATOM     12  N   UNL     1      10.656   3.586  -0.077  0.00  0.00    -0.251 NA
BRANCH   6  13
ATOM     13  O   UNL     1      10.546   6.358  -0.063  0.00  0.00    -0.504 OA
ATOM     14  H   UNL     1      10.869   6.575  -0.949  0.00  0.00    +0.292 HD
ENDBRANCH   6  13
BRANCH   5  15
ATOM     15  C   UNL     1       8.142   7.769  -0.034  0.00  0.00    -0.040 C 
BRANCH  15  18
ATOM     16  C   UNL     1       7.242   7.896  -2.278  0.00  0.00    -0.096 C 
ATOM     17  C   UNL     1       8.559   9.727  -1.397  0.00  0.00    -0.096 C 
ATOM     18  N   UNL     1       8.380   8.260  -1.408  0.00  0.00    +0.379 N 
ATOM     19  H   UNL     1       9.233   7.822  -1.775  0.00  0.00    -0.082 HD
ENDBRANCH  15  18
ENDBRANCH   5  15
ENDBRANCH   2   3
BRANCH   1  23
ATOM     20  C   UNL     1       1.157   1.984   0.002  0.00  0.00    +0.087 A 
ATOM     21  C   UNL     1       2.379   1.300  -0.014  0.00  0.00    +0.032 A 
ATOM     22  C   UNL     1       3.551   1.999  -0.021  0.00  0.00    +0.032 A 
ATOM     23  C   UNL     1       3.532   3.399  -0.014  0.00  0.00    +0.089 A 
ATOM     24  C   UNL     1       2.311   4.082   0.001  0.00  0.00    -0.021 A 
ATOM     25  C   UNL     1       1.138   3.384   0.004  0.00  0.00    +0.035 A 
ATOM     26  C   UNL     1       2.290   5.589   0.009  0.00  0.00    +0.046 C 
BRANCH  20  28
ATOM     27  N   UNL     1       0.002  -0.004   0.002  0.00  0.00    -0.149 NA
ATOM     28  N   UNL     1      -0.015   1.286   0.009  0.00  0.00    -0.149 NA
BRANCH  27  35
ATOM     29  C   UNL     1       0.155  -2.842  -0.027  0.00  0.00    +0.046 C 
ATOM     30  C   UNL     1      -1.157  -2.101  -0.004  0.00  0.00    -0.023 A 
ATOM     31  C   UNL     1      -2.346  -2.800   0.009  0.00  0.00    +0.005 A 
ATOM     32  C   UNL     1      -3.551  -2.121   0.024  0.00  0.00    +0.000 A 
ATOM     33  C   UNL     1      -3.574  -0.737   0.032  0.00  0.00    +0.002 A 
ATOM     34  C   UNL     1      -2.394  -0.024   0.025  0.00  0.00    +0.030 A 
ATOM     35  C   UNL     1      -1.172  -0.703   0.009  0.00  0.00    +0.089 A 
ENDBRANCH  27  35
ENDBRANCH  20  28
ENDBRANCH   1  23
TORSDOF 7
