REMARK  Name = ZINC00647414
REMARK  10 active torsions:
REMARK  status: ('A' for Active; 'I' for Inactive)
REMARK    1  A    between atoms: C_1  and  C_2
REMARK    2  A    between atoms: C_3  and  C_31
REMARK    3  A    between atoms: C_4  and  C_21
REMARK    4  A    between atoms: C_10  and  C_15
REMARK    5  A    between atoms: C_25  and  O_29
REMARK    6  A    between atoms: C_26  and  O_27
REMARK    7  A    between atoms: O_27  and  C_28
REMARK    8  A    between atoms: O_29  and  C_30
REMARK    9  A    between atoms: C_31  and  O_33
REMARK   10  A    between atoms: O_33  and  C_34
REMARK                            x       y       z     vdW  Elec       q    Type
REMARK                         _______ _______ _______ _____ _____    ______ ____
ROOT
ATOM      1  C   UNL     1       6.927   0.411   1.392  0.00  0.00    +0.061 C 
ATOM      2  C   UNL     1       5.936   0.408   0.257  0.00  0.00    +0.016 C 
ATOM      3  C   UNL     1       5.019  -0.571   0.173  0.00  0.00    +0.065 C 
ATOM      4  C   UNL     1       4.012  -0.603  -0.938  0.00  0.00    +0.096 C 
ATOM      5  C   UNL     1       4.441   0.281  -2.083  0.00  0.00    +0.024 C 
ATOM      6  C   UNL     1       5.383   1.232  -1.904  0.00  0.00    +0.016 C 
ATOM      7  N   UNL     1       5.975   1.402  -0.681  0.00  0.00    -0.321 N 
ATOM      8  C   UNL     1       5.803   2.132  -3.039  0.00  0.00    +0.059 C 
ATOM      9  C   UNL     1       5.673   1.381  -4.365  0.00  0.00    +0.032 C 
ATOM     10  C   UNL     1       4.220   0.923  -4.526  0.00  0.00    +0.088 C 
ATOM     11  C   UNL     1       3.836   0.086  -3.336  0.00  0.00    +0.162 C 
ATOM     12  O   UNL     1       2.987  -0.774  -3.462  0.00  0.00    -0.292 OA
ATOM     13  H   UNL     1       6.486   2.350  -0.457  0.00  0.00    +0.152 HD
ENDROOT
BRANCH   9  14
ATOM     14  C   UNL     1       6.044   2.296  -5.504  0.00  0.00    -0.044 A 
ATOM     15  C   UNL     1       5.343   3.470  -5.704  0.00  0.00    +0.004 A 
ATOM     16  C   UNL     1       5.686   4.311  -6.746  0.00  0.00    +0.000 A 
ATOM     17  C   UNL     1       6.725   3.974  -7.593  0.00  0.00    +0.000 A 
ATOM     18  C   UNL     1       7.424   2.798  -7.395  0.00  0.00    +0.000 A 
ATOM     19  C   UNL     1       7.083   1.959  -6.351  0.00  0.00    +0.004 A 
ENDBRANCH   9  14
BRANCH   4  20
ATOM     20  C   UNL     1       2.682  -0.123  -0.415  0.00  0.00    +0.010 A 
ATOM     21  C   UNL     1       1.532  -0.840  -0.689  0.00  0.00    +0.008 A 
ATOM     22  C   UNL     1       0.311  -0.404  -0.210  0.00  0.00    +0.004 A 
ATOM     23  C   UNL     1       0.235   0.752   0.546  0.00  0.00    +0.049 A 
ATOM     24  C   UNL     1       1.383   1.474   0.824  0.00  0.00    +0.162 A 
ATOM     25  C   UNL     1       2.612   1.035   0.342  0.00  0.00    +0.166 A 
BRANCH  25  26
ATOM     26  O   UNL     1       3.743   1.741   0.613  0.00  0.00    -0.491 OA
ATOM     27  C   UNL     1       4.247   1.670   1.948  0.00  0.00    +0.277 C 
ENDBRANCH  25  26
BRANCH  24  28
ATOM     28  O   UNL     1       1.310   2.611   1.568  0.00  0.00    -0.491 OA
ATOM     29  C   UNL     1       0.015   3.001   2.030  0.00  0.00    +0.277 C 
ENDBRANCH  24  28
ENDBRANCH   4  20
BRANCH   3  30
ATOM     30  C   UNL     1       5.004  -1.592   1.152  0.00  0.00    +0.338 C 
ATOM     31  O   UNL     1       5.880  -1.640   1.995  0.00  0.00    -0.245 OA
BRANCH  30  32
ATOM     32  O   UNL     1       4.017  -2.513   1.151  0.00  0.00    -0.458 OA
BRANCH  32  33
ATOM     33  C   UNL     1       4.064  -3.515   2.169  0.00  0.00    +0.177 C 
ATOM     34  C   UNL     1       4.869  -4.716   1.666  0.00  0.00    +0.044 C 
ATOM     35  C   UNL     1       4.920  -5.789   2.755  0.00  0.00    +0.004 C 
ATOM     36  C   UNL     1       3.497  -6.235   3.097  0.00  0.00    +0.000 C 
ATOM     37  C   UNL     1       2.692  -5.035   3.600  0.00  0.00    +0.004 C 
ATOM     38  C   UNL     1       2.642  -3.962   2.511  0.00  0.00    +0.044 C 
ENDBRANCH  32  33
ENDBRANCH  30  32
ENDBRANCH   3  30
TORSDOF 7
