REMARK  Name = ZINC39422258
REMARK  14 active torsions:
REMARK  status: ('A' for Active; 'I' for Inactive)
REMARK    1  A    between atoms: C_1  and  C_2
REMARK    2  A    between atoms: C_2  and  O_3
REMARK    3  A    between atoms: O_3  and  C_4
REMARK    4  A    between atoms: C_6  and  C_21
REMARK    5  A    between atoms: C_9  and  O_10
REMARK    6  A    between atoms: O_10  and  C_11
REMARK    7  A    between atoms: C_11  and  C_13
REMARK    8  A    between atoms: C_18  and  O_19
REMARK    9  A    between atoms: O_19  and  C_20
REMARK   10  A    between atoms: C_21  and  C_23
REMARK   11  A    between atoms: C_21  and  C_30
REMARK   12  A    between atoms: C_24  and  C_29
REMARK   13  A    between atoms: C_31  and  C_37
REMARK   14  A    between atoms: C_34  and  O_36
REMARK                            x       y       z     vdW  Elec       q    Type
REMARK                         _______ _______ _______ _____ _____    ______ ____
ROOT
ATOM      1  C   UNL     1      -1.741  -2.044  -0.113  0.00  0.00    +0.163 A 
ATOM      2  C   UNL     1      -0.580  -2.794  -0.223  0.00  0.00    +0.054 A 
ATOM      3  C   UNL     1      -0.594  -4.140   0.093  0.00  0.00    -0.032 A 
ATOM      4  C   UNL     1      -1.764  -4.741   0.518  0.00  0.00    +0.008 A 
ATOM      5  C   UNL     1      -2.926  -4.000   0.629  0.00  0.00    +0.050 A 
ATOM      6  C   UNL     1      -2.917  -2.649   0.320  0.00  0.00    +0.173 A 
ENDROOT
BRANCH   1   7
ATOM      7  O   UNL     1      -1.728  -0.721  -0.422  0.00  0.00    -0.489 OA
BRANCH   7   9
ATOM      8  C   UNL     1      -0.666   1.321  -1.160  0.00  0.00    +0.048 C 
ATOM      9  C   UNL     1      -0.485  -0.168  -0.860  0.00  0.00    +0.226 C 
ENDBRANCH   7   9
ENDBRANCH   1   7
BRANCH   6  10
ATOM     10  O   UNL     1      -4.057  -1.916   0.434  0.00  0.00    -0.419 OA
BRANCH  10  11
ATOM     11  C   UNL     1      -4.825  -1.766  -0.663  0.00  0.00    +0.348 C 
ATOM     12  O   UNL     1      -4.541  -2.353  -1.688  0.00  0.00    -0.244 OA
BRANCH  11  13
ATOM     13  C   UNL     1      -6.010  -0.890  -0.619  0.00  0.00    +0.101 A 
ATOM     14  C   UNL     1      -6.337  -0.208   0.556  0.00  0.00    +0.018 A 
ATOM     15  C   UNL     1      -7.445   0.609   0.590  0.00  0.00    +0.001 A 
ATOM     16  C   UNL     1      -8.239   0.759  -0.536  0.00  0.00    +0.004 A 
ATOM     17  C   UNL     1      -7.927   0.091  -1.704  0.00  0.00    +0.046 A 
ATOM     18  C   UNL     1      -6.811  -0.731  -1.758  0.00  0.00    +0.134 A 
BRANCH  18  19
ATOM     19  O   UNL     1      -6.501  -1.382  -2.907  0.00  0.00    -0.494 OA
ATOM     20  C   UNL     1      -7.364  -1.171  -4.026  0.00  0.00    +0.277 C 
ENDBRANCH  18  19
ENDBRANCH  11  13
ENDBRANCH  10  11
ENDBRANCH   6  10
BRANCH   3  21
ATOM     21  C   UNL     1       0.668  -4.953  -0.027  0.00  0.00    +0.088 C 
BRANCH  21  22
ATOM     22  C   UNL     1       0.887  -5.732   1.245  0.00  0.00    +0.052 A 
ATOM     23  C   UNL     1       0.597  -5.292   2.540  0.00  0.00    +0.068 A 
ATOM     24  N   UNL     1       0.922  -6.242   3.378  0.00  0.00    -0.176 NA
ATOM     25  N   UNL     1       1.433  -7.321   2.646  0.00  0.00    -0.243 N 
ATOM     26  C   UNL     1       1.398  -6.988   1.336  0.00  0.00    +0.271 A 
ATOM     27  O   UNL     1       1.801  -7.767   0.300  0.00  0.00    -0.266 OA
ATOM     28  C   UNL     1       0.009  -3.953   2.906  0.00  0.00    +0.068 C 
ATOM     29  H   UNL     1       1.752  -8.160   3.013  0.00  0.00    +0.192 HD
ENDBRANCH  21  22
BRANCH  21  30
ATOM     30  C   UNL     1       0.542  -5.909  -1.185  0.00  0.00    +0.017 C 
ATOM     31  C   UNL     1       1.311  -5.989  -2.273  0.00  0.00    +0.065 C 
ATOM     32  N   UNL     1       0.884  -6.976  -3.092  0.00  0.00    -0.156 NA
ATOM     33  N   UNL     1      -0.105  -7.589  -2.682  0.00  0.00    -0.151 NA
ATOM     34  C   UNL     1      -0.486  -7.009  -1.383  0.00  0.00    +0.284 C 
ATOM     35  C   UNL     1       2.496  -5.100  -2.551  0.00  0.00    +0.067 C 
BRANCH  34  36
ATOM     36  O   UNL     1      -1.805  -6.463  -1.444  0.00  0.00    -0.366 OA
ATOM     37  H   UNL     1      -2.499  -7.124  -1.569  0.00  0.00    +0.212 HD
ENDBRANCH  34  36
ENDBRANCH  21  30
ENDBRANCH   3  21
TORSDOF 10
