REMARK  Name = ZINC35004424
REMARK  11 active torsions:
REMARK  status: ('A' for Active; 'I' for Inactive)
REMARK    1  A    between atoms: C_1  and  C_2
REMARK    2  A    between atoms: C_2  and  C_3
REMARK    3  A    between atoms: C_3  and  C_5
REMARK    4  A    between atoms: C_3  and  C_6
REMARK    5  A    between atoms: C_6  and  C_8
REMARK    6  A    between atoms: C_6  and  N_24
REMARK    7  A    between atoms: C_14  and  C_17
REMARK    8  A    between atoms: N_20  and  C_21
REMARK    9  A    between atoms: C_21  and  C_22
REMARK   10  A    between atoms: C_21  and  C_23
REMARK   11  A    between atoms: N_27  and  C_28
REMARK                            x       y       z     vdW  Elec       q    Type
REMARK                         _______ _______ _______ _____ _____    ______ ____
ROOT
ATOM      1  C   UNL     1      -1.867  -0.243  -1.282  0.00  0.00    +0.163 C 
ENDROOT
BRANCH   1   2
ATOM      2  C   UNL     1      -3.233  -0.860  -1.439  0.00  0.00    +0.236 C 
ATOM      3  O   UNL     1      -4.180  -0.167  -1.746  0.00  0.00    -0.274 OA
ATOM      4  N   UNL     1      -3.403  -2.182  -1.238  0.00  0.00    -0.297 N 
ATOM      5  C   UNL     1      -2.288  -3.015  -0.765  0.00  0.00    +0.127 C 
ATOM      6  C   UNL     1      -2.090  -4.173  -1.752  0.00  0.00    +0.128 C 
ATOM      7  N   UNL     1      -3.393  -4.806  -2.000  0.00  0.00    -0.280 N 
ATOM      8  C   UNL     1      -4.507  -3.973  -2.472  0.00  0.00    +0.092 C 
ATOM      9  C   UNL     1      -4.707  -2.814  -1.481  0.00  0.00    +0.130 C 
ATOM     10  C   UNL     1      -4.182  -3.419  -3.861  0.00  0.00    +0.030 C 
ATOM     11  C   UNL     1      -3.563  -6.128  -1.799  0.00  0.00    +0.303 C 
ATOM     12  O   UNL     1      -4.613  -6.660  -2.103  0.00  0.00    -0.253 OA
ATOM     13  N   UNL     1      -2.568  -6.861  -1.261  0.00  0.00    -0.297 N 
ATOM     14  H   UNL     1      -1.760  -6.426  -0.946  0.00  0.00    +0.150 HD
BRANCH  13  15
ATOM     15  C   UNL     1      -2.706  -8.316  -1.151  0.00  0.00    +0.068 C 
ATOM     16  C   UNL     1      -2.279  -8.969  -2.466  0.00  0.00    +0.027 C 
ATOM     17  C   UNL     1      -1.819  -8.828  -0.014  0.00  0.00    +0.027 C 
ENDBRANCH  13  15
ENDBRANCH   1   2
BRANCH   1  18
ATOM     18  N   UNL     1      -1.917   1.163  -1.688  0.00  0.00    -0.288 N 
ATOM     19  C   UNL     1      -0.840   1.738  -2.260  0.00  0.00    +0.301 C 
ATOM     20  O   UNL     1       0.138   1.066  -2.527  0.00  0.00    -0.253 OA
ATOM     21  N   UNL     1      -0.847   3.057  -2.536  0.00  0.00    -0.294 N 
ATOM     22  H   UNL     1      -2.725   1.681  -1.546  0.00  0.00    +0.151 HD
ATOM     23  H   UNL     1      -1.627   3.593  -2.323  0.00  0.00    +0.151 HD
BRANCH  21  24
ATOM     24  C   UNL     1       0.324   3.682  -3.157  0.00  0.00    +0.037 C 
ATOM     25  C   UNL     1       1.541   3.501  -2.248  0.00  0.00    +0.029 C 
ATOM     26  C   UNL     1       2.764   4.153  -2.897  0.00  0.00    -0.008 C 
ATOM     27  C   UNL     1       2.497   5.646  -3.101  0.00  0.00    +0.007 C 
ATOM     28  C   UNL     1       1.280   5.827  -4.010  0.00  0.00    -0.008 C 
ATOM     29  C   UNL     1       0.057   5.175  -3.361  0.00  0.00    +0.029 C 
ATOM     30  C   UNL     1       1.551   5.168  -5.363  0.00  0.00    +0.007 C 
ATOM     31  C   UNL     1       1.817   3.675  -5.160  0.00  0.00    -0.008 C 
ATOM     32  C   UNL     1       3.035   3.494  -4.251  0.00  0.00    +0.007 C 
ATOM     33  C   UNL     1       0.595   3.023  -4.511  0.00  0.00    +0.029 C 
ENDBRANCH  21  24
ENDBRANCH   1  18
BRANCH   1  34
ATOM     34  C   UNL     1      -1.431  -0.336   0.182  0.00  0.00    +0.015 C 
ATOM     35  C   UNL     1       0.021   0.129   0.311  0.00  0.00    +0.010 C 
BRANCH  34  37
ATOM     36  C   UNL     1      -3.743  -0.029   1.078  0.00  0.00    +0.004 C 
ATOM     37  C   UNL     1      -2.330   0.557   1.040  0.00  0.00    +0.002 C 
ENDBRANCH  34  37
ENDBRANCH   1  34
TORSDOF 6
