REMARK  Name = ZINC40404051
REMARK  12 active torsions:
REMARK  status: ('A' for Active; 'I' for Inactive)
REMARK    1  A    between atoms: C_4  and  C_7
REMARK    2  A    between atoms: C_7  and  O_8
REMARK    3  A    between atoms: O_8  and  C_9
REMARK    4  A    between atoms: C_9  and  C_10
REMARK    5  A    between atoms: C_10  and  C_12
REMARK    6  A    between atoms: C_10  and  O_37
REMARK    7  A    between atoms: C_12  and  N_13
REMARK    8  A    between atoms: N_13  and  C_14
REMARK    9  A    between atoms: N_13  and  C_22
REMARK   10  A    between atoms: C_14  and  C_15
REMARK   11  A    between atoms: C_22  and  C_23
REMARK   12  A    between atoms: C_26  and  C_29
REMARK                            x       y       z     vdW  Elec       q    Type
REMARK                         _______ _______ _______ _____ _____    ______ ____
ROOT
ATOM      1  N   UNL     1       7.132  -2.981   4.342  0.00  0.00    +0.387 N 
ATOM      2  H   UNL     1       7.107  -2.118   4.864  0.00  0.00    -0.081 HD
ENDROOT
BRANCH   1   3
ATOM      3  C   UNL     1       6.910  -2.699   2.918  0.00  0.00    -0.044 C 
BRANCH   3   4
ATOM      4  C   UNL     1       5.603  -1.922   2.749  0.00  0.00    +0.124 C 
BRANCH   4   5
ATOM      5  O   UNL     1       5.725  -0.642   3.374  0.00  0.00    -0.391 OA
ATOM      6  H   UNL     1       6.433  -0.093   3.009  0.00  0.00    +0.210 HD
ENDBRANCH   4   5
BRANCH   4   7
ATOM      7  C   UNL     1       5.309  -1.736   1.259  0.00  0.00    +0.189 C 
BRANCH   7   8
ATOM      8  O   UNL     1       4.032  -1.114   1.100  0.00  0.00    -0.373 OA
BRANCH   8   9
ATOM      9  C   UNL     1       3.659  -0.894  -0.262  0.00  0.00    +0.195 C 
BRANCH   9  13
ATOM     10  C   UNL     1      -0.183   0.968  -0.404  0.00  0.00    +0.000 A 
ATOM     11  C   UNL     1       0.959   1.744  -0.349  0.00  0.00    +0.000 A 
ATOM     12  C   UNL     1       2.203   1.142  -0.302  0.00  0.00    +0.006 A 
ATOM     13  C   UNL     1       2.303  -0.237  -0.311  0.00  0.00    -0.022 A 
ATOM     14  C   UNL     1       1.161  -1.013  -0.366  0.00  0.00    +0.006 A 
ATOM     15  C   UNL     1      -0.082  -0.411  -0.413  0.00  0.00    +0.000 A 
ENDBRANCH   9  13
ENDBRANCH   8   9
ENDBRANCH   7   8
ENDBRANCH   4   7
ENDBRANCH   3   4
ENDBRANCH   1   3
BRANCH   1  16
ATOM     16  C   UNL     1       6.080  -3.881   4.832  0.00  0.00    -0.040 C 
BRANCH  16  17
ATOM     17  C   UNL     1       6.005  -5.097   3.945  0.00  0.00    -0.029 A 
ATOM     18  C   UNL     1       5.100  -5.137   2.902  0.00  0.00    +0.004 A 
ATOM     19  C   UNL     1       5.031  -6.252   2.088  0.00  0.00    +0.000 A 
ATOM     20  C   UNL     1       5.867  -7.329   2.317  0.00  0.00    +0.003 A 
ATOM     21  C   UNL     1       6.774  -7.291   3.360  0.00  0.00    +0.038 A 
ATOM     22  C   UNL     1       6.847  -6.172   4.172  0.00  0.00    +0.125 A 
ATOM     23  F   UNL     1       7.736  -6.132   5.189  0.00  0.00    -0.205 F 
ENDBRANCH  16  17
ENDBRANCH   1  16
BRANCH   1  24
ATOM     24  C   UNL     1       8.443  -3.620   4.516  0.00  0.00    -0.030 C 
BRANCH  24  25
ATOM     25  C   UNL     1       8.810  -3.636   6.002  0.00  0.00    +0.194 C 
ATOM     26  C   UNL     1      10.175  -4.328   6.228  0.00  0.00    +0.104 C 
ATOM     27  C   UNL     1       9.950  -5.083   7.525  0.00  0.00    +0.091 C 
ATOM     28  N   UNL     1       8.680  -5.132   7.750  0.00  0.00    -0.089 NA
ATOM     29  O   UNL     1       7.918  -4.492   6.745  0.00  0.00    -0.392 OA
BRANCH  27  30
ATOM     30  C   UNL     1      11.004  -5.663   8.381  0.00  0.00    +0.001 A 
ATOM     31  C   UNL     1      12.347  -5.534   8.024  0.00  0.00    +0.011 A 
ATOM     32  C   UNL     1      13.327  -6.077   8.828  0.00  0.00    +0.022 A 
ATOM     33  C   UNL     1      12.981  -6.749   9.989  0.00  0.00    +0.059 A 
ATOM     34  C   UNL     1      11.650  -6.880  10.349  0.00  0.00    +0.060 A 
ATOM     35  C   UNL     1      10.660  -6.336   9.555  0.00  0.00    +0.031 A 
ATOM     36 CL   UNL     1      11.225  -7.724  11.806  0.00  0.00    -0.082 Cl
ATOM     37 CL   UNL     1      14.221  -7.431  10.995  0.00  0.00    -0.082 Cl
ENDBRANCH  27  30
ENDBRANCH  24  25
ENDBRANCH   1  24
TORSDOF 12
