REMARK  Name = ZINC13564995
REMARK  6 active torsions:
REMARK  status: ('A' for Active; 'I' for Inactive)
REMARK    1  A    between atoms: C_1  and  C_2
REMARK    2  A    between atoms: C_3  and  C_21
REMARK    3  A    between atoms: N_7  and  C_8
REMARK    4  A    between atoms: C_8  and  C_10
REMARK    5  A    between atoms: C_10  and  N_11
REMARK    6  A    between atoms: C_30  and  C_32
REMARK                            x       y       z     vdW  Elec       q    Type
REMARK                         _______ _______ _______ _____ _____    ______ ____
ROOT
ATOM      1  C   UNL     1      -0.010   1.871  -0.096  0.00  0.00    +0.054 C 
ATOM      2  C   UNL     1       0.088   0.376   0.067  0.00  0.00    +0.014 A 
ATOM      3  C   UNL     1      -0.898  -0.525   0.279  0.00  0.00    +0.058 A 
ATOM      4  N   UNL     1      -0.524  -1.834   0.390  0.00  0.00    -0.335 N 
ATOM      5  C   UNL     1       0.794  -2.151   0.284  0.00  0.00    +0.164 A 
ATOM      6  S   UNL     1       1.536  -0.665   0.024  0.00  0.00    -0.057 S 
ATOM      7  N   UNL     1       1.363  -3.355   0.362  0.00  0.00    -0.155 NA
ATOM      8  H   UNL     1      -1.187  -2.526   0.543  0.00  0.00    +0.168 HD
ENDROOT
BRANCH   3   9
ATOM      9  C   UNL     1      -2.314  -0.112   0.385  0.00  0.00    -0.001 A 
ATOM     10  C   UNL     1      -2.866   0.757  -0.558  0.00  0.00    +0.012 A 
ATOM     11  C   UNL     1      -4.184   1.138  -0.456  0.00  0.00    +0.024 A 
ATOM     12  C   UNL     1      -4.981   0.662   0.589  0.00  0.00    +0.040 A 
ATOM     13  C   UNL     1      -4.429  -0.200   1.524  0.00  0.00    -0.024 A 
ATOM     14  C   UNL     1      -3.110  -0.592   1.426  0.00  0.00    +0.015 A 
ATOM     15  C   UNL     1      -5.494  -0.559   2.535  0.00  0.00    +0.056 C 
ATOM     16  C   UNL     1      -6.743   0.206   2.070  0.00  0.00    +0.119 C 
ATOM     17  N   UNL     1      -6.325   0.928   0.865  0.00  0.00    -0.267 N 
ATOM     18  C   UNL     1      -7.120   1.730   0.130  0.00  0.00    +0.254 C 
ATOM     19  O   UNL     1      -6.708   2.210  -0.908  0.00  0.00    -0.270 OA
BRANCH  18  20
ATOM     20  C   UNL     1      -8.493   2.027   0.586  0.00  0.00    +0.072 A 
ATOM     21  C   UNL     1      -8.733   2.365   1.920  0.00  0.00    +0.016 A 
ATOM     22  C   UNL     1     -10.017   2.640   2.339  0.00  0.00    +0.001 A 
ATOM     23  C   UNL     1     -11.070   2.582   1.442  0.00  0.00    +0.003 A 
ATOM     24  C   UNL     1     -10.844   2.248   0.120  0.00  0.00    +0.039 A 
ATOM     25  C   UNL     1      -9.560   1.976  -0.317  0.00  0.00    +0.135 A 
ATOM     26  F   UNL     1      -9.338   1.656  -1.611  0.00  0.00    -0.205 F 
ENDBRANCH  18  20
ENDBRANCH   3   9
BRANCH   7  27
ATOM     27  C   UNL     1       2.678  -3.478   0.233  0.00  0.00    +0.252 C 
ATOM     28  O   UNL     1       3.365  -2.491   0.044  0.00  0.00    -0.272 OA
BRANCH  27  29
ATOM     29  C   UNL     1       3.321  -4.838   0.322  0.00  0.00    +0.183 C 
BRANCH  29  30
ATOM     30  N   UNL     1       4.774  -4.705   0.148  0.00  0.00    -0.289 NA
ATOM     31  C   UNL     1       5.411  -6.025   0.013  0.00  0.00    +0.090 C 
ATOM     32  C   UNL     1       6.829  -5.826  -0.523  0.00  0.00    +0.051 C 
ATOM     33  C   UNL     1       7.550  -4.790   0.300  0.00  0.00    -0.042 A 
ATOM     34  C   UNL     1       8.932  -4.720   0.213  0.00  0.00    +0.004 A 
ATOM     35  C   UNL     1       9.631  -3.783   0.947  0.00  0.00    +0.000 A 
ATOM     36  C   UNL     1       8.949  -2.908   1.772  0.00  0.00    +0.000 A 
ATOM     37  C   UNL     1       7.573  -2.977   1.860  0.00  0.00    +0.005 A 
ATOM     38  C   UNL     1       6.870  -3.920   1.125  0.00  0.00    -0.030 A 
ATOM     39  C   UNL     1       5.370  -3.964   1.264  0.00  0.00    +0.120 C 
ENDBRANCH  29  30
ENDBRANCH  27  29
ENDBRANCH   7  27
TORSDOF 5
