REMARK  Name = ZINC14755170
REMARK  11 active torsions:
REMARK  status: ('A' for Active; 'I' for Inactive)
REMARK    1  A    between atoms: C_1  and  C_2
REMARK    2  A    between atoms: C_2  and  C_4
REMARK    3  A    between atoms: C_2  and  N_71
REMARK    4  A    between atoms: C_4  and  C_5
REMARK    5  A    between atoms: C_5  and  N_6
REMARK    6  A    between atoms: N_18  and  C_26
REMARK    7  A    between atoms: N_21  and  C_22
REMARK    8  A    between atoms: C_22  and  C_23
REMARK    9  A    between atoms: C_23  and  O_24
REMARK   10  A    between atoms: O_24  and  C_25
REMARK   11  A    between atoms: C_26  and  C_27
REMARK                            x       y       z     vdW  Elec       q    Type
REMARK                         _______ _______ _______ _____ _____    ______ ____
ROOT
ATOM      1  C   UNL     1      -3.006   1.061  -5.773  0.00  0.00    -0.076 C 
ATOM      2  C   UNL     1      -2.936   0.131  -4.558  0.00  0.00    +0.017 C 
ATOM      3  C   UNL     1      -3.559   0.829  -3.353  0.00  0.00    +0.112 C 
ATOM      4  C   UNL     1      -4.990   1.256  -3.664  0.00  0.00    +0.017 C 
ATOM      5  C   UNL     1      -4.992   2.149  -4.908  0.00  0.00    -0.076 C 
ATOM      6  C   UNL     1      -3.528  -0.077  -2.144  0.00  0.00    +0.247 C 
ATOM      7  O   UNL     1      -4.067  -1.156  -2.021  0.00  0.00    -0.273 OA
ATOM      8  N   UNL     1      -2.776   0.570  -1.229  0.00  0.00    -0.220 N 
ATOM      9  C   UNL     1      -2.340   1.747  -1.693  0.00  0.00    +0.312 C 
ATOM     10  O   UNL     1      -1.648   2.513  -1.050  0.00  0.00    -0.252 OA
ATOM     11  N   UNL     1      -2.750   1.987  -2.953  0.00  0.00    -0.269 N 
ATOM     12  N   UNL     1      -4.422   1.391  -6.042  0.00  0.00    +0.382 N 
ATOM     13  H   UNL     1      -4.951   0.518  -6.159  0.00  0.00    -0.081 HD
ENDROOT
BRANCH  12  15
ATOM     14  C   UNL     1      -3.811   3.527  -7.128  0.00  0.00    -0.013 C 
ATOM     15  C   UNL     1      -4.528   2.185  -7.284  0.00  0.00    -0.070 C 
BRANCH  15  16
ATOM     16  C   UNL     1      -6.007   2.429  -7.590  0.00  0.00    +0.008 C 
BRANCH  16  17
ATOM     17  C   UNL     1      -6.697   1.092  -7.869  0.00  0.00    +0.142 C 
BRANCH  17  18
ATOM     18  N   UNL     1      -8.113   1.326  -8.162  0.00  0.00    -0.272 N 
ATOM     19  C   UNL     1      -8.773   0.918  -9.267  0.00  0.00    +0.108 A 
ATOM     20  C   UNL     1     -10.057   1.331  -9.155  0.00  0.00    +0.041 A 
ATOM     21  C   UNL     1     -10.187   2.013  -7.941  0.00  0.00    +0.134 A 
ATOM     22  N   UNL     1      -9.023   2.006  -7.342  0.00  0.00    -0.180 NA
ENDBRANCH  17  18
ENDBRANCH  16  17
ENDBRANCH  15  16
ENDBRANCH  12  15
BRANCH  11  23
ATOM     23  C   UNL     1      -2.454   3.172  -3.763  0.00  0.00    +0.138 C 
BRANCH  23  24
ATOM     24  C   UNL     1      -0.949   3.248  -4.024  0.00  0.00    +0.178 C 
BRANCH  24  25
ATOM     25  O   UNL     1      -0.534   2.095  -4.760  0.00  0.00    -0.381 OA
ATOM     26  C   UNL     1       0.863   2.067  -5.058  0.00  0.00    +0.194 C 
ENDBRANCH  24  25
ENDBRANCH  23  24
ENDBRANCH  11  23
BRANCH   8  27
ATOM     27  C   UNL     1      -2.478   0.050   0.108  0.00  0.00    +0.153 C 
BRANCH  27  28
ATOM     28  C   UNL     1      -1.151  -0.663   0.085  0.00  0.00    -0.022 A 
ATOM     29  C   UNL     1      -0.485  -0.832  -1.090  0.00  0.00    +0.006 A 
ATOM     30  C   UNL     1       0.743  -1.490  -1.130  0.00  0.00    +0.001 A 
ATOM     31  C   UNL     1       1.312  -1.982   0.004  0.00  0.00    +0.008 A 
ATOM     32  C   UNL     1       0.654  -1.827   1.236  0.00  0.00    -0.018 A 
ATOM     33  C   UNL     1      -0.595  -1.158   1.277  0.00  0.00    -0.013 A 
ATOM     34  C   UNL     1      -1.253  -1.003   2.509  0.00  0.00    +0.009 A 
ATOM     35  C   UNL     1      -0.684  -1.495   3.643  0.00  0.00    +0.001 A 
ATOM     36  C   UNL     1       0.544  -2.152   3.603  0.00  0.00    +0.001 A 
ATOM     37  C   UNL     1       1.210  -2.322   2.428  0.00  0.00    +0.008 A 
ENDBRANCH  27  28
ENDBRANCH   8  27
TORSDOF 9
