REMARK  Name = ZINC41022566
REMARK  7 active torsions:
REMARK  status: ('A' for Active; 'I' for Inactive)
REMARK    1  A    between atoms: C_3  and  C_8
REMARK    2  A    between atoms: C_8  and  N_9
REMARK    3  A    between atoms: N_9  and  C_10
REMARK    4  A    between atoms: C_18  and  C_20
REMARK    5  A    between atoms: C_20  and  C_21
REMARK    6  A    between atoms: C_21  and  C_22
REMARK    7  A    between atoms: C_25  and  C_27
REMARK                            x       y       z     vdW  Elec       q    Type
REMARK                         _______ _______ _______ _____ _____    ______ ____
ROOT
ATOM      1  N   UNL     1       4.032   2.492   1.314  0.00  0.00    -0.292 N 
ATOM      2  C   UNL     1       3.570   3.486   2.098  0.00  0.00    +0.217 C 
ATOM      3  O   UNL     1       2.889   4.369   1.620  0.00  0.00    -0.276 OA
ENDROOT
BRANCH   1   4
ATOM      4  C   UNL     1       4.946   1.489   1.866  0.00  0.00    +0.099 C 
ATOM      5  C   UNL     1       5.187   0.388   0.819  0.00  0.00    +0.046 C 
ATOM      6  C   UNL     1       6.384  -0.482   1.299  0.00  0.00    +0.168 C 
ATOM      7  S   UNL     1       7.510   0.823   1.950  0.00  0.00    -0.029 S 
ATOM      8  O   UNL     1       8.399   1.223   0.916  0.00  0.00    -0.174 OA
ATOM      9  O   UNL     1       8.037   0.398   3.200  0.00  0.00    -0.174 OA
ATOM     10  C   UNL     1       6.287   2.164   2.239  0.00  0.00    +0.188 C 
ENDBRANCH   1   4
BRANCH   1  11
ATOM     11  C   UNL     1       3.622   2.416  -0.091  0.00  0.00    +0.143 C 
BRANCH  11  14
ATOM     12  C   UNL     1      -0.094   1.750  -0.082  0.00  0.00    +0.001 A 
ATOM     13  C   UNL     1       1.121   2.402   0.009  0.00  0.00    +0.005 A 
ATOM     14  C   UNL     1       2.298   1.704  -0.189  0.00  0.00    -0.029 A 
ATOM     15  C   UNL     1       2.260   0.353  -0.478  0.00  0.00    +0.020 A 
ATOM     16  C   UNL     1       1.044  -0.301  -0.569  0.00  0.00    +0.018 A 
ATOM     17  C   UNL     1      -0.133   0.399  -0.370  0.00  0.00    +0.015 A 
ATOM     18 BR   UNL     1       0.991  -2.149  -0.964  0.00  0.00    -0.050 Br
ENDBRANCH  11  14
ENDBRANCH   1  11
BRANCH   2  19
ATOM     19  C   UNL     1       3.898   3.500   3.568  0.00  0.00    +0.105 C 
BRANCH  19  20
ATOM     20  C   UNL     1       3.132   4.636   4.251  0.00  0.00    +0.105 C 
BRANCH  20  21
ATOM     21  C   UNL     1       3.460   4.650   5.722  0.00  0.00    +0.197 A 
ATOM     22  N   UNL     1       4.432   5.320   6.274  0.00  0.00    -0.221 NA
ATOM     23  C   UNL     1       4.420   5.094   7.596  0.00  0.00    +0.161 A 
ATOM     24  C   UNL     1       3.392   4.245   7.856  0.00  0.00    +0.155 A 
ATOM     25  O   UNL     1       2.796   3.979   6.673  0.00  0.00    -0.440 OA
BRANCH  24  26
ATOM     26  C   UNL     1       2.998   3.719   9.180  0.00  0.00    +0.019 A 
ATOM     27  C   UNL     1       1.916   2.844   9.292  0.00  0.00    +0.014 A 
ATOM     28  C   UNL     1       1.553   2.355  10.530  0.00  0.00    +0.039 A 
ATOM     29  C   UNL     1       2.260   2.731  11.661  0.00  0.00    +0.123 A 
ATOM     30  C   UNL     1       3.334   3.600  11.555  0.00  0.00    +0.039 A 
ATOM     31  C   UNL     1       3.710   4.090  10.322  0.00  0.00    +0.014 A 
ATOM     32  F   UNL     1       1.899   2.250  12.870  0.00  0.00    -0.205 F 
ENDBRANCH  24  26
ENDBRANCH  20  21
ENDBRANCH  19  20
ENDBRANCH   2  19
TORSDOF 7
