REMARK  Name = ZINC33937267
REMARK  11 active torsions:
REMARK  status: ('A' for Active; 'I' for Inactive)
REMARK    1  A    between atoms: C_1  and  C_2
REMARK    2  A    between atoms: C_2  and  C_3
REMARK    3  A    between atoms: C_3  and  C_4
REMARK    4  A    between atoms: C_4  and  C_6
REMARK    5  A    between atoms: C_4  and  N_18
REMARK    6  A    between atoms: N_10  and  C_11
REMARK    7  A    between atoms: C_11  and  C_12
REMARK    8  A    between atoms: N_18  and  C_19
REMARK    9  A    between atoms: N_18  and  C_33
REMARK   10  A    between atoms: C_19  and  C_20
REMARK   11  A    between atoms: C_25  and  C_32
REMARK                            x       y       z     vdW  Elec       q    Type
REMARK                         _______ _______ _______ _____ _____    ______ ____
ROOT
ATOM      1  N   UNL     1       1.622  -2.471  -0.109  0.00  0.00    +0.391 N 
ATOM      2  H   UNL     1       2.472  -2.333  -0.634  0.00  0.00    -0.080 HD
ENDROOT
BRANCH   1   3
ATOM      3  C   UNL     1       1.562  -3.858   0.370  0.00  0.00    -0.067 C 
ATOM      4  C   UNL     1       2.596  -4.074   1.494  0.00  0.00    -0.015 C 
ATOM      5  C   UNL     1       3.126  -5.510   1.252  0.00  0.00    -0.002 C 
ATOM      6  C   UNL     1       3.191  -5.594  -0.293  0.00  0.00    -0.002 C 
ATOM      7  C   UNL     1       1.940  -4.825  -0.766  0.00  0.00    -0.015 C 
ENDBRANCH   1   3
BRANCH   1   8
ATOM      8  C   UNL     1       0.464  -2.200  -0.971  0.00  0.00    +0.003 C 
BRANCH   8   9
ATOM      9  C   UNL     1      -0.806  -2.480  -0.209  0.00  0.00    +0.138 A 
ATOM     10  N   UNL     1      -1.069  -3.545   0.509  0.00  0.00    -0.115 NA
ATOM     11  N   UNL     1      -2.253  -3.411   1.000  0.00  0.00    -0.023 NA
ATOM     12  N   UNL     1      -2.752  -2.289   0.613  0.00  0.00    -0.044 NA
ATOM     13  N   UNL     1      -1.888  -1.684  -0.130  0.00  0.00    -0.228 N 
BRANCH  13  14
ATOM     14  C   UNL     1      -2.055  -0.377  -0.769  0.00  0.00    +0.178 C 
BRANCH  14  15
ATOM     15  C   UNL     1      -2.671  -0.563  -2.157  0.00  0.00    +0.140 C 
ATOM     16  C   UNL     1      -2.941   0.813  -2.816  0.00  0.00    +0.035 C 
ATOM     17  C   UNL     1      -2.917   0.430  -4.321  0.00  0.00    +0.031 C 
ATOM     18  C   UNL     1      -1.854  -0.689  -4.357  0.00  0.00    +0.160 C 
ATOM     19  O   UNL     1      -1.742  -1.224  -3.031  0.00  0.00    -0.375 OA
ENDBRANCH  14  15
ENDBRANCH  13  14
ENDBRANCH   8   9
BRANCH   8  20
ATOM     20  C   UNL     1       0.526  -3.100  -2.207  0.00  0.00    -0.008 C 
BRANCH  20  22
ATOM     21  C   UNL     1       1.883  -3.706  -4.215  0.00  0.00    +0.004 C 
ATOM     22  C   UNL     1       1.746  -2.724  -3.050  0.00  0.00    -0.005 C 
ENDBRANCH  20  22
ENDBRANCH   8  20
ENDBRANCH   1   8
BRANCH   1  23
ATOM     23  C   UNL     1       1.602  -1.555   1.040  0.00  0.00    -0.036 C 
BRANCH  23  24
ATOM     24  C   UNL     1       1.835  -0.145   0.562  0.00  0.00    +0.001 A 
ATOM     25  C   UNL     1       0.783   0.694   0.395  0.00  0.00    +0.017 A 
ATOM     26  C   UNL     1       1.043   2.058  -0.070  0.00  0.00    -0.001 A 
ATOM     27  C   UNL     1      -0.002   2.968  -0.261  0.00  0.00    +0.010 A 
ATOM     28  C   UNL     1       0.275   4.234  -0.695  0.00  0.00    +0.004 A 
ATOM     29  C   UNL     1       1.583   4.624  -0.949  0.00  0.00    -0.048 A 
ATOM     30  C   UNL     1       2.627   3.743  -0.768  0.00  0.00    +0.029 A 
ATOM     31  C   UNL     1       2.370   2.450  -0.326  0.00  0.00    +0.049 A 
ATOM     32  N   UNL     1       3.396   1.548  -0.136  0.00  0.00    -0.322 N 
ATOM     33  H   UNL     1       4.310   1.820  -0.312  0.00  0.00    +0.169 HD
ATOM     34  C   UNL     1       3.148   0.299   0.297  0.00  0.00    +0.251 A 
ATOM     35  O   UNL     1       4.080  -0.469   0.459  0.00  0.00    -0.268 OA
ATOM     36  C   UNL     1       1.863   6.025  -1.428  0.00  0.00    +0.044 C 
ENDBRANCH  23  24
ENDBRANCH   1  23
TORSDOF 9
