REMARK  Name = ZINC62952777
REMARK  8 active torsions:
REMARK  status: ('A' for Active; 'I' for Inactive)
REMARK    1  A    between atoms: C_1  and  C_2
REMARK    2  A    between atoms: C_2  and  C_3
REMARK    3  A    between atoms: C_3  and  C_20
REMARK    4  A    between atoms: N_6  and  S_9
REMARK    5  A    between atoms: S_9  and  C_12
REMARK    6  A    between atoms: C_15  and  O_19
REMARK    7  A    between atoms: C_16  and  N_18
REMARK    8  A    between atoms: C_20  and  C_21
REMARK                            x       y       z     vdW  Elec       q    Type
REMARK                         _______ _______ _______ _____ _____    ______ ____
ROOT
ATOM      1  S   UNL     1      -1.323  -3.220  -3.616  0.00  0.00    +0.061 S 
ATOM      2  O   UNL     1      -1.282  -4.491  -2.982  0.00  0.00    -0.153 OA
ATOM      3  O   UNL     1      -2.466  -2.759  -4.324  0.00  0.00    -0.153 OA
ENDROOT
BRANCH   1   7
ATOM      4  C   UNL     1      -1.427  -0.568  -0.100  0.00  0.00    -0.027 C 
ATOM      5  C   UNL     1      -2.271  -0.317  -1.352  0.00  0.00    +0.024 C 
ATOM      6  C   UNL     1      -1.464  -0.708  -2.594  0.00  0.00    +0.110 C 
ATOM      7  N   UNL     1      -1.007  -2.095  -2.443  0.00  0.00    -0.177 NA
ATOM      8  C   UNL     1      -0.263  -2.467  -1.232  0.00  0.00    +0.110 C 
ATOM      9  C   UNL     1      -1.084  -2.056  -0.005  0.00  0.00    +0.024 C 
BRANCH   4  11
ATOM     10  C   UNL     1       0.678   0.048   1.095  0.00  0.00    +0.004 C 
ATOM     11  C   UNL     1      -0.136   0.249  -0.184  0.00  0.00    +0.003 C 
ENDBRANCH   4  11
BRANCH   4  12
ATOM     12  C   UNL     1      -2.217  -0.146   1.140  0.00  0.00    +0.003 C 
ATOM     13  C   UNL     1      -3.566  -0.869   1.156  0.00  0.00    +0.004 C 
ENDBRANCH   4  12
ENDBRANCH   1   7
BRANCH   1  14
ATOM     14  C   UNL     1       0.023  -3.181  -4.753  0.00  0.00    +0.107 A 
ATOM     15  C   UNL     1      -0.017  -2.328  -5.840  0.00  0.00    +0.032 A 
ATOM     16  C   UNL     1       1.037  -2.293  -6.735  0.00  0.00    +0.049 A 
ATOM     17  C   UNL     1       2.136  -3.113  -6.543  0.00  0.00    +0.137 A 
ATOM     18  C   UNL     1       2.177  -3.973  -5.448  0.00  0.00    +0.068 A 
ATOM     19  C   UNL     1       1.119  -3.999  -4.552  0.00  0.00    +0.055 A 
BRANCH  18  20
ATOM     20  N   UNL     1       3.285  -4.804  -5.250  0.00  0.00    -0.355 N 
ATOM     21  H   UNL     1       4.026  -4.782  -5.876  0.00  0.00    +0.142 HD
ATOM     22  H   UNL     1       3.313  -5.403  -4.487  0.00  0.00    +0.142 HD
ENDBRANCH  18  20
BRANCH  17  23
ATOM     23  O   UNL     1       3.173  -3.079  -7.423  0.00  0.00    -0.505 OA
ATOM     24  H   UNL     1       3.860  -2.438  -7.197  0.00  0.00    +0.292 HD
ENDBRANCH  17  23
ENDBRANCH   1  14
TORSDOF 6
