REMARK  Name = ZINC09332097
REMARK  3 active torsions:
REMARK  status: ('A' for Active; 'I' for Inactive)
REMARK    1  A    between atoms: C_1  and  C_2
REMARK    2  A    between atoms: N_21  and  C_24
REMARK    3  A    between atoms: C_29  and  C_30
REMARK                            x       y       z     vdW  Elec       q    Type
REMARK                         _______ _______ _______ _____ _____    ______ ____
ROOT
ATOM      1  C   UNL     1       0.031   1.560   0.080  0.00  0.00    +0.044 C 
ATOM      2  C   UNL     1       0.058   0.053   0.050  0.00  0.00    -0.050 A 
ATOM      3  C   UNL     1      -0.018  -0.618  -1.157  0.00  0.00    +0.005 A 
ATOM      4  C   UNL     1       0.006  -1.997  -1.189  0.00  0.00    +0.024 A 
ATOM      5  C   UNL     1       0.110  -2.724  -0.006  0.00  0.00    +0.036 A 
ATOM      6  C   UNL     1       0.185  -2.038   1.202  0.00  0.00    -0.027 A 
ATOM      7  C   UNL     1       0.166  -0.662   1.230  0.00  0.00    +0.008 A 
ATOM      8  C   UNL     1       0.282  -3.092   2.269  0.00  0.00    +0.053 C 
ATOM      9  C   UNL     1      -0.884  -2.993   3.260  0.00  0.00    +0.089 C 
ATOM     10  C   UNL     1      -0.299  -2.230   4.480  0.00  0.00    +0.074 C 
ATOM     11  C   UNL     1       1.172  -1.955   4.118  0.00  0.00    -0.054 C 
ATOM     12  N   UNL     1       1.514  -2.949   3.063  0.00  0.00    +0.395 N 
ATOM     13  C   UNL     1       1.758  -4.203   3.814  0.00  0.00    -0.076 C 
ATOM     14  C   UNL     1       2.470  -3.765   5.110  0.00  0.00    -0.020 C 
ATOM     15  C   UNL     1       2.062  -2.281   5.332  0.00  0.00    -0.016 C 
ATOM     16  C   UNL     1      -1.079  -0.934   4.488  0.00  0.00    +0.228 C 
ATOM     17  O   UNL     1      -0.934  -0.035   5.288  0.00  0.00    -0.275 OA
ATOM     18  N   UNL     1      -1.953  -0.936   3.475  0.00  0.00    -0.210 N 
ATOM     19  C   UNL     1      -1.937  -2.055   2.715  0.00  0.00    +0.229 C 
ATOM     20  O   UNL     1      -2.643  -2.276   1.755  0.00  0.00    -0.275 OA
ATOM     21  C   UNL     1       0.256  -4.401   1.527  0.00  0.00    +0.212 C 
ATOM     22  O   UNL     1       0.315  -5.511   2.013  0.00  0.00    -0.277 OA
ATOM     23  N   UNL     1       0.155  -4.102   0.218  0.00  0.00    -0.286 N 
ATOM     24  H   UNL     1       0.118  -4.766  -0.488  0.00  0.00    +0.155 HD
ATOM     25  H   UNL     1       2.303  -2.667   2.501  0.00  0.00    -0.079 HD
ENDROOT
BRANCH  18  26
ATOM     26  C   UNL     1      -2.823   0.135   3.223  0.00  0.00    +0.048 A 
ATOM     27  C   UNL     1      -2.483   1.100   2.285  0.00  0.00    +0.044 A 
ATOM     28  C   UNL     1      -3.343   2.154   2.039  0.00  0.00    +0.043 A 
ATOM     29  C   UNL     1      -4.541   2.246   2.726  0.00  0.00    +0.020 A 
ATOM     30  C   UNL     1      -4.881   1.285   3.660  0.00  0.00    +0.006 A 
ATOM     31  C   UNL     1      -4.028   0.227   3.906  0.00  0.00    -0.029 A 
ATOM     32  C   UNL     1      -4.402  -0.823   4.921  0.00  0.00    +0.045 C 
ATOM     33 CL   UNL     1      -2.921   3.363   0.867  0.00  0.00    -0.083 Cl
ENDBRANCH  18  26
TORSDOF 1
