REMARK  Name = ZINC04231246
REMARK  10 active torsions:
REMARK  status: ('A' for Active; 'I' for Inactive)
REMARK    1  A    between atoms: C_1  and  C_2
REMARK    2  A    between atoms: C_5  and  C_29
REMARK    3  A    between atoms: C_9  and  C_14
REMARK    4  A    between atoms: C_14  and  N_15
REMARK    5  A    between atoms: N_15  and  C_16
REMARK    6  A    between atoms: C_16  and  C_17
REMARK    7  A    between atoms: C_17  and  N_57
REMARK    8  A    between atoms: C_18  and  N_57
REMARK    9  A    between atoms: C_19  and  N_57
REMARK   10  A    between atoms: N_22  and  C_23
REMARK                            x       y       z     vdW  Elec       q    Type
REMARK                         _______ _______ _______ _____ _____    ______ ____
ROOT
ATOM      1  N   UNL     1       1.305   3.959   1.438  0.00  0.00    -0.283 N 
ATOM      2  C   UNL     1       0.216   4.190   2.198  0.00  0.00    +0.307 C 
ATOM      3  O   UNL     1      -0.885   3.862   1.798  0.00  0.00    -0.252 OA
ATOM      4  N   UNL     1       0.346   4.784   3.400  0.00  0.00    -0.269 N 
ATOM      5  H   UNL     1       1.229   4.976   3.753  0.00  0.00    +0.156 HD
ENDROOT
BRANCH   4   6
ATOM      6  C   UNL     1      -0.792   5.125   4.140  0.00  0.00    +0.035 A 
ATOM      7  C   UNL     1      -1.953   5.518   3.488  0.00  0.00    +0.023 A 
ATOM      8  C   UNL     1      -3.076   5.849   4.221  0.00  0.00    +0.002 A 
ATOM      9  C   UNL     1      -3.042   5.799   5.602  0.00  0.00    +0.000 A 
ATOM     10  C   UNL     1      -1.885   5.413   6.255  0.00  0.00    +0.002 A 
ATOM     11  C   UNL     1      -0.760   5.076   5.527  0.00  0.00    +0.023 A 
ENDBRANCH   4   6
BRANCH   1  12
ATOM     12  C   UNL     1       1.163   3.312   0.131  0.00  0.00    +0.149 C 
BRANCH  12  21
ATOM     13  C   UNL     1      -2.218  -0.606   0.715  0.00  0.00    +0.044 C 
ATOM     14  C   UNL     1      -0.834  -1.203   0.723  0.00  0.00    -0.041 A 
ATOM     15  C   UNL     1      -0.670  -2.552   0.870  0.00  0.00    +0.004 A 
ATOM     16  C   UNL     1       0.600  -3.112   0.879  0.00  0.00    +0.005 A 
ATOM     17  C   UNL     1       1.719  -2.319   0.742  0.00  0.00    -0.026 A 
ATOM     18  C   UNL     1       1.577  -0.944   0.594  0.00  0.00    +0.052 A 
ATOM     19  C   UNL     1       0.287  -0.379   0.584  0.00  0.00    +0.002 A 
ATOM     20  C   UNL     1       0.148   1.070   0.427  0.00  0.00    +0.020 A 
ATOM     21  C   UNL     1       1.271   1.818   0.295  0.00  0.00    +0.035 A 
ATOM     22  C   UNL     1       2.541   1.202   0.310  0.00  0.00    +0.254 A 
ATOM     23  O   UNL     1       3.537   1.894   0.190  0.00  0.00    -0.268 OA
ATOM     24  N   UNL     1       2.679  -0.127   0.455  0.00  0.00    -0.322 N 
ATOM     25  H   UNL     1       3.594  -0.530   0.462  0.00  0.00    +0.169 HD
ATOM     26  C   UNL     1       3.092  -2.940   0.755  0.00  0.00    +0.046 C 
ENDBRANCH  12  21
ENDBRANCH   1  12
BRANCH   1  27
ATOM     27  C   UNL     1       2.631   4.354   1.919  0.00  0.00    +0.091 C 
BRANCH  27  28
ATOM     28  C   UNL     1       2.933   5.783   1.465  0.00  0.00    -0.060 C 
BRANCH  28  31
ATOM     29  C   UNL     1       5.315   5.380   1.308  0.00  0.00    -0.097 C 
ATOM     30  C   UNL     1       4.492   7.615   1.739  0.00  0.00    -0.097 C 
ATOM     31  N   UNL     1       4.263   6.175   1.976  0.00  0.00    +0.377 N 
ATOM     32  H   UNL     1       4.300   5.993   2.986  0.00  0.00    -0.083 HD
ENDBRANCH  28  31
ENDBRANCH  27  28
ENDBRANCH   1  27
TORSDOF 6
