REMARK  Name = ZINC09324480
REMARK  13 active torsions:
REMARK  status: ('A' for Active; 'I' for Inactive)
REMARK    1  A    between atoms: C_1  and  C_2
REMARK    2  A    between atoms: C_2  and  O_3
REMARK    3  A    between atoms: O_3  and  C_4
REMARK    4  A    between atoms: C_4  and  C_6
REMARK    5  A    between atoms: C_6  and  O_7
REMARK    6  A    between atoms: O_7  and  C_8
REMARK    7  A    between atoms: C_9  and  O_34
REMARK    8  A    between atoms: C_11  and  C_15
REMARK    9  A    between atoms: N_19  and  C_23
REMARK   10  A    between atoms: C_23  and  C_24
REMARK   11  A    between atoms: N_26  and  C_27
REMARK   12  A    between atoms: C_30  and  C_33
REMARK   13  A    between atoms: O_34  and  C_35
REMARK                            x       y       z     vdW  Elec       q    Type
REMARK                         _______ _______ _______ _____ _____    ______ ____
ROOT
ATOM      1  C   UNL     1      -5.587   9.423   1.671  0.00  0.00    +0.028 C 
ATOM      2  C   UNL     1      -4.662   9.183   0.707  0.00  0.00    +0.080 C 
ATOM      3  C   UNL     1      -3.190   9.128   0.808  0.00  0.00    +0.261 C 
ATOM      4  O   UNL     1      -2.614   9.311   1.865  0.00  0.00    -0.269 OA
ATOM      5  N   UNL     1      -2.529   8.871  -0.308  0.00  0.00    -0.219 N 
ATOM      6  C   UNL     1      -3.171   8.676  -1.478  0.00  0.00    +0.286 C 
ATOM      7  O   UNL     1      -2.693   8.438  -2.571  0.00  0.00    -0.262 OA
ATOM      8  S   UNL     1      -4.891   8.847  -1.033  0.00  0.00    -0.026 S 
ENDROOT
BRANCH   1  12
ATOM      9  C   UNL     1      -4.412   9.597   5.746  0.00  0.00    +0.181 A 
ATOM     10  C   UNL     1      -3.872   8.621   4.909  0.00  0.00    +0.164 A 
ATOM     11  C   UNL     1      -4.256   8.557   3.585  0.00  0.00    +0.057 A 
ATOM     12  C   UNL     1      -5.179   9.482   3.081  0.00  0.00    -0.019 A 
ATOM     13  C   UNL     1      -5.717  10.459   3.927  0.00  0.00    +0.032 A 
ATOM     14  C   UNL     1      -5.333  10.511   5.250  0.00  0.00    +0.087 A 
ATOM     15 CL   UNL     1      -6.000  11.723   6.299  0.00  0.00    -0.080 Cl
BRANCH  10  16
ATOM     16  O   UNL     1      -2.970   7.729   5.399  0.00  0.00    -0.491 OA
ATOM     17  C   UNL     1      -2.457   6.757   4.486  0.00  0.00    +0.277 C 
ENDBRANCH  10  16
BRANCH   9  18
ATOM     18  O   UNL     1      -4.037   9.654   7.051  0.00  0.00    -0.476 OA
BRANCH  18  19
ATOM     19  C   UNL     1      -4.807   8.891   7.981  0.00  0.00    +0.349 C 
BRANCH  19  20
ATOM     20  C   UNL     1      -4.247   9.076   9.368  0.00  0.00    +0.345 C 
ATOM     21  O   UNL     1      -3.286   9.788   9.542  0.00  0.00    -0.247 OA
BRANCH  20  22
ATOM     22  O   UNL     1      -4.815   8.450  10.411  0.00  0.00    -0.463 OA
BRANCH  22  24
ATOM     23  C   UNL     1      -5.000   7.885  12.772  0.00  0.00    +0.048 C 
ATOM     24  C   UNL     1      -4.223   8.675  11.717  0.00  0.00    +0.229 C 
ENDBRANCH  22  24
ENDBRANCH  20  22
ENDBRANCH  19  20
ENDBRANCH  18  19
ENDBRANCH   9  18
ENDBRANCH   1  12
BRANCH   5  25
ATOM     25  C   UNL     1      -1.066   8.804  -0.274  0.00  0.00    +0.213 C 
BRANCH  25  26
ATOM     26  C   UNL     1      -0.635   7.390   0.016  0.00  0.00    +0.235 C 
ATOM     27  O   UNL     1      -1.468   6.523   0.178  0.00  0.00    -0.274 OA
ATOM     28  N   UNL     1       0.676   7.088   0.095  0.00  0.00    -0.284 N 
ATOM     29  H   UNL     1       1.341   7.793   0.045  0.00  0.00    +0.155 HD
BRANCH  28  30
ATOM     30  C   UNL     1       1.080   5.757   0.249  0.00  0.00    +0.033 A 
ATOM     31  C   UNL     1       0.297   4.729  -0.261  0.00  0.00    +0.023 A 
ATOM     32  C   UNL     1       0.698   3.416  -0.106  0.00  0.00    +0.005 A 
ATOM     33  C   UNL     1       1.877   3.125   0.555  0.00  0.00    -0.050 A 
ATOM     34  C   UNL     1       2.655   4.146   1.069  0.00  0.00    +0.005 A 
ATOM     35  C   UNL     1       2.263   5.461   0.913  0.00  0.00    +0.023 A 
ATOM     36  C   UNL     1       2.311   1.691   0.722  0.00  0.00    +0.044 C 
ENDBRANCH  28  30
ENDBRANCH  25  26
ENDBRANCH   5  25
TORSDOF 10
