REMARK  Name = ZINC15656745
REMARK  4 active torsions:
REMARK  status: ('A' for Active; 'I' for Inactive)
REMARK    1  A    between atoms: C_6  and  N_7
REMARK    2  A    between atoms: C_9  and  C_14
REMARK    3  A    between atoms: C_14  and  O_16
REMARK    4  A    between atoms: O_16  and  C_17
REMARK                            x       y       z     vdW  Elec       q    Type
REMARK                         _______ _______ _______ _____ _____    ______ ____
ROOT
ATOM      1  N   UNL     1      -2.344   6.831  -1.295  0.00  0.00    -0.270 N 
ATOM      2  C   UNL     1      -2.651   7.633  -2.485  0.00  0.00    +0.128 C 
ATOM      3  C   UNL     1      -3.355   8.903  -1.954  0.00  0.00    +0.125 C 
ATOM      4  C   UNL     1      -2.788   8.997  -0.518  0.00  0.00    +0.112 C 
ATOM      5  C   UNL     1      -2.404   7.574  -0.177  0.00  0.00    +0.221 C 
ATOM      6  O   UNL     1      -2.183   7.163   0.943  0.00  0.00    -0.275 OA
ENDROOT
BRANCH   1  12
ATOM      7  C   UNL     1      -2.101   4.759  -2.513  0.00  0.00    +0.027 A 
ATOM      8  C   UNL     1      -1.785   3.414  -2.540  0.00  0.00    +0.051 A 
ATOM      9  C   UNL     1      -1.390   2.768  -1.378  0.00  0.00    +0.162 A 
ATOM     10  C   UNL     1      -1.309   3.475  -0.184  0.00  0.00    +0.164 A 
ATOM     11  C   UNL     1      -1.626   4.824  -0.158  0.00  0.00    +0.073 A 
ATOM     12  C   UNL     1      -2.023   5.468  -1.322  0.00  0.00    +0.040 A 
ATOM     13  O   UNL     1      -0.915   2.861   0.964  0.00  0.00    -0.485 OA
ATOM     14  C   UNL     1      -0.962   1.430   0.978  0.00  0.00    +0.270 C 
ATOM     15  C   UNL     1      -0.334   0.916  -0.325  0.00  0.00    +0.270 C 
ATOM     16  O   UNL     1      -1.086   1.441  -1.424  0.00  0.00    -0.485 OA
ENDBRANCH   1  12
BRANCH   3  17
ATOM     17  C   UNL     1      -2.966  10.111  -2.767  0.00  0.00    +0.317 C 
ATOM     18  O   UNL     1      -2.291   9.979  -3.760  0.00  0.00    -0.250 OA
BRANCH  17  19
ATOM     19  O   UNL     1      -3.369  11.334  -2.387  0.00  0.00    -0.424 OA
BRANCH  19  20
ATOM     20  C   UNL     1      -3.075  12.367  -3.221  0.00  0.00    +0.150 A 
ATOM     21  C   UNL     1      -1.923  13.114  -3.022  0.00  0.00    +0.049 A 
ATOM     22  C   UNL     1      -1.623  14.160  -3.873  0.00  0.00    +0.019 A 
ATOM     23  C   UNL     1      -2.477  14.470  -4.917  0.00  0.00    +0.019 A 
ATOM     24  C   UNL     1      -3.630  13.731  -5.114  0.00  0.00    +0.039 A 
ATOM     25  C   UNL     1      -3.931  12.680  -4.268  0.00  0.00    +0.084 A 
ATOM     26 CL   UNL     1      -5.378  11.753  -4.515  0.00  0.00    -0.080 Cl
ATOM     27 BR   UNL     1      -2.067  15.908  -6.076  0.00  0.00    -0.050 Br
ENDBRANCH  19  20
ENDBRANCH  17  19
ENDBRANCH   3  17
TORSDOF 4
