REMARK  Name = ZINC36580946
REMARK  18 active torsions:
REMARK  status: ('A' for Active; 'I' for Inactive)
REMARK    1  A    between atoms: C_1  and  C_2
REMARK    2  A    between atoms: C_2  and  C_3
REMARK    3  A    between atoms: C_3  and  C_4
REMARK    4  A    between atoms: C_5  and  C_6
REMARK    5  A    between atoms: C_6  and  C_8
REMARK    6  A    between atoms: C_6  and  N_22
REMARK    7  A    between atoms: N_10  and  C_11
REMARK    8  A    between atoms: C_11  and  S_12
REMARK    9  A    between atoms: S_12  and  C_15
REMARK   10  A    between atoms: C_18  and  C_21
REMARK   11  A    between atoms: N_22  and  C_35
REMARK   12  A    between atoms: C_23  and  C_25
REMARK   13  A    between atoms: C_25  and  C_27
REMARK   14  A    between atoms: C_25  and  O_33
REMARK   15  A    between atoms: O_33  and  C_34
REMARK   16  A    between atoms: C_35  and  C_36
REMARK   17  A    between atoms: C_35  and  C_37
REMARK   18  A    between atoms: C_35  and  C_38
REMARK                            x       y       z     vdW  Elec       q    Type
REMARK                         _______ _______ _______ _____ _____    ______ ____
ROOT
ATOM      1  C   UNL     1       3.111  -2.939  -1.395  0.00  0.00    +0.185 C 
ENDROOT
BRANCH   1   2
ATOM      2  C   UNL     1       3.415  -4.255  -2.063  0.00  0.00    +0.239 C 
ATOM      3  O   UNL     1       3.437  -5.276  -1.409  0.00  0.00    -0.273 OA
ATOM      4  N   UNL     1       3.664  -4.297  -3.387  0.00  0.00    -0.294 N 
ATOM      5  H   UNL     1       3.646  -3.480  -3.910  0.00  0.00    +0.150 HD
BRANCH   4   6
ATOM      6  C   UNL     1       3.959  -5.576  -4.036  0.00  0.00    +0.278 C 
BRANCH   6   7
ATOM      7  S   UNL     1       2.435  -6.264  -4.739  0.00  0.00    +0.013 S 
ATOM      8  O   UNL     1       2.717  -7.475  -5.428  0.00  0.00    -0.168 OA
ATOM      9  O   UNL     1       1.384  -6.201  -3.785  0.00  0.00    -0.168 OA
BRANCH   7  10
ATOM     10  C   UNL     1       1.966  -5.128  -6.002  0.00  0.00    +0.090 A 
ATOM     11  C   UNL     1       1.140  -4.062  -5.699  0.00  0.00    +0.027 A 
ATOM     12  C   UNL     1       0.772  -3.170  -6.689  0.00  0.00    +0.005 A 
ATOM     13  C   UNL     1       1.230  -3.345  -7.982  0.00  0.00    -0.050 A 
ATOM     14  C   UNL     1       2.056  -4.411  -8.284  0.00  0.00    +0.005 A 
ATOM     15  C   UNL     1       2.428  -5.300  -7.293  0.00  0.00    +0.027 A 
ATOM     16  C   UNL     1       0.827  -2.374  -9.062  0.00  0.00    +0.044 C 
ENDBRANCH   7  10
ENDBRANCH   6   7
ENDBRANCH   4   6
ENDBRANCH   1   2
BRANCH   1  17
ATOM     17  N   UNL     1       2.031  -3.123  -0.422  0.00  0.00    -0.279 N 
ATOM     18  C   UNL     1       2.280  -3.730   0.755  0.00  0.00    +0.250 C 
ATOM     19  O   UNL     1       3.380  -4.190   0.979  0.00  0.00    -0.272 OA
BRANCH  17  20
ATOM     20  C   UNL     1       0.680  -2.647  -0.729  0.00  0.00    +0.030 C 
ATOM     21  C   UNL     1       0.479  -2.625  -2.246  0.00  0.00    +0.031 C 
ATOM     22  C   UNL     1      -0.348  -3.584  -0.092  0.00  0.00    +0.031 C 
ATOM     23  C   UNL     1       0.497  -1.234  -0.170  0.00  0.00    +0.031 C 
ENDBRANCH  17  20
BRANCH  18  24
ATOM     24  C   UNL     1       1.192  -3.839   1.792  0.00  0.00    +0.233 C 
BRANCH  24  25
ATOM     25  C   UNL     1       0.775  -2.458   2.229  0.00  0.00    -0.010 A 
ATOM     26  C   UNL     1       1.727  -1.470   2.397  0.00  0.00    +0.006 A 
ATOM     27  C   UNL     1       1.345  -0.203   2.798  0.00  0.00    +0.000 A 
ATOM     28  C   UNL     1       0.011   0.075   3.030  0.00  0.00    +0.000 A 
ATOM     29  C   UNL     1      -0.941  -0.913   2.861  0.00  0.00    +0.000 A 
ATOM     30  C   UNL     1      -0.559  -2.178   2.456  0.00  0.00    +0.006 A 
ENDBRANCH  24  25
BRANCH  24  31
ATOM     31  O   UNL     1       1.680  -4.568   2.920  0.00  0.00    -0.366 OA
ATOM     32  C   UNL     1       1.471  -5.979   2.834  0.00  0.00    +0.195 C 
ENDBRANCH  24  31
ENDBRANCH  18  24
ENDBRANCH   1  17
BRANCH   1  34
ATOM     33  C   UNL     1       2.630  -0.661  -2.131  0.00  0.00    -0.029 C 
ATOM     34  C   UNL     1       2.685  -1.934  -2.434  0.00  0.00    +0.000 C 
BRANCH  33  35
ATOM     35  C   UNL     1       2.191   0.342  -3.167  0.00  0.00    +0.027 C 
BRANCH  35  37
ATOM     36  C   UNL     1       0.574   2.179  -3.670  0.00  0.00    +0.004 C 
ATOM     37  C   UNL     1       1.020   1.161  -2.619  0.00  0.00    +0.001 C 
ENDBRANCH  35  37
ENDBRANCH  33  35
ENDBRANCH   1  34
TORSDOF 12
