REMARK  Name = ZINC40450539
REMARK  9 active torsions:
REMARK  status: ('A' for Active; 'I' for Inactive)
REMARK    1  A    between atoms: C_1  and  N_2
REMARK    2  A    between atoms: N_2  and  C_3
REMARK    3  A    between atoms: N_2  and  C_24
REMARK    4  A    between atoms: C_3  and  C_4
REMARK    5  A    between atoms: C_4  and  N_5
REMARK    6  A    between atoms: N_5  and  S_6
REMARK    7  A    between atoms: S_6  and  C_9
REMARK    8  A    between atoms: C_19  and  C_21
REMARK    9  A    between atoms: C_24  and  C_25
REMARK                            x       y       z     vdW  Elec       q    Type
REMARK                         _______ _______ _______ _____ _____    ______ ____
ROOT
ATOM      1  S   UNL     1       0.324   0.079   5.117  0.00  0.00    +0.059 S 
ATOM      2  O   UNL     1       1.207  -0.417   6.114  0.00  0.00    -0.153 OA
ATOM      3  O   UNL     1       0.239   1.460   4.792  0.00  0.00    -0.153 OA
ENDROOT
BRANCH   1   4
ATOM      4  C   UNL     1      -1.298  -0.428   5.584  0.00  0.00    +0.121 A 
ATOM      5  C   UNL     1      -2.324   0.493   5.615  0.00  0.00    +0.053 A 
ATOM      6  C   UNL     1      -3.612   0.100   5.984  0.00  0.00    +0.041 A 
ATOM      7  C   UNL     1      -3.842  -1.225   6.317  0.00  0.00    -0.023 A 
ATOM      8  C   UNL     1      -2.812  -2.145   6.285  0.00  0.00    +0.022 A 
ATOM      9  C   UNL     1      -1.539  -1.750   5.913  0.00  0.00    +0.045 A 
ATOM     10 BR   UNL     1      -0.132  -3.012   5.861  0.00  0.00    -0.048 Br
ATOM     11  C   UNL     1      -5.303  -1.385   6.674  0.00  0.00    +0.056 C 
ATOM     12  C   UNL     1      -5.899   0.023   6.506  0.00  0.00    +0.118 C 
ATOM     13  N   UNL     1      -4.779   0.866   6.079  0.00  0.00    -0.271 N 
ATOM     14  C   UNL     1      -4.861   2.185   5.816  0.00  0.00    +0.223 C 
ATOM     15  O   UNL     1      -3.873   2.797   5.467  0.00  0.00    -0.275 OA
BRANCH  14  16
ATOM     16  C   UNL     1      -6.180   2.900   5.955  0.00  0.00    +0.076 C 
ATOM     17  C   UNL     1      -6.851   3.402   4.675  0.00  0.00    +0.013 C 
ATOM     18  C   UNL     1      -6.208   4.398   5.643  0.00  0.00    +0.013 C 
ENDBRANCH  14  16
ENDBRANCH   1   4
BRANCH   1  19
ATOM     19  N   UNL     1       0.700  -0.716   3.714  0.00  0.00    -0.192 NA
ATOM     20  H   UNL     1       1.427  -1.358   3.700  0.00  0.00    +0.148 HD
BRANCH  19  21
ATOM     21  C   UNL     1      -0.065  -0.448   2.493  0.00  0.00    +0.087 C 
BRANCH  21  22
ATOM     22  C   UNL     1       0.700  -0.990   1.284  0.00  0.00    -0.062 C 
BRANCH  22  24
ATOM     23  C   UNL     1      -0.155   0.729  -0.155  0.00  0.00    -0.096 C 
ATOM     24  N   UNL     1      -0.066  -0.722   0.059  0.00  0.00    +0.381 N 
ATOM     25  H   UNL     1      -0.995  -1.106   0.153  0.00  0.00    -0.082 HD
BRANCH  24  26
ATOM     26  C   UNL     1       0.608  -1.346  -1.087  0.00  0.00    -0.043 C 
BRANCH  26  27
ATOM     27  C   UNL     1      -0.240  -1.176  -2.321  0.00  0.00    -0.064 A 
ATOM     28  C   UNL     1      -1.186  -2.131  -2.647  0.00  0.00    +0.002 A 
ATOM     29  C   UNL     1      -1.963  -1.975  -3.779  0.00  0.00    +0.000 A 
ATOM     30  C   UNL     1      -1.795  -0.865  -4.586  0.00  0.00    +0.000 A 
ATOM     31  C   UNL     1      -0.850   0.089  -4.260  0.00  0.00    +0.000 A 
ATOM     32  C   UNL     1      -0.076  -0.064  -3.125  0.00  0.00    +0.002 A 
ENDBRANCH  26  27
ENDBRANCH  24  26
ENDBRANCH  22  24
ENDBRANCH  21  22
ENDBRANCH  19  21
ENDBRANCH   1  19
TORSDOF 8
