REMARK  Name = ZINC02879195
REMARK  9 active torsions:
REMARK  status: ('A' for Active; 'I' for Inactive)
REMARK    1  A    between atoms: C_1  and  C_2
REMARK    2  A    between atoms: C_2  and  N_3
REMARK    3  A    between atoms: C_4  and  C_26
REMARK    4  A    between atoms: C_7  and  S_8
REMARK    5  A    between atoms: S_8  and  C_9
REMARK    6  A    between atoms: C_9  and  C_10
REMARK    7  A    between atoms: N_12  and  C_13
REMARK    8  A    between atoms: C_13  and  C_14
REMARK    9  A    between atoms: C_13  and  C_20
REMARK                            x       y       z     vdW  Elec       q    Type
REMARK                         _______ _______ _______ _____ _____    ______ ____
ROOT
ATOM      1  C   UNL     1       2.149  -8.297  -0.785  0.00  0.00    +0.224 C 
ATOM      2  O   UNL     1       3.344  -8.407  -0.962  0.00  0.00    -0.275 OA
ATOM      3  N   UNL     1       1.360  -9.389  -0.818  0.00  0.00    -0.304 N 
ATOM      4  H   UNL     1       0.404  -9.301  -0.677  0.00  0.00    +0.150 HD
ENDROOT
BRANCH   1   5
ATOM      5  C   UNL     1       1.547  -6.939  -0.530  0.00  0.00    +0.173 C 
BRANCH   5   6
ATOM      6  S   UNL     1       2.854  -5.687  -0.548  0.00  0.00    -0.077 S 
BRANCH   6  11
ATOM      7  N   UNL     1       2.367  -2.962  -0.140  0.00  0.00    -0.302 N 
ATOM      8  C   UNL     1       1.265  -2.179   0.116  0.00  0.00    +0.166 A 
ATOM      9  N   UNL     1       0.224  -2.979   0.155  0.00  0.00    -0.128 NA
ATOM     10  N   UNL     1       0.596  -4.192  -0.050  0.00  0.00    -0.122 NA
ATOM     11  C   UNL     1       1.896  -4.241  -0.233  0.00  0.00    +0.192 A 
BRANCH   8  12
ATOM     12  C   UNL     1       1.253  -0.713   0.305  0.00  0.00    +0.033 A 
ATOM     13  C   UNL     1       1.911   0.116  -0.606  0.00  0.00    +0.013 A 
ATOM     14  C   UNL     1       1.897   1.483  -0.424  0.00  0.00    +0.001 A 
ATOM     15  C   UNL     1       1.233   2.034   0.659  0.00  0.00    +0.001 A 
ATOM     16  C   UNL     1       0.579   1.219   1.565  0.00  0.00    +0.016 A 
ATOM     17  C   UNL     1       0.585  -0.152   1.395  0.00  0.00    +0.029 A 
ATOM     18 BR   UNL     1      -0.309  -1.265   2.634  0.00  0.00    -0.050 Br
ENDBRANCH   8  12
BRANCH   7  20
ATOM     19  C   UNL     1       4.423  -2.490   1.097  0.00  0.00    +0.027 C 
ATOM     20  C   UNL     1       3.756  -2.518  -0.280  0.00  0.00    +0.122 C 
ENDBRANCH   7  20
ENDBRANCH   6  11
ENDBRANCH   5   6
ENDBRANCH   1   5
BRANCH   3  21
ATOM     21  C   UNL     1       1.945 -10.709  -1.066  0.00  0.00    +0.134 C 
BRANCH  21  22
ATOM     22  C   UNL     1       1.058 -11.771  -0.470  0.00  0.00    -0.023 A 
ATOM     23  C   UNL     1      -0.316 -11.656  -0.562  0.00  0.00    +0.006 A 
ATOM     24  C   UNL     1      -1.129 -12.633  -0.020  0.00  0.00    +0.000 A 
ATOM     25  C   UNL     1      -0.569 -13.721   0.623  0.00  0.00    +0.000 A 
ATOM     26  C   UNL     1       0.806 -13.834   0.719  0.00  0.00    +0.000 A 
ATOM     27  C   UNL     1       1.619 -12.859   0.172  0.00  0.00    +0.006 A 
ENDBRANCH  21  22
BRANCH  21  28
ATOM     28  C   UNL     1       2.069 -10.932  -2.551  0.00  0.00    -0.023 A 
ATOM     29  C   UNL     1       1.057 -10.521  -3.399  0.00  0.00    +0.006 A 
ATOM     30  C   UNL     1       1.173 -10.722  -4.761  0.00  0.00    +0.000 A 
ATOM     31  C   UNL     1       2.296 -11.342  -5.276  0.00  0.00    +0.000 A 
ATOM     32  C   UNL     1       3.306 -11.758  -4.428  0.00  0.00    +0.000 A 
ATOM     33  C   UNL     1       3.192 -11.553  -3.066  0.00  0.00    +0.006 A 
ENDBRANCH  21  28
ENDBRANCH   3  21
TORSDOF 8
