REMARK  Name = ZINC41286923
REMARK  5 active torsions:
REMARK  status: ('A' for Active; 'I' for Inactive)
REMARK    1  A    between atoms: C_1  and  O_2
REMARK    2  A    between atoms: O_2  and  C_3
REMARK    3  A    between atoms: C_8  and  C_9
REMARK    4  A    between atoms: C_11  and  O_12
REMARK    5  A    between atoms: C_21  and  C_23
REMARK                            x       y       z     vdW  Elec       q    Type
REMARK                         _______ _______ _______ _____ _____    ______ ____
ROOT
ATOM      1  C   UNL     1      -0.296  -3.068   0.713  0.00  0.00    +0.143 A 
ATOM      2  C   UNL     1      -1.173  -2.404  -0.123  0.00  0.00    +0.093 A 
ATOM      3  C   UNL     1      -1.785  -3.092  -1.170  0.00  0.00    +0.131 A 
ATOM      4  C   UNL     1      -1.482  -4.466  -1.342  0.00  0.00    +0.059 A 
ATOM      5  C   UNL     1      -2.069  -5.207  -2.380  0.00  0.00    +0.017 A 
ATOM      6  C   UNL     1      -1.767  -6.524  -2.531  0.00  0.00    +0.024 A 
ATOM      7  C   UNL     1      -0.867  -7.150  -1.650  0.00  0.00    +0.037 A 
ATOM      8  C   UNL     1      -0.276  -6.426  -0.613  0.00  0.00    +0.070 A 
ATOM      9  C   UNL     1      -0.578  -5.085  -0.453  0.00  0.00    +0.141 A 
ATOM     10  O   UNL     1      -0.011  -4.369   0.540  0.00  0.00    -0.454 OA
ATOM     11  N   UNL     1      -0.572  -8.467  -1.810  0.00  0.00    -0.281 N 
ATOM     12  C   UNL     1       0.472  -8.993  -1.183  0.00  0.00    +0.248 C 
ATOM     13  O   UNL     1       1.239  -8.273  -0.564  0.00  0.00    -0.270 OA
ATOM     14  H   UNL     1      -1.125  -9.023  -2.381  0.00  0.00    +0.155 HD
ENDROOT
BRANCH  12  15
ATOM     15  C   UNL     1       0.708 -10.456  -1.235  0.00  0.00    +0.037 A 
ATOM     16  C   UNL     1      -0.163 -11.280  -1.946  0.00  0.00    +0.014 A 
ATOM     17  C   UNL     1       0.061 -12.640  -1.992  0.00  0.00    +0.016 A 
ATOM     18  C   UNL     1       1.149 -13.188  -1.332  0.00  0.00    +0.018 A 
ATOM     19  C   UNL     1       2.017 -12.374  -0.624  0.00  0.00    +0.016 A 
ATOM     20  C   UNL     1       1.805 -11.011  -0.577  0.00  0.00    +0.014 A 
ATOM     21 BR   UNL     1       1.450 -15.053  -1.399  0.00  0.00    -0.050 Br
ENDBRANCH  12  15
BRANCH   1  27
ATOM     22  C   UNL     1       1.131  -3.013   2.757  0.00  0.00    +0.131 A 
ATOM     23  C   UNL     1       1.735  -2.308   3.787  0.00  0.00    +0.046 A 
ATOM     24  C   UNL     1       1.558  -0.942   3.888  0.00  0.00    +0.004 A 
ATOM     25  C   UNL     1       0.777  -0.266   2.964  0.00  0.00    +0.001 A 
ATOM     26  C   UNL     1       0.169  -0.949   1.934  0.00  0.00    +0.015 A 
ATOM     27  C   UNL     1       0.345  -2.332   1.815  0.00  0.00    +0.059 A 
BRANCH  22  29
ATOM     28  C   UNL     1       2.119  -4.980   3.651  0.00  0.00    +0.277 C 
ATOM     29  O   UNL     1       1.305  -4.355   2.656  0.00  0.00    -0.494 OA
ENDBRANCH  22  29
ENDBRANCH   1  27
BRANCH   3  30
ATOM     30  O   UNL     1      -2.645  -2.463  -2.001  0.00  0.00    -0.506 OA
ATOM     31  H   UNL     1      -2.780  -1.528  -1.794  0.00  0.00    +0.292 HD
ENDBRANCH   3  30
TORSDOF 4
