REMARK  Name = ZINC09548434
REMARK  3 active torsions:
REMARK  status: ('A' for Active; 'I' for Inactive)
REMARK    1  A    between atoms: N_13  and  C_17
REMARK    2  A    between atoms: C_17  and  C_18
REMARK    3  A    between atoms: C_20  and  C_23
REMARK                            x       y       z     vdW  Elec       q    Type
REMARK                         _______ _______ _______ _____ _____    ______ ____
ROOT
ATOM      1  C   UNL     1      -0.017   1.375   0.010  0.00  0.00    +0.000 A 
ATOM      2  C   UNL     1       1.174   2.078   0.002  0.00  0.00    +0.000 A 
ATOM      3  C   UNL     1       2.373   1.395  -0.016  0.00  0.00    +0.006 A 
ATOM      4  C   UNL     1       2.394   0.007  -0.026  0.00  0.00    -0.012 A 
ATOM      5  C   UNL     1       1.207  -0.694  -0.013  0.00  0.00    -0.042 A 
ATOM      6  C   UNL     1       0.002  -0.004   0.002  0.00  0.00    +0.004 A 
ATOM      7  C   UNL     1       1.158  -2.199  -0.005  0.00  0.00    +0.035 C 
ATOM      8  C   UNL     1       2.488  -2.785  -0.472  0.00  0.00    +0.008 C 
ATOM      9  C   UNL     1       3.616  -2.144   0.345  0.00  0.00    +0.040 C 
ATOM     10  C   UNL     1       3.731  -0.679  -0.059  0.00  0.00    +0.138 C 
ATOM     11  C   UNL     1       4.708   0.039   0.844  0.00  0.00    +0.251 C 
ATOM     12  O   UNL     1       4.622   0.194   2.043  0.00  0.00    -0.272 OA
ATOM     13  N   UNL     1       5.697   0.471   0.035  0.00  0.00    -0.215 N 
ATOM     14  C   UNL     1       5.478   0.126  -1.239  0.00  0.00    +0.310 C 
ATOM     15  O   UNL     1       6.230   0.402  -2.154  0.00  0.00    -0.252 OA
ATOM     16  N   UNL     1       4.331  -0.562  -1.395  0.00  0.00    -0.281 N 
ATOM     17  H   UNL     1       3.972  -0.911  -2.225  0.00  0.00    +0.152 HD
ENDROOT
BRANCH  13  18
ATOM     18  C   UNL     1       6.868   1.223   0.494  0.00  0.00    +0.216 C 
BRANCH  18  19
ATOM     19  C   UNL     1       7.970   0.264   0.860  0.00  0.00    +0.246 A 
ATOM     20  N   UNL     1       8.898  -0.196   0.059  0.00  0.00    -0.190 NA
ATOM     21  C   UNL     1       9.662  -1.016   0.819  0.00  0.00    +0.209 A 
ATOM     22  N   UNL     1       9.150  -1.011   2.025  0.00  0.00    -0.055 NA
ATOM     23  O   UNL     1       8.181  -0.283   2.062  0.00  0.00    -0.336 OA
BRANCH  21  24
ATOM     24  C   UNL     1      10.846  -1.777   0.371  0.00  0.00    +0.060 A 
ATOM     25  C   UNL     1      11.655  -2.617   1.090  0.00  0.00    +0.019 A 
ATOM     26  C   UNL     1      12.711  -3.225   0.452  0.00  0.00    +0.008 A 
ATOM     27  C   UNL     1      12.927  -2.968  -0.865  0.00  0.00    +0.046 A 
ATOM     28  S   UNL     1      11.601  -1.834  -1.246  0.00  0.00    -0.093 S 
ENDBRANCH  21  24
ENDBRANCH  18  19
ENDBRANCH  13  18
TORSDOF 3
