REMARK  Name = ZINC39948413
REMARK  6 active torsions:
REMARK  status: ('A' for Active; 'I' for Inactive)
REMARK    1  A    between atoms: C_1  and  C_2
REMARK    2  A    between atoms: C_7  and  C_12
REMARK    3  A    between atoms: C_12  and  C_32
REMARK    4  A    between atoms: C_13  and  C_14
REMARK    5  A    between atoms: N_17  and  C_24
REMARK    6  A    between atoms: C_24  and  C_25
REMARK                            x       y       z     vdW  Elec       q    Type
REMARK                         _______ _______ _______ _____ _____    ______ ____
ROOT
ATOM      1  C   UNL     1      -2.244  -7.054   3.002  0.00  0.00    +0.062 C 
ATOM      2  C   UNL     1      -2.239  -7.288   4.522  0.00  0.00    +0.117 C 
ATOM      3  N   UNL     1      -2.210  -8.744   4.685  0.00  0.00    -0.324 N 
ATOM      4  C   UNL     1      -2.197  -9.367   3.436  0.00  0.00    +0.034 A 
ATOM      5  C   UNL     1      -2.218  -8.441   2.401  0.00  0.00    -0.018 A 
ATOM      6  C   UNL     1      -2.211  -8.857   1.084  0.00  0.00    +0.006 A 
ATOM      7  C   UNL     1      -2.186 -10.207   0.783  0.00  0.00    +0.000 A 
ATOM      8  C   UNL     1      -2.166 -11.139   1.803  0.00  0.00    +0.002 A 
ATOM      9  C   UNL     1      -2.170 -10.728   3.126  0.00  0.00    +0.023 A 
ENDROOT
BRANCH   1  11
ATOM     10  C   UNL     1      -1.155  -5.112   1.958  0.00  0.00    +0.068 C 
ATOM     11  C   UNL     1      -1.021  -6.277   2.586  0.00  0.00    +0.001 C 
BRANCH  10  18
ATOM     12  C   UNL     1      -0.018   1.503   0.010  0.00  0.00    +0.044 C 
ATOM     13  C   UNL     1       0.002  -0.004   0.002  0.00  0.00    -0.048 A 
ATOM     14  C   UNL     1       0.005  -0.672  -1.235  0.00  0.00    +0.005 A 
ATOM     15  C   UNL     1       0.022  -2.017  -1.335  0.00  0.00    +0.027 A 
ATOM     16  C   UNL     1       0.040  -2.834  -0.114  0.00  0.00    +0.060 A 
ATOM     17  N   UNL     1       0.057  -4.120   0.090  0.00  0.00    -0.359 N 
ATOM     18  C   UNL     1       0.067  -4.335   1.542  0.00  0.00    +0.216 C 
ATOM     19  N   UNL     1       0.053  -3.002   2.159  0.00  0.00    -0.359 N 
ATOM     20  C   UNL     1       0.037  -2.127   1.195  0.00  0.00    +0.061 A 
ATOM     21  C   UNL     1       0.022  -0.657   1.181  0.00  0.00    +0.030 A 
ATOM     22  H   UNL     1       0.062  -4.809  -0.593  0.00  0.00    +0.162 HD
ATOM     23  H   UNL     1       0.055  -2.810   3.109  0.00  0.00    +0.162 HD
ENDBRANCH  10  18
BRANCH  10  24
ATOM     24  C   UNL     1      -2.461  -4.596   1.678  0.00  0.00    +0.098 C 
ATOM     25  N   UNL     1      -3.498  -4.186   1.455  0.00  0.00    -0.191 NA
ENDBRANCH  10  24
ENDBRANCH   1  11
BRANCH   3  26
ATOM     26  C   UNL     1      -2.195  -9.444   5.972  0.00  0.00    +0.143 C 
BRANCH  26  27
ATOM     27  C   UNL     1      -3.611  -9.713   6.414  0.00  0.00    +0.005 A 
ATOM     28  C   UNL     1      -4.212  -8.890   7.348  0.00  0.00    +0.008 A 
ATOM     29  C   UNL     1      -5.510  -9.136   7.753  0.00  0.00    +0.000 A 
ATOM     30  C   UNL     1      -6.209 -10.206   7.224  0.00  0.00    +0.003 A 
ATOM     31  C   UNL     1      -5.611 -11.030   6.291  0.00  0.00    +0.038 A 
ATOM     32  C   UNL     1      -4.312 -10.781   5.880  0.00  0.00    +0.128 A 
ATOM     33  F   UNL     1      -3.727 -11.583   4.963  0.00  0.00    -0.205 F 
ENDBRANCH  26  27
ENDBRANCH   3  26
TORSDOF 5
