REMARK  Name = ZINC40409227
REMARK  6 active torsions:
REMARK  status: ('A' for Active; 'I' for Inactive)
REMARK    1  A    between atoms: C_4  and  C_7
REMARK    2  A    between atoms: C_7  and  C_8
REMARK    3  A    between atoms: N_11  and  C_14
REMARK    4  A    between atoms: C_14  and  C_15
REMARK    5  A    between atoms: C_18  and  C_30
REMARK    6  A    between atoms: C_21  and  C_23
REMARK                            x       y       z     vdW  Elec       q    Type
REMARK                         _______ _______ _______ _____ _____    ______ ____
ROOT
ATOM      1  C   UNL     1       8.114  -1.595   4.666  0.00  0.00    +0.219 C 
ATOM      2  O   UNL     1       8.554  -1.915   3.582  0.00  0.00    -0.276 OA
ATOM      3  N   UNL     1       8.808  -1.876   5.786  0.00  0.00    -0.187 N 
ATOM      4  C   UNL     1      10.110  -2.560   5.837  0.00  0.00    +0.137 C 
ATOM      5  C   UNL     1      10.432  -2.614   7.343  0.00  0.00    +0.087 C 
ATOM      6  C   UNL     1       9.246  -1.938   7.993  0.00  0.00    +0.070 C 
ATOM      7  N   UNL     1       8.414  -1.562   7.085  0.00  0.00    -0.181 NA
ENDROOT
BRANCH   6   8
ATOM      8  C   UNL     1       9.072  -1.735   9.444  0.00  0.00    +0.016 A 
ATOM      9  C   UNL     1      10.051  -2.177  10.337  0.00  0.00    +0.011 A 
ATOM     10  C   UNL     1       9.881  -1.984  11.692  0.00  0.00    +0.001 A 
ATOM     11  C   UNL     1       8.745  -1.354  12.168  0.00  0.00    +0.001 A 
ATOM     12  C   UNL     1       7.771  -0.913  11.291  0.00  0.00    +0.020 A 
ATOM     13  C   UNL     1       7.929  -1.095   9.931  0.00  0.00    +0.050 A 
ATOM     14 CL   UNL     1       6.709  -0.535   8.830  0.00  0.00    -0.083 Cl
ENDBRANCH   6   8
BRANCH   4  15
ATOM     15  C   UNL     1      11.155  -1.766   5.096  0.00  0.00    -0.025 A 
ATOM     16  C   UNL     1      11.165  -0.386   5.182  0.00  0.00    +0.005 A 
ATOM     17  C   UNL     1      12.123   0.343   4.503  0.00  0.00    +0.000 A 
ATOM     18  C   UNL     1      13.073  -0.309   3.738  0.00  0.00    +0.000 A 
ATOM     19  C   UNL     1      13.064  -1.688   3.653  0.00  0.00    +0.000 A 
ATOM     20  C   UNL     1      12.108  -2.417   4.335  0.00  0.00    +0.005 A 
ENDBRANCH   4  15
BRANCH   1  21
ATOM     21  C   UNL     1       6.789  -0.881   4.760  0.00  0.00    +0.021 C 
BRANCH  21  25
ATOM     22  C   UNL     1       4.171  -0.963   1.399  0.00  0.00    -0.010 C 
ATOM     23  C   UNL     1       4.474   0.372   2.086  0.00  0.00    -0.015 C 
ATOM     24  C   UNL     1       5.009   0.105   3.494  0.00  0.00    -0.078 C 
ATOM     25  N   UNL     1       6.237  -0.694   3.412  0.00  0.00    +0.385 N 
ATOM     26  C   UNL     1       5.941  -2.004   2.819  0.00  0.00    -0.078 C 
ATOM     27  C   UNL     1       5.442  -1.818   1.385  0.00  0.00    -0.015 C 
ATOM     28  H   UNL     1       6.913  -0.211   2.838  0.00  0.00    -0.081 HD
BRANCH  22  29
ATOM     29  C   UNL     1       3.711  -0.707  -0.038  0.00  0.00    +0.038 C 
BRANCH  29  33
ATOM     30  C   UNL     1      -0.017   1.378   0.010  0.00  0.00    +0.000 A 
ATOM     31  C   UNL     1       1.171   2.086   0.002  0.00  0.00    +0.000 A 
ATOM     32  C   UNL     1       2.377   1.411  -0.013  0.00  0.00    +0.003 A 
ATOM     33  C   UNL     1       2.396   0.029  -0.020  0.00  0.00    -0.047 A 
ATOM     34  C   UNL     1       1.208  -0.679  -0.012  0.00  0.00    +0.003 A 
ATOM     35  C   UNL     1       0.002  -0.004   0.002  0.00  0.00    +0.000 A 
ENDBRANCH  29  33
ENDBRANCH  22  29
ENDBRANCH  21  25
ENDBRANCH   1  21
TORSDOF 6
