REMARK  Name = ZINC13202785
REMARK  17 active torsions:
REMARK  status: ('A' for Active; 'I' for Inactive)
REMARK    1  A    between atoms: C_1  and  C_2
REMARK    2  A    between atoms: C_2  and  C_3
REMARK    3  A    between atoms: C_3  and  C_4
REMARK    4  A    between atoms: C_7  and  S_12
REMARK    5  A    between atoms: N_8  and  C_9
REMARK    6  A    between atoms: C_9  and  C_10
REMARK    7  A    between atoms: S_12  and  C_13
REMARK    8  A    between atoms: C_13  and  C_14
REMARK    9  A    between atoms: C_14  and  C_16
REMARK   10  A    between atoms: C_18  and  C_29
REMARK   11  A    between atoms: N_19  and  C_22
REMARK   12  A    between atoms: C_20  and  C_21
REMARK   13  A    between atoms: C_22  and  C_23
REMARK   14  A    between atoms: C_23  and  C_24
REMARK   15  A    between atoms: C_24  and  C_25
REMARK   16  A    between atoms: C_25  and  O_27
REMARK   17  A    between atoms: O_27  and  C_28
REMARK                            x       y       z     vdW  Elec       q    Type
REMARK                         _______ _______ _______ _____ _____    ______ ____
ROOT
ATOM      1  C   UNL     1       3.577   0.839  -0.027  0.00  0.00    +0.175 C 
ATOM      2  O   UNL     1       4.141   1.913  -0.026  0.00  0.00    -0.291 OA
ENDROOT
BRANCH   1   3
ATOM      3  C   UNL     1       2.114   0.779  -0.014  0.00  0.00    +0.039 A 
ATOM      4  C   UNL     1       1.277  -0.428  -0.012  0.00  0.00    +0.034 A 
ATOM      5  C   UNL     1       0.002  -0.004   0.002  0.00  0.00    +0.017 A 
ATOM      6  N   UNL     1      -0.016   1.361   0.009  0.00  0.00    -0.348 N 
ATOM      7  C   UNL     1       1.237   1.848   0.000  0.00  0.00    +0.026 A 
ATOM      8  C   UNL     1       1.619   3.305   0.004  0.00  0.00    +0.064 C 
ATOM      9  C   UNL     1      -1.214  -0.894   0.008  0.00  0.00    +0.063 C 
BRANCH   6  10
ATOM     10  C   UNL     1      -1.231   2.180   0.020  0.00  0.00    +0.122 C 
BRANCH  10  11
ATOM     11  C   UNL     1      -1.646   2.458   1.466  0.00  0.00    +0.033 C 
BRANCH  11  12
ATOM     12  C   UNL     1      -2.915   3.313   1.477  0.00  0.00    +0.122 C 
BRANCH  12  13
ATOM     13  C   UNL     1      -3.324   3.587   2.901  0.00  0.00    +0.307 C 
ATOM     14  O   UNL     1      -2.668   3.143   3.814  0.00  0.00    -0.251 OA
BRANCH  13  15
ATOM     15  O   UNL     1      -4.417   4.324   3.156  0.00  0.00    -0.468 OA
ATOM     16  C   UNL     1      -4.751   4.547   4.551  0.00  0.00    +0.280 C 
ENDBRANCH  13  15
ENDBRANCH  12  13
ENDBRANCH  11  12
ENDBRANCH  10  11
ENDBRANCH   6  10
ENDBRANCH   1   3
BRANCH   1  17
ATOM     17  C   UNL     1       4.383  -0.435  -0.042  0.00  0.00    +0.157 C 
BRANCH  17  18
ATOM     18  S   UNL     1       6.148  -0.032  -0.056  0.00  0.00    -0.078 S 
BRANCH  18  22
ATOM     19  C   UNL     1       8.208  -3.345  -0.093  0.00  0.00    +0.135 A 
ATOM     20  N   UNL     1       6.979  -3.777  -0.083  0.00  0.00    -0.134 NA
ATOM     21  N   UNL     1       6.162  -2.785  -0.066  0.00  0.00    -0.122 NA
ATOM     22  C   UNL     1       6.832  -1.656  -0.071  0.00  0.00    +0.193 A 
ATOM     23  N   UNL     1       8.159  -1.978  -0.085  0.00  0.00    -0.295 N 
BRANCH  19  24
ATOM     24  C   UNL     1       9.454  -4.193  -0.109  0.00  0.00    +0.076 C 
BRANCH  24  26
ATOM     25  C   UNL     1      11.153  -5.348   1.312  0.00  0.00    +0.004 C 
ATOM     26  C   UNL     1       9.889  -4.487   1.328  0.00  0.00    +0.004 C 
ENDBRANCH  24  26
ENDBRANCH  19  24
BRANCH  23  27
ATOM     27  C   UNL     1       9.293  -1.051  -0.091  0.00  0.00    +0.250 C 
BRANCH  27  28
ATOM     28  C   UNL     1       9.696  -0.740   1.327  0.00  0.00    +0.375 C 
ATOM     29  O   UNL     1       9.096  -1.241   2.249  0.00  0.00    -0.244 OA
ATOM     30  O   UNL     1      10.720   0.093   1.567  0.00  0.00    -0.244 OA
ENDBRANCH  27  28
ENDBRANCH  23  27
ENDBRANCH  18  22
ENDBRANCH  17  18
ENDBRANCH   1  17
TORSDOF 13
