REMARK  Name = ZINC12042087
REMARK  11 active torsions:
REMARK  status: ('A' for Active; 'I' for Inactive)
REMARK    1  A    between atoms: C_1  and  O_2
REMARK    2  A    between atoms: O_2  and  C_3
REMARK    3  A    between atoms: C_3  and  C_4
REMARK    4  A    between atoms: C_4  and  C_5
REMARK    5  A    between atoms: C_5  and  N_6
REMARK    6  A    between atoms: C_7  and  C_21
REMARK    7  A    between atoms: N_11  and  S_12
REMARK    8  A    between atoms: S_12  and  C_15
REMARK    9  A    between atoms: C_24  and  O_27
REMARK   10  A    between atoms: O_27  and  C_28
REMARK   11  A    between atoms: C_28  and  C_30
REMARK                            x       y       z     vdW  Elec       q    Type
REMARK                         _______ _______ _______ _____ _____    ______ ____
ROOT
ATOM      1  N   UNL     1      -1.991  -4.256  -0.074  0.00  0.00    -0.318 N 
ATOM      2  C   UNL     1      -2.446  -4.930  -1.178  0.00  0.00    +0.058 A 
ATOM      3  C   UNL     1      -2.721  -6.246  -1.089  0.00  0.00    +0.075 A 
ATOM      4  S   UNL     1      -2.335  -6.597   0.619  0.00  0.00    -0.056 S 
ATOM      5  C   UNL     1      -1.824  -4.955   1.101  0.00  0.00    +0.194 A 
ATOM      6  N   UNL     1      -1.403  -4.528   2.265  0.00  0.00    -0.103 NA
ENDROOT
BRANCH   2   7
ATOM      7  C   UNL     1      -2.633  -4.216  -2.459  0.00  0.00    -0.001 A 
ATOM      8  C   UNL     1      -1.971  -4.654  -3.607  0.00  0.00    +0.013 A 
ATOM      9  C   UNL     1      -2.149  -3.986  -4.800  0.00  0.00    +0.047 A 
ATOM     10  C   UNL     1      -2.984  -2.878  -4.860  0.00  0.00    +0.132 A 
ATOM     11  C   UNL     1      -3.644  -2.439  -3.720  0.00  0.00    +0.047 A 
ATOM     12  C   UNL     1      -3.477  -3.106  -2.525  0.00  0.00    +0.013 A 
BRANCH  10  13
ATOM     13  O   UNL     1      -3.156  -2.221  -6.038  0.00  0.00    -0.422 OA
BRANCH  13  14
ATOM     14  C   UNL     1      -3.965  -2.778  -6.960  0.00  0.00    +0.344 C 
ATOM     15  O   UNL     1      -4.444  -3.877  -6.764  0.00  0.00    -0.245 OA
BRANCH  14  16
ATOM     16  C   UNL     1      -4.269  -2.052  -8.210  0.00  0.00    +0.059 A 
ATOM     17  C   UNL     1      -3.716  -0.791  -8.441  0.00  0.00    +0.015 A 
ATOM     18  C   UNL     1      -4.004  -0.118  -9.610  0.00  0.00    +0.001 A 
ATOM     19  C   UNL     1      -4.840  -0.691 -10.553  0.00  0.00    +0.000 A 
ATOM     20  C   UNL     1      -5.392  -1.940 -10.330  0.00  0.00    +0.001 A 
ATOM     21  C   UNL     1      -5.107  -2.626  -9.168  0.00  0.00    +0.015 A 
ENDBRANCH  14  16
ENDBRANCH  13  14
ENDBRANCH  10  13
ENDBRANCH   2   7
BRANCH   6  22
ATOM     22  S   UNL     1      -1.288  -5.579   3.541  0.00  0.00    +0.101 S 
ATOM     23  O   UNL     1      -2.615  -5.978   3.858  0.00  0.00    -0.146 OA
ATOM     24  O   UNL     1      -0.271  -6.513   3.207  0.00  0.00    -0.146 OA
BRANCH  22  25
ATOM     25  C   UNL     1      -0.695  -4.659   4.921  0.00  0.00    +0.113 A 
ATOM     26  C   UNL     1       0.664  -4.550   5.147  0.00  0.00    +0.029 A 
ATOM     27  C   UNL     1       1.130  -3.829   6.230  0.00  0.00    +0.002 A 
ATOM     28  C   UNL     1       0.236  -3.215   7.088  0.00  0.00    +0.000 A 
ATOM     29  C   UNL     1      -1.124  -3.323   6.862  0.00  0.00    +0.002 A 
ATOM     30  C   UNL     1      -1.589  -4.041   5.776  0.00  0.00    +0.029 A 
ENDBRANCH  22  25
ENDBRANCH   6  22
BRANCH   1  31
ATOM     31  C   UNL     1      -1.684  -2.825  -0.144  0.00  0.00    +0.126 C 
BRANCH  31  32
ATOM     32  C   UNL     1      -0.261  -2.635  -0.674  0.00  0.00    +0.050 C 
BRANCH  32  33
ATOM     33  C   UNL     1       0.060  -1.141  -0.748  0.00  0.00    +0.161 C 
BRANCH  33  35
ATOM     34  C   UNL     1       1.790   0.405  -1.350  0.00  0.00    +0.193 C 
ATOM     35  O   UNL     1       1.388  -0.963  -1.242  0.00  0.00    -0.383 OA
ENDBRANCH  33  35
ENDBRANCH  32  33
ENDBRANCH  31  32
ENDBRANCH   1  31
TORSDOF 10
