REMARK  Name = ZINC03840954
REMARK  14 active torsions:
REMARK  status: ('A' for Active; 'I' for Inactive)
REMARK    1  A    between atoms: C_1  and  C_2
REMARK    2  A    between atoms: C_2  and  N_3
REMARK    3  A    between atoms: N_3  and  C_4
REMARK    4  A    between atoms: C_4  and  C_5
REMARK    5  A    between atoms: C_6  and  C_8
REMARK    6  A    between atoms: C_8  and  C_10
REMARK    7  A    between atoms: C_8  and  C_11
REMARK    8  A    between atoms: C_15  and  C_36
REMARK    9  A    between atoms: C_23  and  C_25
REMARK   10  A    between atoms: C_25  and  N_72
REMARK   11  A    between atoms: C_26  and  N_72
REMARK   12  A    between atoms: C_27  and  N_72
REMARK   13  A    between atoms: C_28  and  C_35
REMARK   14  A    between atoms: C_32  and  O_34
REMARK                            x       y       z     vdW  Elec       q    Type
REMARK                         _______ _______ _______ _____ _____    ______ ____
ROOT
ATOM      1  C   UNL     1      -0.737   0.718   0.813  0.00  0.00    +0.029 C 
ATOM      2  C   UNL     1      -1.761   0.949  -0.303  0.00  0.00    +0.007 C 
ATOM      3  C   UNL     1      -2.698  -0.255  -0.366  0.00  0.00    +0.008 C 
ATOM      4  C   UNL     1      -3.444  -0.419   0.962  0.00  0.00    -0.022 C 
ATOM      5  C   UNL     1      -4.297  -1.698   0.851  0.00  0.00    +0.051 C 
ATOM      6  C   UNL     1      -4.740  -2.108   2.207  0.00  0.00    +0.015 A 
ATOM      7  C   UNL     1      -4.291  -1.650   3.404  0.00  0.00    +0.057 A 
ATOM      8  N   UNL     1      -4.872  -2.171   4.482  0.00  0.00    -0.229 NA
ATOM      9  C   UNL     1      -5.824  -3.076   4.399  0.00  0.00    +0.165 A 
ATOM     10  S   UNL     1      -5.986  -3.277   2.679  0.00  0.00    -0.057 S 
ATOM     11  N   UNL     1      -6.521  -3.709   5.422  0.00  0.00    -0.266 N 
ATOM     12  C   UNL     1      -7.472  -4.618   5.128  0.00  0.00    +0.202 C 
ATOM     13  O   UNL     1      -7.720  -4.884   3.970  0.00  0.00    -0.277 OA
ATOM     14  C   UNL     1      -3.190  -0.602   3.456  0.00  0.00    +0.042 C 
ATOM     15  C   UNL     1      -2.448  -0.569   2.114  0.00  0.00    +0.033 C 
ATOM     16  C   UNL     1      -1.475   0.603   2.145  0.00  0.00    +0.123 C 
ATOM     17  C   UNL     1      -2.206  -0.953   4.574  0.00  0.00    +0.014 C 
ATOM     18  C   UNL     1      -4.347   0.792   1.207  0.00  0.00    +0.012 C 
ATOM     19  H   UNL     1      -6.323  -3.497   6.347  0.00  0.00    +0.157 HD
ENDROOT
BRANCH   1  20
ATOM     20  C   UNL     1       0.035  -0.575   0.540  0.00  0.00    +0.078 C 
ATOM     21  C   UNL     1       1.150  -0.731   1.576  0.00  0.00    +0.017 C 
BRANCH  20  23
ATOM     22  N   UNL     1       0.937  -1.661  -1.491  0.00  0.00    -0.302 N 
ATOM     23  C   UNL     1       0.636  -0.519  -0.840  0.00  0.00    +0.219 C 
ATOM     24  O   UNL     1       0.850   0.552  -1.367  0.00  0.00    -0.275 OA
BRANCH  22  26
ATOM     25  C   UNL     1       2.957  -1.514  -2.861  0.00  0.00    +0.024 C 
ATOM     26  C   UNL     1       1.430  -1.611  -2.869  0.00  0.00    +0.104 C 
ENDBRANCH  22  26
BRANCH  22  27
ATOM     27  C   UNL     1       0.770  -2.952  -0.819  0.00  0.00    +0.104 C 
ATOM     28  C   UNL     1      -0.603  -3.533  -1.163  0.00  0.00    +0.024 C 
ENDBRANCH  22  27
ENDBRANCH  20  23
ENDBRANCH   1  20
BRANCH  16  29
ATOM     29  O   UNL     1      -0.525   0.413   3.196  0.00  0.00    -0.391 OA
ATOM     30  H   UNL     1       0.114   1.134   3.284  0.00  0.00    +0.210 HD
ENDBRANCH  16  29
BRANCH  12  31
ATOM     31  C   UNL     1      -8.227  -5.304   6.237  0.00  0.00    +0.018 C 
BRANCH  31  34
ATOM     32  C   UNL     1      -9.787  -7.097   6.699  0.00  0.00    -0.096 C 
ATOM     33  C   UNL     1     -10.245  -5.524   4.916  0.00  0.00    -0.096 C 
ATOM     34  N   UNL     1      -9.186  -6.258   5.641  0.00  0.00    +0.382 N 
ATOM     35  H   UNL     1      -8.687  -6.863   4.979  0.00  0.00    -0.082 HD
ENDBRANCH  31  34
ENDBRANCH  12  31
TORSDOF 7
