REMARK  Name = ZINC42714482
REMARK  5 active torsions:
REMARK  status: ('A' for Active; 'I' for Inactive)
REMARK    1  A    between atoms: C_1  and  S_2
REMARK    2  A    between atoms: S_2  and  N_5
REMARK    3  A    between atoms: N_5  and  C_6
REMARK    4  A    between atoms: N_15  and  S_16
REMARK    5  A    between atoms: S_16  and  C_19
REMARK                            x       y       z     vdW  Elec       q    Type
REMARK                         _______ _______ _______ _____ _____    ______ ____
ROOT
ATOM      1  C   UNL     1       0.596  -2.145  -1.571  0.00  0.00    +0.079 A 
ATOM      2  C   UNL     1       0.133  -3.235  -0.846  0.00  0.00    +0.027 A 
ATOM      3  C   UNL     1       0.429  -4.519  -1.260  0.00  0.00    +0.004 A 
ATOM      4  C   UNL     1       1.188  -4.719  -2.397  0.00  0.00    +0.025 A 
ATOM      5  C   UNL     1       1.655  -3.631  -3.127  0.00  0.00    +0.056 A 
ATOM      6  C   UNL     1       1.354  -2.342  -2.721  0.00  0.00    -0.000 A 
ATOM      7  C   UNL     1       1.828  -1.141  -3.495  0.00  0.00    +0.040 C 
ATOM      8  C   UNL     1       3.017  -1.512  -4.382  0.00  0.00    +0.025 C 
ATOM      9  C   UNL     1       2.650  -2.750  -5.210  0.00  0.00    +0.132 C 
ATOM     10  N   UNL     1       2.426  -3.861  -4.272  0.00  0.00    -0.203 N 
ENDROOT
BRANCH  10  11
ATOM     11  S   UNL     1       3.060  -5.361  -4.573  0.00  0.00    +0.077 S 
ATOM     12  O   UNL     1       2.015  -6.297  -4.343  0.00  0.00    -0.150 OA
ATOM     13  O   UNL     1       3.742  -5.271  -5.816  0.00  0.00    -0.150 OA
BRANCH  11  14
ATOM     14  C   UNL     1       4.287  -5.663  -3.346  0.00  0.00    +0.144 A 
ATOM     15  C   UNL     1       4.108  -6.677  -2.424  0.00  0.00    +0.032 A 
ATOM     16  C   UNL     1       5.071  -6.915  -1.461  0.00  0.00    +0.002 A 
ATOM     17  C   UNL     1       6.214  -6.139  -1.419  0.00  0.00    +0.003 A 
ATOM     18  C   UNL     1       6.396  -5.125  -2.341  0.00  0.00    +0.040 A 
ATOM     19  C   UNL     1       5.435  -4.890  -3.309  0.00  0.00    +0.150 A 
ATOM     20  F   UNL     1       5.614  -3.902  -4.213  0.00  0.00    -0.203 F 
ENDBRANCH  11  14
ENDBRANCH  10  11
BRANCH   1  21
ATOM     21  N   UNL     1       0.294  -0.848  -1.149  0.00  0.00    -0.103 NA
BRANCH  21  23
ATOM     22  C   UNL     1      -0.747   1.190   0.381  0.00  0.00    +0.220 C 
ATOM     23  S   UNL     1      -0.608  -0.612   0.220  0.00  0.00    +0.059 S 
ATOM     24  O   UNL     1       0.187  -1.138   1.274  0.00  0.00    -0.154 OA
ATOM     25  O   UNL     1      -1.877  -1.175  -0.081  0.00  0.00    -0.154 OA
ENDBRANCH  21  23
ENDBRANCH   1  21
TORSDOF 4
