REMARK  Name = ZINC36302982
REMARK  15 active torsions:
REMARK  status: ('A' for Active; 'I' for Inactive)
REMARK    1  A    between atoms: C_1  and  C_2
REMARK    2  A    between atoms: C_2  and  C_3
REMARK    3  A    between atoms: C_3  and  C_4
REMARK    4  A    between atoms: C_4  and  C_6
REMARK    5  A    between atoms: C_4  and  O_36
REMARK    6  A    between atoms: C_6  and  N_7
REMARK    7  A    between atoms: N_7  and  C_8
REMARK    8  A    between atoms: N_7  and  C_29
REMARK    9  A    between atoms: C_8  and  C_9
REMARK   10  A    between atoms: C_10  and  C_27
REMARK   11  A    between atoms: N_12  and  C_21
REMARK   12  A    between atoms: C_13  and  O_14
REMARK   13  A    between atoms: O_14  and  C_15
REMARK   14  A    between atoms: C_27  and  C_28
REMARK   15  A    between atoms: C_29  and  C_30
REMARK                            x       y       z     vdW  Elec       q    Type
REMARK                         _______ _______ _______ _____ _____    ______ ____
ROOT
ATOM      1  C   UNL     1      -4.208  -6.227   0.546  0.00  0.00    +0.021 A 
ATOM      2  C   UNL     1      -3.856  -7.380  -0.163  0.00  0.00    +0.068 A 
ATOM      3  N   UNL     1      -3.541  -8.314   0.697  0.00  0.00    -0.168 NA
ATOM      4  N   UNL     1      -3.680  -7.792   1.989  0.00  0.00    -0.200 N 
ATOM      5  C   UNL     1      -4.088  -6.499   1.873  0.00  0.00    +0.225 A 
ENDROOT
BRANCH   4   6
ATOM      6  C   UNL     1      -3.438  -8.476   3.188  0.00  0.00    +0.069 A 
ATOM      7  C   UNL     1      -2.791  -7.836   4.236  0.00  0.00    +0.028 A 
ATOM      8  C   UNL     1      -2.553  -8.514   5.416  0.00  0.00    +0.002 A 
ATOM      9  C   UNL     1      -2.959  -9.828   5.554  0.00  0.00    +0.000 A 
ATOM     10  C   UNL     1      -3.603 -10.469   4.512  0.00  0.00    +0.002 A 
ATOM     11  C   UNL     1      -3.849  -9.795   3.332  0.00  0.00    +0.028 A 
ENDBRANCH   4   6
BRANCH   2  12
ATOM     12  C   UNL     1      -3.842  -7.521  -1.663  0.00  0.00    +0.054 C 
ATOM     13  C   UNL     1      -2.420  -7.301  -2.183  0.00  0.00    +0.010 C 
ENDBRANCH   2  12
BRANCH   1  14
ATOM     14  C   UNL     1      -4.637  -4.913  -0.054  0.00  0.00    -0.036 C 
BRANCH  14  15
ATOM     15  N   UNL     1      -3.543  -3.940   0.064  0.00  0.00    +0.386 N 
ATOM     16  H   UNL     1      -3.271  -3.855   1.032  0.00  0.00    -0.081 HD
BRANCH  15  17
ATOM     17  C   UNL     1      -2.394  -4.396  -0.730  0.00  0.00    -0.047 C 
BRANCH  17  18
ATOM     18  C   UNL     1      -1.206  -3.463  -0.489  0.00  0.00    +0.098 C 
BRANCH  18  19
ATOM     19  O   UNL     1      -0.788  -3.565   0.873  0.00  0.00    -0.394 OA
ATOM     20  H   UNL     1      -0.510  -4.454   1.134  0.00  0.00    +0.210 HD
ENDBRANCH  18  19
BRANCH  18  21
ATOM     21  C   UNL     1      -0.050  -3.862  -1.408  0.00  0.00    +0.029 C 
BRANCH  21  23
ATOM     22  C   UNL     1       2.249  -3.255  -2.178  0.00  0.00    +0.004 C 
ATOM     23  C   UNL     1       1.093  -2.856  -1.259  0.00  0.00    -0.001 C 
ENDBRANCH  21  23
ENDBRANCH  18  21
ENDBRANCH  17  18
ENDBRANCH  15  17
BRANCH  15  24
ATOM     24  C   UNL     1      -3.994  -2.633  -0.433  0.00  0.00    -0.046 C 
BRANCH  24  25
ATOM     25  C   UNL     1      -5.090  -2.089   0.485  0.00  0.00    +0.102 C 
ATOM     26  C   UNL     1      -5.571  -0.715  -0.031  0.00  0.00    +0.032 C 
ATOM     27  C   UNL     1      -5.773   0.080   1.288  0.00  0.00    +0.030 C 
ATOM     28  C   UNL     1      -4.637  -0.507   2.162  0.00  0.00    +0.160 C 
ATOM     29  O   UNL     1      -4.568  -1.899   1.805  0.00  0.00    -0.378 OA
ENDBRANCH  24  25
ENDBRANCH  15  24
ENDBRANCH  14  15
ENDBRANCH   1  14
BRANCH   5  30
ATOM     30  O   UNL     1      -4.334  -5.640   2.894  0.00  0.00    -0.438 OA
BRANCH  30  31
ATOM     31  C   UNL     1      -5.564  -5.671   3.472  0.00  0.00    +0.130 A 
ATOM     32  C   UNL     1      -6.486  -6.636   3.092  0.00  0.00    +0.046 A 
ATOM     33  C   UNL     1      -7.735  -6.665   3.681  0.00  0.00    +0.004 A 
ATOM     34  C   UNL     1      -8.067  -5.735   4.649  0.00  0.00    +0.000 A 
ATOM     35  C   UNL     1      -7.149  -4.773   5.030  0.00  0.00    +0.004 A 
ATOM     36  C   UNL     1      -5.897  -4.743   4.448  0.00  0.00    +0.046 A 
ENDBRANCH  30  31
ENDBRANCH   5  30
TORSDOF 13
