REMARK  Name = ZINC65266019
REMARK  9 active torsions:
REMARK  status: ('A' for Active; 'I' for Inactive)
REMARK    1  A    between atoms: C_1  and  C_2
REMARK    2  A    between atoms: C_2  and  C_3
REMARK    3  A    between atoms: C_2  and  N_4
REMARK    4  A    between atoms: C_7  and  C_10
REMARK    5  A    between atoms: C_10  and  C_11
REMARK    6  A    between atoms: N_28  and  C_29
REMARK    7  A    between atoms: C_29  and  C_30
REMARK    8  A    between atoms: C_29  and  C_31
REMARK    9  A    between atoms: C_29  and  C_32
REMARK                            x       y       z     vdW  Elec       q    Type
REMARK                         _______ _______ _______ _____ _____    ______ ____
ROOT
ATOM      1  C   UNL     1      -5.420  -3.588  -0.635  0.00  0.00    +0.216 C 
ATOM      2  O   UNL     1      -4.327  -4.104  -0.535  0.00  0.00    -0.276 OA
ATOM      3  N   UNL     1      -6.523  -4.358  -0.714  0.00  0.00    -0.299 N 
ATOM      4  C   UNL     1      -7.904  -3.865  -0.844  0.00  0.00    +0.110 C 
ATOM      5  C   UNL     1      -8.828  -5.102  -0.922  0.00  0.00    +0.050 C 
ATOM      6  C   UNL     1      -7.868  -6.218  -1.363  0.00  0.00    +0.091 C 
ATOM      7  C   UNL     1      -6.546  -5.834  -0.689  0.00  0.00    +0.137 C 
ATOM      8  C   UNL     1      -8.344  -7.568  -0.947  0.00  0.00    +0.095 C 
ATOM      9  N   UNL     1      -7.938  -8.628  -1.721  0.00  0.00    -0.303 N 
ATOM     10  C   UNL     1      -8.719  -9.004  -2.810  0.00  0.00    +0.037 A 
ATOM     11  C   UNL     1      -8.999 -10.345  -3.033  0.00  0.00    +0.023 A 
ATOM     12  C   UNL     1      -9.761 -10.722  -4.121  0.00  0.00    +0.002 A 
ATOM     13  C   UNL     1     -10.239  -9.754  -4.985  0.00  0.00    +0.000 A 
ATOM     14  C   UNL     1      -9.966  -8.422  -4.760  0.00  0.00    +0.007 A 
ATOM     15  C   UNL     1      -9.206  -8.023  -3.664  0.00  0.00    -0.012 A 
ATOM     16  C   UNL     1      -8.994  -6.541  -3.488  0.00  0.00    +0.119 C 
ATOM     17  N   UNL     1      -7.716  -6.225  -2.835  0.00  0.00    -0.299 NA
ATOM     18  N   UNL     1      -9.101  -7.732   0.089  0.00  0.00    -0.370 N 
ATOM     19  H   UNL     1      -7.349  -5.345  -3.165  0.00  0.00    +0.123 HD
ATOM     20  H   UNL     1      -9.283  -6.986   0.680  0.00  0.00    +0.161 HD
ATOM     21  H   UNL     1      -7.121  -9.106  -1.512  0.00  0.00    +0.153 HD
ENDROOT
BRANCH  18  22
ATOM     22  C   UNL     1      -9.684  -9.047   0.369  0.00  0.00    +0.031 C 
ATOM     23  C   UNL     1      -8.579 -10.105   0.369  0.00  0.00    +0.033 C 
ATOM     24  C   UNL     1     -10.365  -9.022   1.738  0.00  0.00    +0.033 C 
ATOM     25  C   UNL     1     -10.716  -9.387  -0.708  0.00  0.00    +0.033 C 
ENDBRANCH  18  22
BRANCH   1  26
ATOM     26  C   UNL     1      -5.544  -2.087  -0.673  0.00  0.00    +0.099 C 
BRANCH  26  30
ATOM     27  N   UNL     1      -2.373   0.378   0.794  0.00  0.00    +0.381 N 
ATOM     28  C   UNL     1      -2.882   0.691  -0.547  0.00  0.00    -0.078 C 
ATOM     29  C   UNL     1      -4.264   0.061  -0.732  0.00  0.00    -0.015 C 
ATOM     30  C   UNL     1      -4.153  -1.458  -0.568  0.00  0.00    -0.006 C 
ATOM     31  C   UNL     1      -3.551  -1.771   0.804  0.00  0.00    -0.015 C 
ATOM     32  C   UNL     1      -2.195  -1.073   0.932  0.00  0.00    -0.078 C 
ATOM     33  H   UNL     1      -3.031   0.703   1.486  0.00  0.00    -0.081 HD
BRANCH  27  35
ATOM     34  C   UNL     1      -1.265   2.561   0.850  0.00  0.00    -0.014 C 
ATOM     35  C   UNL     1      -1.082   1.049   0.995  0.00  0.00    -0.075 C 
ATOM     36  C   UNL     1      -0.554   0.731   2.395  0.00  0.00    -0.014 C 
ENDBRANCH  27  35
ENDBRANCH  26  30
ENDBRANCH   1  26
TORSDOF 4
