REMARK  Name = ZINC13249480
REMARK  4 active torsions:
REMARK  status: ('A' for Active; 'I' for Inactive)
REMARK    1  A    between atoms: C_4  and  C_27
REMARK    2  A    between atoms: C_6  and  S_7
REMARK    3  A    between atoms: S_7  and  N_10
REMARK    4  A    between atoms: C_14  and  N_21
REMARK                            x       y       z     vdW  Elec       q    Type
REMARK                         _______ _______ _______ _____ _____    ______ ____
ROOT
ATOM      1  N   UNL     1      -1.949  -1.145  -1.568  0.00  0.00    -0.128 NA
ATOM      2  C   UNL     1      -3.066  -1.804  -1.855  0.00  0.00    +0.095 A 
ATOM      3  C   UNL     1      -3.897  -2.301  -0.832  0.00  0.00    +0.032 A 
ATOM      4  C   UNL     1      -5.052  -2.984  -1.126  0.00  0.00    +0.024 A 
ATOM      5  C   UNL     1      -5.468  -3.222  -2.424  0.00  0.00    +0.022 A 
ATOM      6  C   UNL     1      -4.717  -2.772  -3.502  0.00  0.00    +0.007 A 
ATOM      7  C   UNL     1      -3.473  -2.030  -3.249  0.00  0.00    +0.029 A 
ATOM      8  C   UNL     1      -2.736  -1.582  -4.323  0.00  0.00    +0.121 A 
ATOM      9  N   UNL     1      -3.168  -1.825  -5.573  0.00  0.00    -0.263 NA
ATOM     10  C   UNL     1      -4.317  -2.503  -5.832  0.00  0.00    +0.111 A 
ATOM     11  C   UNL     1      -5.100  -2.992  -4.847  0.00  0.00    +0.030 A 
ENDROOT
BRANCH   5  12
ATOM     12  N   UNL     1      -6.656  -3.924  -2.653  0.00  0.00    -0.393 NA
ATOM     13  C   UNL     1      -7.778  -3.193  -2.052  0.00  0.00    +0.085 C 
ATOM     14  C   UNL     1      -9.090  -3.914  -2.369  0.00  0.00    +0.017 C 
ATOM     15  C   UNL     1      -9.037  -5.333  -1.796  0.00  0.00    +0.003 C 
ATOM     16  C   UNL     1      -7.820  -6.062  -2.373  0.00  0.00    +0.017 C 
ATOM     17  C   UNL     1      -6.555  -5.261  -2.056  0.00  0.00    +0.085 C 
ATOM     18  H   UNL     1      -6.808  -4.011  -3.647  0.00  0.00    +0.126 HD
ENDBRANCH   5  12
BRANCH   1  19
ATOM     19  S   UNL     1      -1.513  -0.903   0.012  0.00  0.00    +0.099 S 
ATOM     20  O   UNL     1      -1.222  -2.184   0.553  0.00  0.00    -0.146 OA
ATOM     21  O   UNL     1      -2.493  -0.043   0.576  0.00  0.00    -0.146 OA
BRANCH  19  27
ATOM     22  C   UNL     1      -0.017   1.380   0.010  0.00  0.00    +0.030 A 
ATOM     23  C   UNL     1       1.168   2.095   0.002  0.00  0.00    +0.018 A 
ATOM     24  C   UNL     1       2.378   1.431  -0.013  0.00  0.00    +0.032 A 
ATOM     25  C   UNL     1       2.404   0.033  -0.021  0.00  0.00    +0.079 A 
ATOM     26  C   UNL     1       1.203  -0.681  -0.013  0.00  0.00    +0.045 A 
ATOM     27  C   UNL     1       0.002  -0.004   0.002  0.00  0.00    +0.113 A 
ATOM     28 BR   UNL     1       3.996   2.410  -0.025  0.00  0.00    -0.049 Br
BRANCH  25  29
ATOM     29  C   UNL     1       3.693  -0.684  -0.038  0.00  0.00    +0.388 C 
ATOM     30  O   UNL     1       3.712  -1.907  -0.045  0.00  0.00    -0.241 OA
ATOM     31  O   UNL     1       4.742  -0.056  -0.046  0.00  0.00    -0.241 OA
ENDBRANCH  25  29
ENDBRANCH  19  27
ENDBRANCH   1  19
TORSDOF 4
