REMARK  Name = ZINC57525572
REMARK  2 active torsions:
REMARK  status: ('A' for Active; 'I' for Inactive)
REMARK    1  A    between atoms: N_13  and  C_14
REMARK    2  A    between atoms: C_18  and  N_20
REMARK                            x       y       z     vdW  Elec       q    Type
REMARK                         _______ _______ _______ _____ _____    ______ ____
ROOT
ATOM      1  C   UNL     1       0.703   2.295  -0.017  0.00  0.00    +0.000 A 
ATOM      2  C   UNL     1       1.971   2.573  -0.492  0.00  0.00    +0.000 A 
ATOM      3  C   UNL     1       2.929   1.581  -0.507  0.00  0.00    +0.005 A 
ATOM      4  C   UNL     1       2.631   0.306  -0.044  0.00  0.00    -0.027 A 
ATOM      5  C   UNL     1       1.371   0.030   0.439  0.00  0.00    -0.041 A 
ATOM      6  C   UNL     1       0.406   1.030   0.445  0.00  0.00    +0.004 A 
ATOM      7  C   UNL     1       0.983  -1.319   0.986  0.00  0.00    +0.054 C 
ATOM      8  C   UNL     1       1.936  -2.403   0.485  0.00  0.00    +0.114 C 
ATOM      9  N   UNL     1       3.313  -1.917   0.669  0.00  0.00    -0.281 N 
ATOM     10  C   UNL     1       3.719  -0.736  -0.101  0.00  0.00    +0.144 C 
ATOM     11  C   UNL     1       4.167  -2.532   1.511  0.00  0.00    +0.307 C 
ATOM     12  O   UNL     1       3.779  -3.450   2.207  0.00  0.00    -0.252 OA
ATOM     13  N   UNL     1       5.452  -2.130   1.581  0.00  0.00    -0.269 N 
ATOM     14  H   UNL     1       5.744  -1.350   1.084  0.00  0.00    +0.156 HD
ENDROOT
BRANCH  13  15
ATOM     15  C   UNL     1       6.364  -2.838   2.371  0.00  0.00    +0.037 A 
ATOM     16  C   UNL     1       6.240  -4.214   2.514  0.00  0.00    +0.023 A 
ATOM     17  C   UNL     1       7.141  -4.914   3.293  0.00  0.00    +0.004 A 
ATOM     18  C   UNL     1       8.168  -4.248   3.934  0.00  0.00    +0.025 A 
ATOM     19  C   UNL     1       8.297  -2.872   3.796  0.00  0.00    +0.053 A 
ATOM     20  C   UNL     1       7.397  -2.167   3.009  0.00  0.00    +0.048 A 
BRANCH  19  21
ATOM     21  N   UNL     1       9.335  -2.199   4.445  0.00  0.00    -0.207 N 
ATOM     22  C   UNL     1       9.358  -0.782   4.852  0.00  0.00    +0.133 C 
ATOM     23  C   UNL     1      10.245  -0.583   6.094  0.00  0.00    +0.045 C 
ATOM     24  C   UNL     1      11.542  -1.395   5.799  0.00  0.00    +0.190 C 
ATOM     25  S   UNL     1      10.807  -2.838   4.927  0.00  0.00    +0.046 S 
ATOM     26  O   UNL     1      11.515  -3.111   3.725  0.00  0.00    -0.155 OA
ATOM     27  O   UNL     1      10.489  -3.874   5.846  0.00  0.00    -0.155 OA
ENDBRANCH  19  21
ENDBRANCH  13  15
TORSDOF 2
