REMARK  Name = ZINC08754228
REMARK  10 active torsions:
REMARK  status: ('A' for Active; 'I' for Inactive)
REMARK    1  A    between atoms: C_1  and  C_2
REMARK    2  A    between atoms: C_2  and  N_3
REMARK    3  A    between atoms: N_3  and  C_4
REMARK    4  A    between atoms: N_3  and  S_10
REMARK    5  A    between atoms: S_10  and  C_13
REMARK    6  A    between atoms: C_16  and  O_33
REMARK    7  A    between atoms: C_17  and  N_19
REMARK    8  A    between atoms: C_20  and  C_22
REMARK    9  A    between atoms: C_23  and  C_27
REMARK   10  A    between atoms: O_33  and  C_34
REMARK                            x       y       z     vdW  Elec       q    Type
REMARK                         _______ _______ _______ _____ _____    ______ ____
ROOT
ATOM      1  C   UNL     1       2.123   1.925  -0.041  0.00  0.00    +0.111 A 
ATOM      2  C   UNL     1       1.817   0.720  -0.646  0.00  0.00    +0.032 A 
ATOM      3  C   UNL     1       0.526   0.463  -1.069  0.00  0.00    +0.049 A 
ATOM      4  C   UNL     1      -0.465   1.414  -0.887  0.00  0.00    +0.141 A 
ATOM      5  C   UNL     1      -0.157   2.628  -0.278  0.00  0.00    +0.078 A 
ATOM      6  C   UNL     1       1.141   2.879   0.144  0.00  0.00    +0.055 A 
ENDROOT
BRANCH   5   7
ATOM      7  N   UNL     1      -1.154   3.595  -0.096  0.00  0.00    -0.278 N 
ATOM      8  C   UNL     1      -0.984   4.575   0.814  0.00  0.00    +0.256 C 
ATOM      9  O   UNL     1      -0.011   4.564   1.546  0.00  0.00    -0.269 OA
ATOM     10  H   UNL     1      -1.966   3.560  -0.625  0.00  0.00    +0.155 HD
BRANCH   8  11
ATOM     11  C   UNL     1      -1.970   5.650   0.923  0.00  0.00    +0.082 A 
ATOM     12  C   UNL     1      -1.984   6.748   1.788  0.00  0.00    +0.001 A 
ATOM     13  C   UNL     1      -3.054   7.617   1.667  0.00  0.00    +0.017 A 
ATOM     14  C   UNL     1      -4.008   7.366   0.740  0.00  0.00    +0.046 A 
ATOM     15  S   UNL     1      -3.462   5.907  -0.019  0.00  0.00    -0.091 S 
BRANCH  12  16
ATOM     16  C   UNL     1      -0.909   6.970   2.783  0.00  0.00    -0.017 A 
ATOM     17  C   UNL     1      -0.521   5.936   3.636  0.00  0.00    +0.008 A 
ATOM     18  C   UNL     1       0.485   6.147   4.557  0.00  0.00    +0.001 A 
ATOM     19  C   UNL     1       1.101   7.383   4.643  0.00  0.00    +0.000 A 
ATOM     20  C   UNL     1       0.716   8.413   3.804  0.00  0.00    +0.001 A 
ATOM     21  C   UNL     1      -0.285   8.213   2.875  0.00  0.00    +0.008 A 
ENDBRANCH  12  16
ENDBRANCH   8  11
ENDBRANCH   5   7
BRANCH   1  22
ATOM     22  S   UNL     1       3.771   2.246   0.495  0.00  0.00    +0.075 S 
ATOM     23  O   UNL     1       3.681   3.224   1.522  0.00  0.00    -0.150 OA
ATOM     24  O   UNL     1       4.385   0.981   0.700  0.00  0.00    -0.150 OA
BRANCH  22  25
ATOM     25  N   UNL     1       4.567   2.959  -0.770  0.00  0.00    -0.203 N 
BRANCH  25  26
ATOM     26  C   UNL     1       5.343   2.183  -1.634  0.00  0.00    +0.051 A 
ATOM     27  C   UNL     1       5.016   2.103  -2.982  0.00  0.00    +0.025 A 
ATOM     28  C   UNL     1       5.788   1.339  -3.834  0.00  0.00    +0.002 A 
ATOM     29  C   UNL     1       6.880   0.644  -3.345  0.00  0.00    +0.000 A 
ATOM     30  C   UNL     1       7.205   0.717  -2.003  0.00  0.00    +0.002 A 
ATOM     31  C   UNL     1       6.440   1.484  -1.146  0.00  0.00    +0.025 A 
ENDBRANCH  25  26
BRANCH  25  33
ATOM     32  C   UNL     1       5.641   5.109  -0.317  0.00  0.00    +0.026 C 
ATOM     33  C   UNL     1       4.458   4.404  -0.983  0.00  0.00    +0.128 C 
ENDBRANCH  25  33
ENDBRANCH  22  25
ENDBRANCH   1  22
BRANCH   4  34
ATOM     34  O   UNL     1      -1.735   1.162  -1.302  0.00  0.00    -0.493 OA
ATOM     35  C   UNL     1      -1.978  -0.104  -1.918  0.00  0.00    +0.277 C 
ENDBRANCH   4  34
TORSDOF 8
