REMARK  Name = ZINC18249477
REMARK  10 active torsions:
REMARK  status: ('A' for Active; 'I' for Inactive)
REMARK    1  A    between atoms: C_1  and  C_2
REMARK    2  A    between atoms: C_2  and  C_3
REMARK    3  A    between atoms: C_3  and  C_4
REMARK    4  A    between atoms: C_4  and  C_5
REMARK    5  A    between atoms: C_5  and  C_6
REMARK    6  A    between atoms: C_18  and  C_20
REMARK    7  A    between atoms: C_25  and  O_26
REMARK    8  A    between atoms: O_26  and  C_27
REMARK    9  A    between atoms: C_33  and  C_35
REMARK   10  A    between atoms: C_33  and  C_36
REMARK                            x       y       z     vdW  Elec       q    Type
REMARK                         _______ _______ _______ _____ _____    ______ ____
ROOT
ATOM      1  C   UNL     1       4.129   3.901  -1.665  0.00  0.00    +0.221 C 
ATOM      2  O   UNL     1       4.970   3.171  -2.145  0.00  0.00    -0.275 OA
ATOM      3  N   UNL     1       3.420   3.499  -0.592  0.00  0.00    -0.258 N 
ATOM      4  C   UNL     1       2.455   4.349  -0.049  0.00  0.00    +0.058 A 
ATOM      5  C   UNL     1       1.322   4.706  -0.761  0.00  0.00    +0.025 A 
ATOM      6  C   UNL     1       0.370   5.515  -0.165  0.00  0.00    +0.002 A 
ATOM      7  C   UNL     1       0.546   5.963   1.132  0.00  0.00    +0.002 A 
ATOM      8  C   UNL     1       1.685   5.623   1.840  0.00  0.00    +0.025 A 
ATOM      9  C   UNL     1       2.647   4.831   1.237  0.00  0.00    +0.053 A 
ATOM     10  N   UNL     1       3.860   4.541   1.850  0.00  0.00    -0.316 N 
ATOM     11  C   UNL     1       4.279   3.295   2.188  0.00  0.00    +0.017 C 
ATOM     12  C   UNL     1       4.223   2.221   1.384  0.00  0.00    +0.037 C 
ATOM     13  C   UNL     1       3.671   2.193  -0.022  0.00  0.00    +0.150 C 
ATOM     14  C   UNL     1       4.710   0.970   1.831  0.00  0.00    +0.163 C 
ATOM     15  O   UNL     1       4.634   0.012   1.087  0.00  0.00    -0.292 OA
ATOM     16  C   UNL     1       5.317   0.783   3.189  0.00  0.00    +0.086 C 
ATOM     17  C   UNL     1       5.929   2.114   3.639  0.00  0.00    -0.023 C 
ATOM     18  C   UNL     1       4.826   3.170   3.600  0.00  0.00    +0.058 C 
ATOM     19  C   UNL     1       7.061   2.511   2.689  0.00  0.00    +0.011 C 
ATOM     20  C   UNL     1       6.470   1.981   5.064  0.00  0.00    +0.011 C 
ATOM     21  H   UNL     1       4.451   5.284   2.051  0.00  0.00    +0.152 HD
ENDROOT
BRANCH  13  22
ATOM     22  C   UNL     1       2.378   1.418  -0.013  0.00  0.00    +0.022 A 
ATOM     23  C   UNL     1       1.629   1.336   1.145  0.00  0.00    +0.029 A 
ATOM     24  C   UNL     1       0.442   0.626   1.154  0.00  0.00    +0.043 A 
ATOM     25  C   UNL     1       0.002  -0.004   0.004  0.00  0.00    +0.043 A 
ATOM     26  C   UNL     1       0.748   0.076  -1.157  0.00  0.00    +0.084 A 
ATOM     27  C   UNL     1       1.940   0.788  -1.168  0.00  0.00    +0.144 A 
ATOM     28 CL   UNL     1       0.195  -0.714  -2.601  0.00  0.00    -0.080 Cl
ATOM     29 CL   UNL     1      -0.500   0.531   2.609  0.00  0.00    -0.083 Cl
BRANCH  27  30
ATOM     30  O   UNL     1       2.675   0.869  -2.308  0.00  0.00    -0.493 OA
ATOM     31  C   UNL     1       2.393   1.960  -3.186  0.00  0.00    +0.277 C 
ENDBRANCH  27  30
ENDBRANCH  13  22
BRANCH   1  32
ATOM     32  C   UNL     1       3.878   5.259  -2.269  0.00  0.00    +0.096 C 
BRANCH  32  33
ATOM     33  C   UNL     1       4.809   5.465  -3.466  0.00  0.00    +0.009 C 
BRANCH  33  34
ATOM     34  C   UNL     1       4.553   6.844  -4.079  0.00  0.00    +0.000 C 
BRANCH  34  36
ATOM     35  C   UNL     1       5.229   8.428  -5.888  0.00  0.00    +0.004 C 
ATOM     36  C   UNL     1       5.484   7.050  -5.276  0.00  0.00    -0.003 C 
ENDBRANCH  34  36
ENDBRANCH  33  34
ENDBRANCH  32  33
ENDBRANCH   1  32
TORSDOF 6
