REMARK  Name = ZINC60299685
REMARK  8 active torsions:
REMARK  status: ('A' for Active; 'I' for Inactive)
REMARK    1  A    between atoms: C_4  and  C_7
REMARK    2  A    between atoms: N_10  and  C_12
REMARK    3  A    between atoms: C_12  and  C_13
REMARK    4  A    between atoms: C_13  and  C_14
REMARK    5  A    between atoms: C_14  and  C_15
REMARK    6  A    between atoms: N_17  and  C_18
REMARK    7  A    between atoms: N_22  and  C_23
REMARK    8  A    between atoms: C_23  and  C_24
REMARK                            x       y       z     vdW  Elec       q    Type
REMARK                         _______ _______ _______ _____ _____    ______ ____
ROOT
ATOM      1  C   UNL     1       6.862  -5.884   2.747  0.00  0.00    +0.218 C 
ATOM      2  O   UNL     1       6.535  -5.180   3.679  0.00  0.00    -0.275 OA
ATOM      3  N   UNL     1       7.426  -7.087   2.976  0.00  0.00    -0.271 N 
ATOM      4  H   UNL     1       7.687  -7.650   2.231  0.00  0.00    +0.156 HD
ENDROOT
BRANCH   3   5
ATOM      5  C   UNL     1       7.633  -7.522   4.285  0.00  0.00    +0.123 A 
ATOM      6  C   UNL     1       7.311  -6.841   5.419  0.00  0.00    +0.065 A 
ATOM      7  C   UNL     1       7.684  -7.629   6.511  0.00  0.00    +0.136 A 
ATOM      8  N   UNL     1       8.210  -8.738   6.058  0.00  0.00    -0.178 NA
ATOM      9  N   UNL     1       8.185  -8.699   4.658  0.00  0.00    -0.246 N 
BRANCH   9  10
ATOM     10  C   UNL     1       8.674  -9.746   3.757  0.00  0.00    +0.181 C 
BRANCH  10  11
ATOM     11  C   UNL     1      10.128  -9.502   3.446  0.00  0.00    -0.012 A 
ATOM     12  C   UNL     1      10.483  -8.807   2.305  0.00  0.00    +0.006 A 
ATOM     13  C   UNL     1      11.817  -8.583   2.019  0.00  0.00    +0.000 A 
ATOM     14  C   UNL     1      12.796  -9.054   2.875  0.00  0.00    +0.001 A 
ATOM     15  C   UNL     1      12.442  -9.748   4.016  0.00  0.00    +0.015 A 
ATOM     16  C   UNL     1      11.107  -9.968   4.304  0.00  0.00    +0.023 A 
ATOM     17 BR   UNL     1      10.621 -10.913   5.869  0.00  0.00    -0.050 Br
ENDBRANCH  10  11
ENDBRANCH   9  10
ENDBRANCH   3   5
BRANCH   1  18
ATOM     18  C   UNL     1       6.638  -5.415   1.333  0.00  0.00    +0.098 C 
BRANCH  18  19
ATOM     19  C   UNL     1       5.989  -4.029   1.352  0.00  0.00    +0.034 C 
BRANCH  19  20
ATOM     20  C   UNL     1       5.762  -3.552  -0.084  0.00  0.00    +0.169 C 
BRANCH  20  24
ATOM     21  C   UNL     1       3.699  -0.690  -0.038  0.00  0.00    +0.205 A 
ATOM     22  N   UNL     1       4.921  -0.140  -0.042  0.00  0.00    -0.108 NA
ATOM     23  N   UNL     1       5.776  -1.106  -0.059  0.00  0.00    -0.046 NA
ATOM     24  N   UNL     1       5.141  -2.225  -0.065  0.00  0.00    -0.163 N 
ATOM     25  N   UNL     1       3.873  -1.996  -0.047  0.00  0.00    -0.130 NA
BRANCH  21  29
ATOM     26  C   UNL     1      -0.017   1.379   0.010  0.00  0.00    +0.000 A 
ATOM     27  C   UNL     1       1.169   2.092   0.002  0.00  0.00    +0.001 A 
ATOM     28  C   UNL     1       2.377   1.425  -0.013  0.00  0.00    +0.012 A 
ATOM     29  C   UNL     1       2.402   0.033  -0.021  0.00  0.00    +0.023 A 
ATOM     30  C   UNL     1       1.205  -0.680  -0.013  0.00  0.00    +0.012 A 
ATOM     31  C   UNL     1       0.002  -0.004   0.002  0.00  0.00    +0.001 A 
ENDBRANCH  21  29
ENDBRANCH  20  24
ENDBRANCH  19  20
ENDBRANCH  18  19
ENDBRANCH   1  18
TORSDOF 8
