REMARK  Name = ZINC09726091
REMARK  12 active torsions:
REMARK  status: ('A' for Active; 'I' for Inactive)
REMARK    1  A    between atoms: C_1  and  C_2
REMARK    2  A    between atoms: C_2  and  C_3
REMARK    3  A    between atoms: C_3  and  C_4
REMARK    4  A    between atoms: C_4  and  C_5
REMARK    5  A    between atoms: C_5  and  O_6
REMARK    6  A    between atoms: O_6  and  C_7
REMARK    7  A    between atoms: C_11  and  C_13
REMARK    8  A    between atoms: C_13  and  N_15
REMARK    9  A    between atoms: N_17  and  C_29
REMARK   10  A    between atoms: C_21  and  S_25
REMARK   11  A    between atoms: S_25  and  N_28
REMARK   12  A    between atoms: C_29  and  C_30
REMARK                            x       y       z     vdW  Elec       q    Type
REMARK                         _______ _______ _______ _____ _____    ______ ____
ROOT
ATOM      1  N   UNL     1       1.510   2.053  -2.414  0.00  0.00    -0.152 NA
ATOM      2  C   UNL     1       1.982   2.217  -1.184  0.00  0.00    +0.168 A 
ATOM      3  N   UNL     1       1.357   1.975  -0.000  0.00  0.00    -0.310 N 
ATOM      4  C   UNL     1       2.014   2.212   1.192  0.00  0.00    +0.059 A 
ATOM      5  C   UNL     1       1.542   2.020   2.500  0.00  0.00    +0.029 A 
ATOM      6  C   UNL     1       2.338   2.303   3.584  0.00  0.00    +0.030 A 
ATOM      7  C   UNL     1       3.628   2.781   3.422  0.00  0.00    +0.106 A 
ATOM      8  C   UNL     1       4.121   2.975   2.144  0.00  0.00    +0.045 A 
ATOM      9  C   UNL     1       3.325   2.691   1.059  0.00  0.00    +0.041 A 
ATOM     10  S   UNL     1       3.546   2.789  -0.700  0.00  0.00    -0.052 S 
ENDROOT
BRANCH   7  11
ATOM     11  S   UNL     1       4.629   3.138   4.827  0.00  0.00    +0.056 S 
ATOM     12  O   UNL     1       4.122   2.353   5.897  0.00  0.00    -0.153 OA
ATOM     13  O   UNL     1       5.981   3.053   4.395  0.00  0.00    -0.153 OA
BRANCH  11  14
ATOM     14  N   UNL     1       4.360   4.721   5.231  0.00  0.00    -0.204 NA
ATOM     15  H   UNL     1       3.739   5.255   4.712  0.00  0.00    +0.144 HD
ATOM     16  H   UNL     1       4.823   5.114   5.987  0.00  0.00    +0.144 HD
ENDBRANCH  11  14
ENDBRANCH   7  11
BRANCH   1  17
ATOM     17  C   UNL     1       2.276   2.346  -3.470  0.00  0.00    +0.270 C 
ATOM     18  O   UNL     1       3.409   2.763  -3.302  0.00  0.00    -0.268 OA
BRANCH  17  23
ATOM     19  C   UNL     1       2.048   2.295  -7.224  0.00  0.00    +0.121 A 
ATOM     20  C   UNL     1       0.757   1.819  -7.407  0.00  0.00    +0.046 A 
ATOM     21  C   UNL     1      -0.035   1.517  -6.316  0.00  0.00    +0.004 A 
ATOM     22  C   UNL     1       0.455   1.681  -5.036  0.00  0.00    +0.013 A 
ATOM     23  C   UNL     1       1.749   2.164  -4.842  0.00  0.00    +0.042 A 
ATOM     24  C   UNL     1       2.547   2.468  -5.944  0.00  0.00    +0.058 A 
BRANCH  19  25
ATOM     25  O   UNL     1       2.823   2.591  -8.301  0.00  0.00    -0.492 OA
BRANCH  25  26
ATOM     26  C   UNL     1       2.244   2.388  -9.591  0.00  0.00    +0.229 C 
BRANCH  26  27
ATOM     27  C   UNL     1       3.258   2.772 -10.671  0.00  0.00    +0.041 C 
BRANCH  27  28
ATOM     28  C   UNL     1       2.638   2.555 -12.053  0.00  0.00    +0.003 C 
BRANCH  28  30
ATOM     29  C   UNL     1       3.032   2.721 -14.514  0.00  0.00    +0.004 C 
ATOM     30  C   UNL     1       3.652   2.938 -13.133  0.00  0.00    -0.003 C 
ENDBRANCH  28  30
ENDBRANCH  27  28
ENDBRANCH  26  27
ENDBRANCH  25  26
ENDBRANCH  19  25
ENDBRANCH  17  23
ENDBRANCH   1  17
BRANCH   3  31
ATOM     31  C   UNL     1      -0.018   1.468   0.010  0.00  0.00    +0.212 C 
BRANCH  31  32
ATOM     32  C   UNL     1       0.002  -0.004   0.002  0.00  0.00    -0.084 C 
ATOM     33  C   UNL     1       0.018  -1.178  -0.004  0.00  0.00    +0.005 C 
ENDBRANCH  31  32
ENDBRANCH   3  31
TORSDOF 11
