REMARK  Name = ZINC40028084
REMARK  11 active torsions:
REMARK  status: ('A' for Active; 'I' for Inactive)
REMARK    1  A    between atoms: C_1  and  O_2
REMARK    2  A    between atoms: O_2  and  C_3
REMARK    3  A    between atoms: C_5  and  C_13
REMARK    4  A    between atoms: C_7  and  O_11
REMARK    5  A    between atoms: C_8  and  O_9
REMARK    6  A    between atoms: O_9  and  C_10
REMARK    7  A    between atoms: O_11  and  C_12
REMARK    8  A    between atoms: C_15  and  C_24
REMARK    9  A    between atoms: N_19  and  C_20
REMARK   10  A    between atoms: C_20  and  C_21
REMARK   11  A    between atoms: C_24  and  C_26
REMARK                            x       y       z     vdW  Elec       q    Type
REMARK                         _______ _______ _______ _____ _____    ______ ____
ROOT
ATOM      1  C   UNL     1       2.159   0.274  -4.287  0.00  0.00    +0.145 C 
ATOM      2  C   UNL     1       1.215   0.608  -5.418  0.00  0.00    +0.076 C 
ATOM      3  C   UNL     1       1.786   0.142  -6.553  0.00  0.00    +0.249 C 
ATOM      4  C   UNL     1       3.079  -0.492  -6.222  0.00  0.00    +0.288 C 
ATOM      5  O   UNL     1       3.830  -1.005  -7.027  0.00  0.00    -0.266 OA
ATOM      6  N   UNL     1       3.301  -0.416  -4.896  0.00  0.00    -0.280 N 
ATOM      7  O   UNL     1       1.256   0.241  -7.795  0.00  0.00    -0.282 OA
ENDROOT
BRANCH   1  10
ATOM      8  C   UNL     1       0.546  -0.990  -1.111  0.00  0.00    +0.165 A 
ATOM      9  C   UNL     1       1.174  -0.161  -2.028  0.00  0.00    +0.055 A 
ATOM     10  C   UNL     1       1.477  -0.630  -3.293  0.00  0.00    -0.015 A 
ATOM     11  C   UNL     1       1.155  -1.927  -3.648  0.00  0.00    +0.055 A 
ATOM     12  C   UNL     1       0.526  -2.762  -2.737  0.00  0.00    +0.165 A 
ATOM     13  C   UNL     1       0.226  -2.296  -1.462  0.00  0.00    +0.204 A 
BRANCH   8  15
ATOM     14  C   UNL     1       0.506   0.855   0.390  0.00  0.00    +0.277 C 
ATOM     15  O   UNL     1       0.249  -0.527   0.133  0.00  0.00    -0.491 OA
ENDBRANCH   8  15
BRANCH  13  16
ATOM     16  O   UNL     1      -0.385  -3.114  -0.563  0.00  0.00    -0.488 OA
ATOM     17  C   UNL     1      -1.814  -3.112  -0.551  0.00  0.00    +0.277 C 
ENDBRANCH  13  16
BRANCH  12  18
ATOM     18  O   UNL     1       0.209  -4.037  -3.088  0.00  0.00    -0.491 OA
ATOM     19  C   UNL     1       0.553  -4.450  -4.412  0.00  0.00    +0.277 C 
ENDBRANCH  12  18
ENDBRANCH   1  10
BRANCH   2  20
ATOM     20  C   UNL     1      -0.072   1.302  -5.308  0.00  0.00    +0.195 C 
ATOM     21  O   UNL     1      -1.095   0.750  -5.669  0.00  0.00    -0.287 OA
BRANCH  20  22
ATOM     22  C   UNL     1      -0.127   2.671  -4.758  0.00  0.00    +0.026 A 
ATOM     23  C   UNL     1       1.055   3.355  -4.459  0.00  0.00    +0.015 A 
ATOM     24  C   UNL     1       1.000   4.631  -3.946  0.00  0.00    +0.050 A 
ATOM     25  C   UNL     1      -0.228   5.245  -3.724  0.00  0.00    +0.162 A 
ATOM     26  C   UNL     1      -1.410   4.570  -4.022  0.00  0.00    +0.163 A 
ATOM     27  C   UNL     1      -1.361   3.290  -4.542  0.00  0.00    +0.061 A 
ATOM     28  O   UNL     1      -2.619   5.161  -3.818  0.00  0.00    -0.485 OA
ATOM     29  C   UNL     1      -2.640   6.303  -2.955  0.00  0.00    +0.270 C 
ATOM     30  C   UNL     1      -1.484   7.229  -3.356  0.00  0.00    +0.270 C 
ATOM     31  O   UNL     1      -0.258   6.505  -3.213  0.00  0.00    -0.485 OA
ENDBRANCH  20  22
ENDBRANCH   2  20
BRANCH   6  32
ATOM     32  C   UNL     1       4.475  -0.932  -4.187  0.00  0.00    +0.136 C 
BRANCH  32  33
ATOM     33  C   UNL     1       4.221  -2.356  -3.763  0.00  0.00    -0.016 C 
ATOM     34  C   UNL     1       5.055  -3.303  -4.114  0.00  0.00    +0.005 C 
ENDBRANCH  32  33
ENDBRANCH   6  32
TORSDOF 8
