REMARK  Name = ZINC63393997
REMARK  10 active torsions:
REMARK  status: ('A' for Active; 'I' for Inactive)
REMARK    1  A    between atoms: C_1  and  C_2
REMARK    2  A    between atoms: C_2  and  O_3
REMARK    3  A    between atoms: O_3  and  C_4
REMARK    4  A    between atoms: C_7  and  C_10
REMARK    5  A    between atoms: C_11  and  C_12
REMARK    6  A    between atoms: C_11  and  N_26
REMARK    7  A    between atoms: N_14  and  C_15
REMARK    8  A    between atoms: C_15  and  C_16
REMARK    9  A    between atoms: C_16  and  C_17
REMARK   10  A    between atoms: C_27  and  C_29
REMARK                            x       y       z     vdW  Elec       q    Type
REMARK                         _______ _______ _______ _____ _____    ______ ____
ROOT
ATOM      1  C   UNL     1      -2.086  -6.165  -0.454  0.00  0.00    +0.036 C 
ATOM      2  C   UNL     1      -3.239  -6.605   0.103  0.00  0.00    +0.097 C 
ENDROOT
BRANCH   1   6
ATOM      3  C   UNL     1      -1.967  -2.389  -2.382  0.00  0.00    +0.121 A 
ATOM      4  C   UNL     1      -3.126  -3.155  -2.430  0.00  0.00    +0.046 A 
ATOM      5  C   UNL     1      -3.169  -4.382  -1.806  0.00  0.00    +0.011 A 
ATOM      6  C   UNL     1      -2.044  -4.857  -1.122  0.00  0.00    -0.023 A 
ATOM      7  C   UNL     1      -0.880  -4.082  -1.077  0.00  0.00    +0.011 A 
ATOM      8  C   UNL     1      -0.845  -2.859  -1.709  0.00  0.00    +0.046 A 
BRANCH   3   9
ATOM      9  O   UNL     1      -1.929  -1.180  -2.999  0.00  0.00    -0.492 OA
BRANCH   9  11
ATOM     10  C   UNL     1      -2.885   0.617  -4.301  0.00  0.00    +0.048 C 
ATOM     11  C   UNL     1      -3.117  -0.758  -3.672  0.00  0.00    +0.225 C 
ENDBRANCH   9  11
ENDBRANCH   3   9
ENDBRANCH   1   6
BRANCH   2  12
ATOM     12  C   UNL     1      -4.407  -5.717   0.171  0.00  0.00    +0.258 C 
ATOM     13  O   UNL     1      -5.351  -5.895  -0.576  0.00  0.00    -0.269 OA
ATOM     14  N   UNL     1      -4.432  -4.705   1.061  0.00  0.00    -0.310 N 
ATOM     15  H   UNL     1      -3.652  -4.518   1.606  0.00  0.00    +0.149 HD
BRANCH  14  16
ATOM     16  C   UNL     1      -5.639  -3.886   1.204  0.00  0.00    +0.109 C 
BRANCH  16  17
ATOM     17  C   UNL     1      -5.405  -2.816   2.272  0.00  0.00    +0.052 C 
BRANCH  17  18
ATOM     18  C   UNL     1      -6.646  -1.974   2.420  0.00  0.00    -0.040 C 
ATOM     19  C   UNL     1      -7.638  -2.139   3.325  0.00  0.00    -0.001 A 
ATOM     20  C   UNL     1      -7.849  -3.114   4.401  0.00  0.00    +0.010 A 
ATOM     21  C   UNL     1      -8.966  -3.022   5.159  0.00  0.00    +0.001 A 
ATOM     22  C   UNL     1      -9.924  -2.022   4.943  0.00  0.00    +0.002 A 
ATOM     23  C   UNL     1      -9.799  -1.091   3.974  0.00  0.00    +0.026 A 
ATOM     24  C   UNL     1      -8.664  -1.092   3.118  0.00  0.00    +0.043 A 
ATOM     25  N   UNL     1      -8.320  -0.310   2.123  0.00  0.00    -0.380 N 
ATOM     26  C   UNL     1      -7.032  -0.770   1.590  0.00  0.00    +0.144 C 
ATOM     27  H   UNL     1      -8.829   0.448   1.796  0.00  0.00    +0.160 HD
ENDBRANCH  17  18
ENDBRANCH  16  17
ENDBRANCH  14  16
ENDBRANCH   2  12
BRANCH   2  28
ATOM     28  N   UNL     1      -3.318  -7.905   0.613  0.00  0.00    -0.277 N 
ATOM     29  C   UNL     1      -4.452  -8.329   1.206  0.00  0.00    +0.248 C 
ATOM     30  O   UNL     1      -5.436  -7.615   1.214  0.00  0.00    -0.270 OA
ATOM     31  H   UNL     1      -2.557  -8.502   0.540  0.00  0.00    +0.155 HD
BRANCH  29  32
ATOM     32  C   UNL     1      -4.498  -9.660   1.846  0.00  0.00    +0.037 A 
ATOM     33  C   UNL     1      -3.368 -10.479   1.844  0.00  0.00    +0.013 A 
ATOM     34  C   UNL     1      -3.418 -11.720   2.443  0.00  0.00    +0.001 A 
ATOM     35  C   UNL     1      -4.586 -12.154   3.046  0.00  0.00    +0.000 A 
ATOM     36  C   UNL     1      -5.710 -11.347   3.052  0.00  0.00    +0.001 A 
ATOM     37  C   UNL     1      -5.671 -10.101   2.461  0.00  0.00    +0.013 A 
ENDBRANCH  29  32
ENDBRANCH   2  28
TORSDOF 9
