REMARK  Name = ZINC15124655
REMARK  14 active torsions:
REMARK  status: ('A' for Active; 'I' for Inactive)
REMARK    1  A    between atoms: C_1  and  C_2
REMARK    2  A    between atoms: C_3  and  C_25
REMARK    3  A    between atoms: C_4  and  N_10
REMARK    4  A    between atoms: C_6  and  C_7
REMARK    5  A    between atoms: C_11  and  C_13
REMARK    6  A    between atoms: C_13  and  N_14
REMARK    7  A    between atoms: N_14  and  C_15
REMARK    8  A    between atoms: C_20  and  O_21
REMARK    9  A    between atoms: O_21  and  C_22
REMARK   10  A    between atoms: C_25  and  O_27
REMARK   11  A    between atoms: O_27  and  C_28
REMARK   12  A    between atoms: C_28  and  C_29
REMARK   13  A    between atoms: C_29  and  O_30
REMARK   14  A    between atoms: O_30  and  C_31
REMARK                            x       y       z     vdW  Elec       q    Type
REMARK                         _______ _______ _______ _____ _____    ______ ____
ROOT
ATOM      1  C   UNL     1      -1.213  -2.129   2.524  0.00  0.00    +0.046 C 
ATOM      2  C   UNL     1      -1.259  -2.822   1.186  0.00  0.00    -0.015 A 
ATOM      3  C   UNL     1      -1.248  -2.099   0.003  0.00  0.00    +0.091 A 
ATOM      4  C   UNL     1      -1.287  -2.815  -1.198  0.00  0.00    +0.087 A 
ATOM      5  S   UNL     1      -1.346  -4.463  -0.664  0.00  0.00    -0.068 S 
ATOM      6  C   UNL     1      -1.319  -4.186   1.097  0.00  0.00    +0.079 A 
ENDROOT
BRANCH   6   7
ATOM      7  C   UNL     1      -1.347  -5.173   2.178  0.00  0.00    +0.248 C 
ATOM      8  O   UNL     1      -1.322  -4.805   3.338  0.00  0.00    -0.270 OA
ATOM      9  N   UNL     1      -1.400  -6.488   1.889  0.00  0.00    -0.325 N 
ATOM     10  H   UNL     1      -1.420  -6.781   0.965  0.00  0.00    +0.145 HD
ATOM     11  H   UNL     1      -1.419  -7.142   2.606  0.00  0.00    +0.145 HD
ENDBRANCH   6   7
BRANCH   4  12
ATOM     12  N   UNL     1      -1.279  -2.329  -2.491  0.00  0.00    -0.278 N 
ATOM     13  C   UNL     1      -1.322  -3.183  -3.533  0.00  0.00    +0.235 C 
ATOM     14  O   UNL     1      -1.367  -4.379  -3.334  0.00  0.00    -0.274 OA
ATOM     15  H   UNL     1      -1.243  -1.373  -2.650  0.00  0.00    +0.155 HD
BRANCH  13  16
ATOM     16  C   UNL     1      -1.314  -2.653  -4.943  0.00  0.00    +0.198 C 
BRANCH  16  17
ATOM     17  N   UNL     1      -1.367  -3.773  -5.886  0.00  0.00    -0.333 N 
ATOM     18  H   UNL     1      -1.399  -4.684  -5.556  0.00  0.00    +0.147 HD
BRANCH  17  19
ATOM     19  C   UNL     1      -1.369  -3.528  -7.264  0.00  0.00    +0.070 A 
ATOM     20  C   UNL     1      -1.328  -2.225  -7.739  0.00  0.00    +0.026 A 
ATOM     21  C   UNL     1      -1.326  -1.986  -9.100  0.00  0.00    +0.002 A 
ATOM     22  C   UNL     1      -1.375  -3.042  -9.991  0.00  0.00    +0.004 A 
ATOM     23  C   UNL     1      -1.422  -4.343  -9.525  0.00  0.00    +0.048 A 
ATOM     24  C   UNL     1      -1.419  -4.592  -8.163  0.00  0.00    +0.148 A 
BRANCH  24  25
ATOM     25  O   UNL     1      -1.466  -5.871  -7.703  0.00  0.00    -0.432 OA
BRANCH  25  26
ATOM     26  C   UNL     1      -1.516  -6.911  -8.682  0.00  0.00    +0.541 C 
ATOM     27  F   UNL     1      -2.659  -6.753  -9.472  0.00  0.00    -0.166 F 
ATOM     28  F   UNL     1      -0.377  -6.844  -9.491  0.00  0.00    -0.166 F 
ENDBRANCH  25  26
ENDBRANCH  24  25
ENDBRANCH  17  19
ENDBRANCH  16  17
ENDBRANCH  13  16
ENDBRANCH   4  12
BRANCH   3  29
ATOM     29  C   UNL     1      -1.191  -0.632   0.010  0.00  0.00    +0.342 C 
ATOM     30  O   UNL     1      -2.220   0.016   0.023  0.00  0.00    -0.245 OA
BRANCH  29  31
ATOM     31  O   UNL     1       0.002  -0.004   0.002  0.00  0.00    -0.459 OA
BRANCH  31  32
ATOM     32  C   UNL     1      -0.018   1.448   0.010  0.00  0.00    +0.260 C 
BRANCH  32  33
ATOM     33  C   UNL     1       1.418   1.977  -0.001  0.00  0.00    +0.200 C 
BRANCH  33  34
ATOM     34  O   UNL     1       2.050   1.615  -1.230  0.00  0.00    -0.380 OA
ATOM     35  C   UNL     1       3.402   2.063  -1.343  0.00  0.00    +0.194 C 
ENDBRANCH  33  34
ENDBRANCH  32  33
ENDBRANCH  31  32
ENDBRANCH  29  31
ENDBRANCH   3  29
TORSDOF 12
