REMARK  Name = ZINC41569558
REMARK  6 active torsions:
REMARK  status: ('A' for Active; 'I' for Inactive)
REMARK    1  A    between atoms: C_1  and  O_2
REMARK    2  A    between atoms: O_2  and  C_3
REMARK    3  A    between atoms: C_5  and  C_11
REMARK    4  A    between atoms: C_7  and  O_9
REMARK    5  A    between atoms: O_9  and  C_10
REMARK    6  A    between atoms: C_17  and  N_20
REMARK                            x       y       z     vdW  Elec       q    Type
REMARK                         _______ _______ _______ _____ _____    ______ ____
ROOT
ATOM      1  C   UNL     1       1.329  -4.083  -2.296  0.00  0.00    +0.229 A 
ATOM      2  N   UNL     1       0.825  -4.903  -1.409  0.00  0.00    -0.209 NA
ATOM      3  C   UNL     1       1.061  -6.178  -1.810  0.00  0.00    +0.114 A 
ATOM      4  C   UNL     1       0.757  -7.431  -1.267  0.00  0.00    +0.070 A 
ATOM      5  C   UNL     1       1.144  -8.577  -1.929  0.00  0.00    +0.127 A 
ATOM      6  C   UNL     1       1.834  -8.497  -3.131  0.00  0.00    +0.065 A 
ATOM      7  C   UNL     1       2.142  -7.263  -3.681  0.00  0.00    +0.072 A 
ATOM      8  C   UNL     1       1.758  -6.097  -3.024  0.00  0.00    +0.176 A 
ATOM      9  O   UNL     1       1.900  -4.780  -3.296  0.00  0.00    -0.433 OA
ATOM     10  F   UNL     1       0.850  -9.787  -1.403  0.00  0.00    -0.205 F 
ENDROOT
BRANCH   1  13
ATOM     11  C   UNL     1       0.606  -0.607  -1.056  0.00  0.00    +0.124 A 
ATOM     12  C   UNL     1       0.655  -1.990  -1.128  0.00  0.00    +0.059 A 
ATOM     13  C   UNL     1       1.274  -2.607  -2.215  0.00  0.00    +0.044 A 
ATOM     14  C   UNL     1       1.842  -1.830  -3.224  0.00  0.00    +0.059 A 
ATOM     15  C   UNL     1       1.789  -0.448  -3.144  0.00  0.00    +0.124 A 
ATOM     16  C   UNL     1       1.167   0.163  -2.064  0.00  0.00    +0.091 A 
BRANCH  11  18
ATOM     17  C   UNL     1      -0.017   1.425   0.010  0.00  0.00    +0.277 C 
ATOM     18  O   UNL     1       0.002  -0.004   0.002  0.00  0.00    -0.495 OA
ENDBRANCH  11  18
BRANCH  15  19
ATOM     19  O   UNL     1       2.342   0.311  -4.126  0.00  0.00    -0.495 OA
ATOM     20  C   UNL     1       2.251   1.729  -3.980  0.00  0.00    +0.277 C 
ENDBRANCH  15  19
ENDBRANCH   1  13
BRANCH   7  21
ATOM     21  N   UNL     1       2.837  -7.190  -4.892  0.00  0.00    -0.355 N 
ATOM     22  H   UNL     1       3.103  -8.003  -5.349  0.00  0.00    +0.142 HD
ATOM     23  H   UNL     1       3.052  -6.325  -5.276  0.00  0.00    +0.142 HD
ENDBRANCH   7  21
TORSDOF 4
