REMARK  Name = ZINC16840414
REMARK  11 active torsions:
REMARK  status: ('A' for Active; 'I' for Inactive)
REMARK    1  A    between atoms: C_1  and  C_2
REMARK    2  A    between atoms: C_5  and  C_8
REMARK    3  A    between atoms: C_10  and  C_13
REMARK    4  A    between atoms: C_14  and  N_33
REMARK    5  A    between atoms: N_15  and  C_20
REMARK    6  A    between atoms: C_17  and  S_18
REMARK    7  A    between atoms: S_18  and  C_19
REMARK    8  A    between atoms: C_20  and  C_21
REMARK    9  A    between atoms: N_23  and  C_24
REMARK   10  A    between atoms: C_29  and  O_30
REMARK   11  A    between atoms: O_30  and  C_31
REMARK                            x       y       z     vdW  Elec       q    Type
REMARK                         _______ _______ _______ _____ _____    ______ ____
ROOT
ATOM      1  C   UNL     1       2.952   9.552   0.227  0.00  0.00    +0.112 A 
ATOM      2  C   UNL     1       3.236   8.292   0.743  0.00  0.00    +0.129 A 
ATOM      3  N   UNL     1       3.336   7.444  -0.301  0.00  0.00    -0.240 N 
ATOM      4  N   UNL     1       3.121   8.164  -1.482  0.00  0.00    -0.162 NA
ATOM      5  C   UNL     1       2.886   9.416  -1.183  0.00  0.00    +0.133 A 
ENDROOT
BRANCH   1   8
ATOM      6  C   UNL     1       2.394  12.801   1.581  0.00  0.00    +0.202 A 
ATOM      7  N   UNL     1       2.491  11.989   0.508  0.00  0.00    -0.187 NA
ATOM      8  C   UNL     1       2.756  10.788   0.997  0.00  0.00    +0.265 A 
ATOM      9  O   UNL     1       2.818  10.918   2.333  0.00  0.00    -0.332 OA
ATOM     10  N   UNL     1       2.610  12.071   2.646  0.00  0.00    -0.056 NA
BRANCH   6  15
ATOM     11  C   UNL     1       1.269  18.449   1.491  0.00  0.00    +0.044 C 
ATOM     12  C   UNL     1       1.563  16.971   1.514  0.00  0.00    -0.050 A 
ATOM     13  C   UNL     1       1.770  16.329   2.722  0.00  0.00    +0.004 A 
ATOM     14  C   UNL     1       2.040  14.976   2.749  0.00  0.00    +0.012 A 
ATOM     15  C   UNL     1       2.104  14.257   1.558  0.00  0.00    +0.022 A 
ATOM     16  C   UNL     1       1.901  14.910   0.344  0.00  0.00    +0.012 A 
ATOM     17  C   UNL     1       1.626  16.262   0.328  0.00  0.00    +0.004 A 
ENDBRANCH   6  15
ENDBRANCH   1   8
BRANCH   2  18
ATOM     18  N   UNL     1       3.388   7.968   2.079  0.00  0.00    -0.343 N 
ATOM     19  H   UNL     1       3.587   7.054   2.337  0.00  0.00    +0.144 HD
ATOM     20  H   UNL     1       3.296   8.655   2.758  0.00  0.00    +0.144 HD
ENDBRANCH   2  18
BRANCH   5  21
ATOM     21  S   UNL     1       2.552  10.709  -2.333  0.00  0.00    -0.107 S 
ATOM     22  C   UNL     1       2.610   9.886  -3.948  0.00  0.00    +0.091 C 
ENDBRANCH   5  21
BRANCH   3  23
ATOM     23  C   UNL     1       3.626   6.011  -0.215  0.00  0.00    +0.241 C 
BRANCH  23  24
ATOM     24  C   UNL     1       2.335   5.243  -0.093  0.00  0.00    +0.239 C 
ATOM     25  O   UNL     1       1.277   5.835  -0.081  0.00  0.00    -0.273 OA
ATOM     26  N   UNL     1       2.357   3.899   0.001  0.00  0.00    -0.281 N 
ATOM     27  H   UNL     1       3.204   3.431   0.072  0.00  0.00    +0.155 HD
BRANCH  26  28
ATOM     28  C   UNL     1       1.156   3.176  -0.003  0.00  0.00    +0.077 A 
ATOM     29  C   UNL     1       0.024   3.714  -0.597  0.00  0.00    +0.047 A 
ATOM     30  C   UNL     1      -1.160   2.999  -0.599  0.00  0.00    +0.043 A 
ATOM     31  C   UNL     1      -1.217   1.746  -0.015  0.00  0.00    +0.024 A 
ATOM     32  C   UNL     1      -0.093   1.207   0.583  0.00  0.00    +0.049 A 
ATOM     33  C   UNL     1       1.097   1.917   0.589  0.00  0.00    +0.141 A 
ATOM     34 CL   UNL     1      -2.577   3.673  -1.343  0.00  0.00    -0.083 Cl
BRANCH  33  35
ATOM     35  O   UNL     1       2.204   1.386   1.173  0.00  0.00    -0.493 OA
ATOM     36  C   UNL     1       2.070   0.090   1.760  0.00  0.00    +0.277 C 
ENDBRANCH  33  35
ENDBRANCH  26  28
ENDBRANCH  23  24
ENDBRANCH   3  23
TORSDOF 8
