REMARK  Name = ZINC01817112
REMARK  2 active torsions:
REMARK  status: ('A' for Active; 'I' for Inactive)
REMARK    1  A    between atoms: C_4  and  C_7
REMARK    2  A    between atoms: C_17  and  C_19
REMARK                            x       y       z     vdW  Elec       q    Type
REMARK                         _______ _______ _______ _____ _____    ______ ____
ROOT
ATOM      1  C   UNL     1       3.711  -0.707  -0.038  0.00  0.00    +0.019 C 
ATOM      2  C   UNL     1       3.817  -1.591   1.206  0.00  0.00    +0.013 C 
ATOM      3  C   UNL     1       5.150  -2.342   1.187  0.00  0.00    +0.067 C 
ATOM      4  C   UNL     1       5.219  -3.223  -0.065  0.00  0.00    +0.180 C 
ATOM      5  C   UNL     1       5.123  -2.331  -1.308  0.00  0.00    +0.067 C 
ATOM      6  C   UNL     1       3.791  -1.579  -1.292  0.00  0.00    +0.013 C 
ATOM      7  N   UNL     1       6.444  -3.983  -0.083  0.00  0.00    -0.177 NA
ATOM      8  C   UNL     1       6.441  -4.996   1.017  0.00  0.00    +0.138 C 
ATOM      9  C   UNL     1       7.874  -5.451   0.987  0.00  0.00    +0.023 C 
ATOM     10  C   UNL     1       8.548  -4.468   0.361  0.00  0.00    +0.047 C 
ATOM     11  N   UNL     1       7.664  -3.428   0.009  0.00  0.00    -0.273 N 
ATOM     12  C   UNL     1       5.423  -5.998   0.560  0.00  0.00    +0.018 A 
ATOM     13  C   UNL     1       5.587  -7.354   0.660  0.00  0.00    +0.024 A 
ATOM     14  C   UNL     1       4.593  -8.201   0.195  0.00  0.00    +0.018 A 
ATOM     15  C   UNL     1       3.445  -7.671  -0.367  0.00  0.00    +0.019 A 
ATOM     16  C   UNL     1       3.277  -6.304  -0.463  0.00  0.00    +0.047 A 
ATOM     17  C   UNL     1       4.261  -5.447   0.006  0.00  0.00    +0.128 A 
ATOM     18  O   UNL     1       4.097  -4.119  -0.057  0.00  0.00    -0.469 OA
ATOM     19 BR   UNL     1       4.806 -10.075   0.327  0.00  0.00    -0.050 Br
ATOM     20  H   UNL     1       7.891  -2.496  -0.139  0.00  0.00    +0.167 HD
ENDROOT
BRANCH  10  21
ATOM     21  C   UNL     1      10.003  -4.477   0.083  0.00  0.00    -0.003 A 
ATOM     22  C   UNL     1      10.783  -5.565   0.474  0.00  0.00    +0.011 A 
ATOM     23  C   UNL     1      12.138  -5.569   0.212  0.00  0.00    +0.016 A 
ATOM     24  C   UNL     1      12.723  -4.495  -0.436  0.00  0.00    +0.018 A 
ATOM     25  C   UNL     1      11.954  -3.412  -0.826  0.00  0.00    +0.016 A 
ATOM     26  C   UNL     1      10.597  -3.400  -0.575  0.00  0.00    +0.011 A 
ATOM     27 BR   UNL     1      14.581  -4.506  -0.790  0.00  0.00    -0.050 Br
ENDBRANCH  10  21
BRANCH   1  31
ATOM     28  C   UNL     1      -0.017   1.378   0.010  0.00  0.00    +0.000 A 
ATOM     29  C   UNL     1       1.171   2.086   0.002  0.00  0.00    +0.000 A 
ATOM     30  C   UNL     1       2.377   1.411  -0.013  0.00  0.00    +0.004 A 
ATOM     31  C   UNL     1       2.396   0.029  -0.020  0.00  0.00    -0.044 A 
ATOM     32  C   UNL     1       1.208  -0.679  -0.012  0.00  0.00    +0.004 A 
ATOM     33  C   UNL     1       0.002  -0.004   0.002  0.00  0.00    +0.000 A 
ENDBRANCH   1  31
TORSDOF 2
