REMARK  Name = ZINC20881916
REMARK  8 active torsions:
REMARK  status: ('A' for Active; 'I' for Inactive)
REMARK    1  A    between atoms: C_1  and  C_2
REMARK    2  A    between atoms: C_2  and  C_3
REMARK    3  A    between atoms: C_2  and  O_4
REMARK    4  A    between atoms: O_4  and  C_5
REMARK    5  A    between atoms: C_6  and  C_13
REMARK    6  A    between atoms: C_10  and  O_11
REMARK    7  A    between atoms: O_11  and  C_12
REMARK    8  A    between atoms: C_18  and  C_23
REMARK                            x       y       z     vdW  Elec       q    Type
REMARK                         _______ _______ _______ _____ _____    ______ ____
ROOT
ATOM      1  C   UNL     1       1.078  -0.882  -0.029  0.00  0.00    +0.140 C 
ATOM      2  C   UNL     1      -0.234  -0.136  -0.059  0.00  0.00    +0.037 C 
ATOM      3  C   UNL     1      -0.383   1.200  -0.042  0.00  0.00    +0.017 C 
ATOM      4  C   UNL     1      -1.769   1.821  -0.085  0.00  0.00    +0.059 C 
ATOM      5  C   UNL     1      -2.768   0.915   0.631  0.00  0.00    +0.032 C 
ATOM      6  C   UNL     1      -2.770  -0.439  -0.088  0.00  0.00    +0.088 C 
ATOM      7  C   UNL     1      -1.371  -0.978  -0.095  0.00  0.00    +0.163 C 
ATOM      8  O   UNL     1      -1.207  -2.182  -0.134  0.00  0.00    -0.292 OA
ATOM      9  N   UNL     1       0.640   2.090  -0.002  0.00  0.00    -0.316 N 
ATOM     10  C   UNL     1       1.735   2.007   0.851  0.00  0.00    +0.052 A 
ATOM     11  C   UNL     1       2.010   2.979   1.797  0.00  0.00    +0.025 A 
ATOM     12  C   UNL     1       3.179   2.896   2.534  0.00  0.00    +0.002 A 
ATOM     13  C   UNL     1       4.062   1.852   2.328  0.00  0.00    +0.002 A 
ATOM     14  C   UNL     1       3.777   0.867   1.397  0.00  0.00    +0.025 A 
ATOM     15  C   UNL     1       2.599   0.938   0.671  0.00  0.00    +0.049 A 
ATOM     16  N   UNL     1       2.246  -0.053  -0.243  0.00  0.00    -0.331 N 
ATOM     17  H   UNL     1       0.642   2.957  -0.679  0.00  0.00    +0.152 HD
ATOM     18  H   UNL     1       2.869  -0.202  -1.137  0.00  0.00    +0.147 HD
ENDROOT
BRANCH   5  19
ATOM     19  C   UNL     1      -4.145   1.525   0.575  0.00  0.00    -0.043 A 
ATOM     20  C   UNL     1      -4.725   1.808  -0.648  0.00  0.00    +0.007 A 
ATOM     21  C   UNL     1      -5.990   2.363  -0.702  0.00  0.00    +0.038 A 
ATOM     22  C   UNL     1      -6.671   2.645   0.470  0.00  0.00    +0.123 A 
ATOM     23  C   UNL     1      -6.087   2.366   1.694  0.00  0.00    +0.038 A 
ATOM     24  C   UNL     1      -4.825   1.806   1.745  0.00  0.00    +0.007 A 
ATOM     25  F   UNL     1      -7.906   3.192   0.419  0.00  0.00    -0.205 F 
ENDBRANCH   5  19
BRANCH   1  27
ATOM     26  C   UNL     1       1.158  -2.941   1.396  0.00  0.00    +0.168 A 
ATOM     27  C   UNL     1       1.212  -1.559   1.310  0.00  0.00    +0.023 A 
ATOM     28  C   UNL     1       1.383  -0.801   2.454  0.00  0.00    +0.009 A 
ATOM     29  C   UNL     1       1.506  -1.420   3.684  0.00  0.00    +0.004 A 
ATOM     30  C   UNL     1       1.460  -2.798   3.776  0.00  0.00    +0.049 A 
ATOM     31  C   UNL     1       1.289  -3.563   2.634  0.00  0.00    +0.162 A 
BRANCH  31  32
ATOM     32  O   UNL     1       1.242  -4.920   2.723  0.00  0.00    -0.491 OA
ATOM     33  C   UNL     1       1.377  -5.489   4.027  0.00  0.00    +0.277 C 
ENDBRANCH  31  32
BRANCH  26  34
ATOM     34  O   UNL     1       0.985  -3.688   0.273  0.00  0.00    -0.485 OA
BRANCH  34  36
ATOM     35  C   UNL     1       1.788  -5.496  -1.113  0.00  0.00    +0.051 C 
ATOM     36  C   UNL     1       2.159  -4.235  -0.330  0.00  0.00    +0.168 C 
ATOM     37  C   UNL     1       2.771  -3.205  -1.281  0.00  0.00    +0.051 C 
ENDBRANCH  34  36
ENDBRANCH  26  34
ENDBRANCH   1  27
TORSDOF 5
