REMARK  Name = ZINC16694145
REMARK  5 active torsions:
REMARK  status: ('A' for Active; 'I' for Inactive)
REMARK    1  A    between atoms: C_1  and  C_2
REMARK    2  A    between atoms: C_3  and  C_19
REMARK    3  A    between atoms: C_10  and  N_11
REMARK    4  A    between atoms: N_11  and  C_12
REMARK    5  A    between atoms: C_17  and  O_18
REMARK                            x       y       z     vdW  Elec       q    Type
REMARK                         _______ _______ _______ _____ _____    ______ ____
ROOT
ATOM      1  C   UNL     1      -0.155   1.482   0.003  0.00  0.00    +0.046 C 
ATOM      2  C   UNL     1       0.002  -0.017   0.002  0.00  0.00    -0.015 C 
ATOM      3  C   UNL     1       0.073  -0.719  -1.193  0.00  0.00    +0.117 C 
ATOM      4  C   UNL     1       0.227  -2.175  -1.168  0.00  0.00    +0.261 C 
ATOM      5  O   UNL     1       0.289  -2.791  -2.216  0.00  0.00    -0.269 OA
ATOM      6  N   UNL     1       0.300  -2.839  -0.001  0.00  0.00    -0.248 N 
ATOM      7  C   UNL     1       0.235  -2.193   1.177  0.00  0.00    +0.252 C 
ATOM      8  O   UNL     1       0.304  -2.823   2.217  0.00  0.00    -0.270 OA
ATOM      9  C   UNL     1       0.087  -0.733   1.216  0.00  0.00    +0.055 C 
ATOM     10  C   UNL     1       0.026  -0.063   2.435  0.00  0.00    +0.085 C 
ATOM     11  H   UNL     1       0.402  -3.803  -0.009  0.00  0.00    +0.158 HD
ENDROOT
BRANCH  10  12
ATOM     12  N   UNL     1      -0.055  -0.760   3.582  0.00  0.00    -0.317 N 
ATOM     13  H   UNL     1      -0.042  -1.730   3.562  0.00  0.00    +0.152 HD
BRANCH  12  14
ATOM     14  C   UNL     1      -0.158  -0.087   4.804  0.00  0.00    +0.073 A 
ATOM     15  C   UNL     1      -0.182   1.301   4.834  0.00  0.00    +0.027 A 
ATOM     16  C   UNL     1      -0.284   1.963   6.042  0.00  0.00    +0.002 A 
ATOM     17  C   UNL     1      -0.362   1.247   7.223  0.00  0.00    +0.004 A 
ATOM     18  C   UNL     1      -0.338  -0.135   7.202  0.00  0.00    +0.047 A 
ATOM     19  C   UNL     1      -0.242  -0.807   5.994  0.00  0.00    +0.138 A 
BRANCH  19  20
ATOM     20  O   UNL     1      -0.225  -2.167   5.971  0.00  0.00    -0.505 OA
ATOM     21  H   UNL     1       0.661  -2.550   6.032  0.00  0.00    +0.292 HD
ENDBRANCH  19  20
ENDBRANCH  12  14
ENDBRANCH  10  12
BRANCH   3  22
ATOM     22  C   UNL     1      -0.005  -0.024  -2.443  0.00  0.00    +0.105 C 
ATOM     23  N   UNL     1      -0.066   0.527  -3.434  0.00  0.00    -0.191 NA
ENDBRANCH   3  22
TORSDOF 4
