REMARK  Name = ZINC16888833
REMARK  11 active torsions:
REMARK  status: ('A' for Active; 'I' for Inactive)
REMARK    1  A    between atoms: C_1  and  C_2
REMARK    2  A    between atoms: C_2  and  C_3
REMARK    3  A    between atoms: C_3  and  C_4
REMARK    4  A    between atoms: C_4  and  N_5
REMARK    5  A    between atoms: C_7  and  C_15
REMARK    6  A    between atoms: C_15  and  C_16
REMARK    7  A    between atoms: C_16  and  C_18
REMARK    8  A    between atoms: C_16  and  N_19
REMARK    9  A    between atoms: C_20  and  C_22
REMARK   10  A    between atoms: C_32  and  C_34
REMARK   11  A    between atoms: C_32  and  C_35
REMARK                            x       y       z     vdW  Elec       q    Type
REMARK                         _______ _______ _______ _____ _____    ______ ____
ROOT
ATOM      1  C   UNL     1      -4.237   4.293   1.473  0.00  0.00    +0.074 C 
ATOM      2  C   UNL     1      -5.744   4.102   1.284  0.00  0.00    +0.028 C 
ENDROOT
BRANCH   1   3
ATOM      3  N   UNL     1      -3.993   5.510   2.251  0.00  0.00    -0.312 N 
ATOM      4  C   UNL     1      -4.026   5.467   3.598  0.00  0.00    +0.221 C 
ATOM      5  O   UNL     1      -4.257   4.420   4.166  0.00  0.00    -0.275 OA
ATOM      6  H   UNL     1      -3.808   6.347   1.797  0.00  0.00    +0.149 HD
BRANCH   4   7
ATOM      7  C   UNL     1      -3.774   6.719   4.399  0.00  0.00    +0.129 C 
ATOM      8  C   UNL     1      -3.193   6.372   5.788  0.00  0.00    +0.137 C 
ATOM      9  C   UNL     1      -3.991   7.248   6.737  0.00  0.00    +0.308 C 
ATOM     10  O   UNL     1      -3.604   7.711   7.783  0.00  0.00    -0.251 OA
ATOM     11  O   UNL     1      -5.211   7.414   6.193  0.00  0.00    -0.457 OA
ATOM     12  C   UNL     1      -5.101   7.419   4.744  0.00  0.00    +0.130 C 
ATOM     13  C   UNL     1      -5.080   8.855   4.220  0.00  0.00    +0.077 C 
ATOM     14  C   UNL     1      -6.433   9.514   4.504  0.00  0.00    +0.164 C 
ATOM     15  O   UNL     1      -7.473   8.738   3.906  0.00  0.00    -0.374 OA
ATOM     16  C   UNL     1      -7.572   7.404   4.410  0.00  0.00    +0.068 C 
ATOM     17  C   UNL     1      -6.268   6.654   4.122  0.00  0.00    +0.083 C 
ATOM     18  C   UNL     1      -8.736   6.685   3.725  0.00  0.00    +0.041 C 
ATOM     19  C   UNL     1      -7.814   7.445   5.920  0.00  0.00    +0.041 C 
ENDBRANCH   4   7
ENDBRANCH   1   3
BRANCH   1  20
ATOM     20  C   UNL     1      -3.564   4.419   0.105  0.00  0.00    +0.059 C 
BRANCH  20  23
ATOM     21  N   UNL     1      -0.004   5.263   0.523  0.00  0.00    -0.346 N 
ATOM     22  C   UNL     1      -1.321   5.596   0.358  0.00  0.00    +0.090 A 
ATOM     23  C   UNL     1      -2.069   4.484   0.285  0.00  0.00    -0.020 A 
ATOM     24  C   UNL     1      -1.157   3.345   0.413  0.00  0.00    +0.004 A 
ATOM     25  C   UNL     1       0.131   3.893   0.560  0.00  0.00    +0.049 A 
ATOM     26  C   UNL     1       1.223   3.044   0.705  0.00  0.00    +0.027 A 
ATOM     27  C   UNL     1       1.037   1.679   0.704  0.00  0.00    +0.017 A 
ATOM     28  C   UNL     1      -0.234   1.137   0.559  0.00  0.00    +0.019 A 
ATOM     29  C   UNL     1      -1.328   1.960   0.409  0.00  0.00    +0.025 A 
ATOM     30 BR   UNL     1      -0.462  -0.740   0.562  0.00  0.00    -0.050 Br
BRANCH  21  31
ATOM     31  C   UNL     1       1.098   6.221   0.641  0.00  0.00    +0.122 C 
BRANCH  31  32
ATOM     32  C   UNL     1       1.735   6.437  -0.733  0.00  0.00    +0.021 C 
BRANCH  32  34
ATOM     33  C   UNL     1       3.524   7.654  -1.984  0.00  0.00    +0.004 C 
ATOM     34  C   UNL     1       2.886   7.438  -0.610  0.00  0.00    -0.002 C 
ENDBRANCH  32  34
ENDBRANCH  31  32
ENDBRANCH  21  31
ENDBRANCH  20  23
ENDBRANCH   1  20
TORSDOF 7
