REMARK  Name = ZINC06198026
REMARK  7 active torsions:
REMARK  status: ('A' for Active; 'I' for Inactive)
REMARK    1  A    between atoms: C_1  and  C_2
REMARK    2  A    between atoms: C_2  and  C_3
REMARK    3  A    between atoms: C_10  and  C_15
REMARK    4  A    between atoms: C_15  and  C_17
REMARK    5  A    between atoms: C_15  and  N_64
REMARK    6  A    between atoms: N_21  and  C_22
REMARK    7  A    between atoms: C_22  and  C_23
REMARK                            x       y       z     vdW  Elec       q    Type
REMARK                         _______ _______ _______ _____ _____    ______ ____
ROOT
ATOM      1  C   UNL     1       2.849   4.724   1.887  0.00  0.00    +0.039 C 
ENDROOT
BRANCH   1   9
ATOM      2  C   UNL     1       4.826   0.209   5.627  0.00  0.00    -0.047 A 
ATOM      3  C   UNL     1       4.246   0.704   6.788  0.00  0.00    +0.005 A 
ATOM      4  C   UNL     1       3.516   1.872   6.767  0.00  0.00    +0.026 A 
ATOM      5  C   UNL     1       3.356   2.564   5.571  0.00  0.00    +0.049 A 
ATOM      6  C   UNL     1       3.945   2.060   4.396  0.00  0.00    -0.001 A 
ATOM      7  C   UNL     1       4.683   0.872   4.442  0.00  0.00    +0.013 A 
ATOM      8  C   UNL     1       3.772   2.796   3.143  0.00  0.00    +0.017 A 
ATOM      9  C   UNL     1       3.046   3.942   3.159  0.00  0.00    +0.011 A 
ATOM     10  C   UNL     1       2.481   4.408   4.366  0.00  0.00    +0.251 A 
ATOM     11  O   UNL     1       1.837   5.442   4.360  0.00  0.00    -0.268 OA
ATOM     12  N   UNL     1       2.630   3.736   5.521  0.00  0.00    -0.322 N 
ATOM     13  H   UNL     1       2.225   4.082   6.331  0.00  0.00    +0.169 HD
BRANCH   2  15
ATOM     14  C   UNL     1       7.088  -0.748   5.970  0.00  0.00    +0.009 C 
ATOM     15  C   UNL     1       5.622  -1.070   5.676  0.00  0.00    +0.032 C 
ENDBRANCH   2  15
ENDBRANCH   1   9
BRANCH   1  22
ATOM     16  C   UNL     1       2.878   6.967   0.951  0.00  0.00    -0.077 C 
ATOM     17  C   UNL     1       3.516   8.329   0.990  0.00  0.00    -0.019 C 
ATOM     18  C   UNL     1       4.814   8.286   0.158  0.00  0.00    -0.002 C 
ATOM     19  C   UNL     1       5.914   7.661   0.885  0.00  0.00    -0.002 C 
ATOM     20  C   UNL     1       5.607   6.196   1.259  0.00  0.00    -0.019 C 
ATOM     21  C   UNL     1       4.701   6.189   2.460  0.00  0.00    -0.077 C 
ATOM     22  N   UNL     1       3.234   6.121   2.140  0.00  0.00    +0.389 N 
ATOM     23  H   UNL     1       2.710   6.468   2.953  0.00  0.00    -0.080 HD
ENDBRANCH   1  22
BRANCH   1  24
ATOM     24  C   UNL     1       1.393   4.691   1.498  0.00  0.00    +0.143 A 
ATOM     25  N   UNL     1       0.418   5.363   2.059  0.00  0.00    -0.115 NA
ATOM     26  N   UNL     1      -0.675   5.066   1.445  0.00  0.00    -0.023 NA
ATOM     27  N   UNL     1      -0.422   4.225   0.503  0.00  0.00    -0.044 NA
ATOM     28  N   UNL     1       0.842   3.965   0.507  0.00  0.00    -0.228 N 
BRANCH  28  29
ATOM     29  C   UNL     1       1.546   3.055  -0.400  0.00  0.00    +0.178 C 
BRANCH  29  30
ATOM     30  C   UNL     1       1.571   1.650   0.204  0.00  0.00    +0.140 C 
ATOM     31  C   UNL     1       2.322   0.667  -0.729  0.00  0.00    +0.035 C 
ATOM     32  C   UNL     1       1.712  -0.696  -0.322  0.00  0.00    +0.031 C 
ATOM     33  C   UNL     1       0.374  -0.328   0.347  0.00  0.00    +0.160 C 
ATOM     34  O   UNL     1       0.237   1.101   0.269  0.00  0.00    -0.375 OA
ENDBRANCH  29  30
ENDBRANCH  28  29
ENDBRANCH   1  24
TORSDOF 6
