REMARK  Name = ZINC38615755
REMARK  9 active torsions:
REMARK  status: ('A' for Active; 'I' for Inactive)
REMARK    1  A    between atoms: C_1  and  C_2
REMARK    2  A    between atoms: C_2  and  C_4
REMARK    3  A    between atoms: C_2  and  O_27
REMARK    4  A    between atoms: N_6  and  C_7
REMARK    5  A    between atoms: C_15  and  C_16
REMARK    6  A    between atoms: C_16  and  C_18
REMARK    7  A    between atoms: C_21  and  O_25
REMARK    8  A    between atoms: O_25  and  C_26
REMARK    9  A    between atoms: O_27  and  C_28
REMARK                            x       y       z     vdW  Elec       q    Type
REMARK                         _______ _______ _______ _____ _____    ______ ____
ROOT
ATOM      1  C   UNL     1       0.724  -0.182  -4.110  0.00  0.00    +0.091 A 
ATOM      2  C   UNL     1       0.408   0.476  -5.383  0.00  0.00    +0.042 A 
ATOM      3  C   UNL     1      -0.511   1.454  -5.767  0.00  0.00    +0.013 A 
ATOM      4  C   UNL     1      -0.558   1.866  -7.070  0.00  0.00    +0.001 A 
ATOM      5  C   UNL     1       0.302   1.317  -8.011  0.00  0.00    +0.004 A 
ATOM      6  C   UNL     1       1.215   0.350  -7.651  0.00  0.00    +0.047 A 
ATOM      7  C   UNL     1       1.282  -0.084  -6.332  0.00  0.00    +0.138 A 
ATOM      8  O   UNL     1       2.054  -0.992  -5.703  0.00  0.00    -0.450 OA
ATOM      9  C   UNL     1       1.748  -1.065  -4.388  0.00  0.00    +0.197 A 
ENDROOT
BRANCH   1  12
ATOM     10  C   UNL     1      -0.343   1.269  -2.568  0.00  0.00    +0.258 C 
ATOM     11  O   UNL     1      -0.313   2.155  -3.395  0.00  0.00    -0.271 OA
ATOM     12  N   UNL     1       0.121   0.042  -2.879  0.00  0.00    -0.279 N 
ATOM     13  H   UNL     1       0.034  -0.685  -2.242  0.00  0.00    +0.155 HD
BRANCH  10  15
ATOM     14  C   UNL     1      -2.167   0.706  -0.986  0.00  0.00    +0.062 C 
ATOM     15  C   UNL     1      -0.901   1.538  -1.194  0.00  0.00    +0.256 C 
BRANCH  15  16
ATOM     16  O   UNL     1      -1.217   2.926  -1.073  0.00  0.00    -0.477 OA
BRANCH  16  17
ATOM     17  C   UNL     1      -1.258   3.442   0.184  0.00  0.00    +0.157 A 
ATOM     18  C   UNL     1      -0.920   2.651   1.271  0.00  0.00    +0.048 A 
ATOM     19  C   UNL     1      -0.962   3.177   2.548  0.00  0.00    +0.004 A 
ATOM     20  C   UNL     1      -1.340   4.492   2.744  0.00  0.00    +0.003 A 
ATOM     21  C   UNL     1      -1.679   5.285   1.663  0.00  0.00    +0.042 A 
ATOM     22  C   UNL     1      -1.632   4.765   0.382  0.00  0.00    +0.165 A 
ATOM     23  F   UNL     1      -1.957   5.542  -0.675  0.00  0.00    -0.202 F 
ENDBRANCH  16  17
ENDBRANCH  15  16
ENDBRANCH  10  15
ENDBRANCH   1  12
BRANCH   9  24
ATOM     24  C   UNL     1       2.377  -1.915  -3.445  0.00  0.00    +0.230 C 
ATOM     25  O   UNL     1       2.088  -1.834  -2.264  0.00  0.00    -0.283 OA
BRANCH  24  26
ATOM     26  C   UNL     1       3.384  -2.898  -3.893  0.00  0.00    +0.027 A 
ATOM     27  C   UNL     1       3.822  -2.897  -5.220  0.00  0.00    +0.015 A 
ATOM     28  C   UNL     1       4.761  -3.815  -5.635  0.00  0.00    +0.047 A 
ATOM     29  C   UNL     1       5.273  -4.742  -4.736  0.00  0.00    +0.134 A 
ATOM     30  C   UNL     1       4.840  -4.747  -3.414  0.00  0.00    +0.060 A 
ATOM     31  C   UNL     1       3.905  -3.828  -2.990  0.00  0.00    +0.030 A 
ATOM     32 BR   UNL     1       5.541  -6.012  -2.196  0.00  0.00    -0.046 Br
BRANCH  29  33
ATOM     33  O   UNL     1       6.198  -5.646  -5.148  0.00  0.00    -0.494 OA
ATOM     34  C   UNL     1       6.598  -5.585  -6.519  0.00  0.00    +0.277 C 
ENDBRANCH  29  33
ENDBRANCH  24  26
ENDBRANCH   9  24
TORSDOF 7
