REMARK  Name = ZINC00708904
REMARK  5 active torsions:
REMARK  status: ('A' for Active; 'I' for Inactive)
REMARK    1  A    between atoms: C_11  and  C_21
REMARK    2  A    between atoms: N_12  and  C_13
REMARK    3  A    between atoms: C_13  and  C_14
REMARK    4  A    between atoms: C_14  and  N_52
REMARK    5  A    between atoms: C_15  and  N_52
REMARK                            x       y       z     vdW  Elec       q    Type
REMARK                         _______ _______ _______ _____ _____    ______ ____
ROOT
ATOM      1  C   UNL     1       2.770   6.777  -8.646  0.00  0.00    +0.002 A 
ATOM      2  C   UNL     1       1.805   6.473  -9.595  0.00  0.00    +0.002 A 
ATOM      3  C   UNL     1       0.878   5.479  -9.356  0.00  0.00    +0.028 A 
ATOM      4  C   UNL     1       0.910   4.778  -8.160  0.00  0.00    +0.075 A 
ATOM      5  C   UNL     1       1.886   5.082  -7.195  0.00  0.00    +0.091 A 
ATOM      6  C   UNL     1       2.818   6.092  -7.453  0.00  0.00    +0.030 A 
ATOM      7  N   UNL     1       1.681   4.251  -6.143  0.00  0.00    -0.212 NA
ATOM      8  C   UNL     1       0.655   3.464  -6.394  0.00  0.00    +0.217 A 
ATOM      9  N   UNL     1       0.147   3.752  -7.627  0.00  0.00    -0.283 N 
ATOM     10  C   UNL     1      -0.928   2.912  -7.861  0.00  0.00    +0.121 A 
ATOM     11  C   UNL     1      -1.080   2.113  -6.793  0.00  0.00    +0.068 A 
ATOM     12  N   UNL     1      -0.102   2.447  -5.861  0.00  0.00    -0.311 N 
ENDROOT
BRANCH  11  13
ATOM     13  C   UNL     1      -2.110   1.063  -6.633  0.00  0.00    +0.000 A 
ATOM     14  C   UNL     1      -2.716   0.500  -7.757  0.00  0.00    +0.011 A 
ATOM     15  C   UNL     1      -3.673  -0.481  -7.602  0.00  0.00    +0.016 A 
ATOM     16  C   UNL     1      -4.038  -0.902  -6.335  0.00  0.00    +0.018 A 
ATOM     17  C   UNL     1      -3.443  -0.344  -5.216  0.00  0.00    +0.016 A 
ATOM     18  C   UNL     1      -2.482   0.635  -5.359  0.00  0.00    +0.011 A 
ATOM     19 BR   UNL     1      -5.355  -2.244  -6.131  0.00  0.00    -0.050 Br
ENDBRANCH  11  13
BRANCH  12  20
ATOM     20  C   UNL     1       0.091   1.821  -4.551  0.00  0.00    +0.106 C 
BRANCH  20  21
ATOM     21  C   UNL     1      -0.617   2.653  -3.480  0.00  0.00    -0.060 C 
BRANCH  21  22
ATOM     22  N   UNL     1      -0.472   1.984  -2.173  0.00  0.00    +0.382 N 
ATOM     23  H   UNL     1       0.526   1.898  -1.945  0.00  0.00    -0.085 HD
ATOM     24  H   UNL     1      -0.893   1.048  -2.223  0.00  0.00    -0.085 HD
BRANCH  22  25
ATOM     25  C   UNL     1      -1.147   2.765  -1.119  0.00  0.00    -0.072 C 
ATOM     26  C   UNL     1      -0.501   2.449   0.231  0.00  0.00    -0.016 C 
ATOM     27  C   UNL     1      -1.198   3.253   1.330  0.00  0.00    -0.002 C 
ATOM     28  C   UNL     1      -2.681   2.879   1.373  0.00  0.00    -0.000 C 
ATOM     29  C   UNL     1      -3.327   3.195   0.023  0.00  0.00    -0.002 C 
ATOM     30  C   UNL     1      -2.629   2.391  -1.076  0.00  0.00    -0.016 C 
ENDBRANCH  22  25
ENDBRANCH  21  22
ENDBRANCH  20  21
ENDBRANCH  12  20
TORSDOF 5
