REMARK  Name = ZINC38870162
REMARK  10 active torsions:
REMARK  status: ('A' for Active; 'I' for Inactive)
REMARK    1  A    between atoms: C_1  and  C_2
REMARK    2  A    between atoms: C_4  and  N_9
REMARK    3  A    between atoms: C_5  and  C_8
REMARK    4  A    between atoms: C_10  and  C_12
REMARK    5  A    between atoms: C_12  and  S_13
REMARK    6  A    between atoms: S_13  and  C_14
REMARK    7  A    between atoms: C_18  and  C_27
REMARK    8  A    between atoms: N_20  and  C_21
REMARK    9  A    between atoms: C_27  and  O_28
REMARK   10  A    between atoms: O_28  and  C_29
REMARK                            x       y       z     vdW  Elec       q    Type
REMARK                         _______ _______ _______ _____ _____    ______ ____
ROOT
ATOM      1  C   UNL     1       0.457  -1.179  -7.845  0.00  0.00    +0.217 C 
ATOM      2  N   UNL     1       0.589   0.255  -8.190  0.00  0.00    -0.226 NA
ATOM      3  N   UNL     1      -0.689   0.595  -8.835  0.00  0.00    -0.231 NA
ATOM      4  C   UNL     1      -1.678  -0.186  -8.048  0.00  0.00    +0.195 C 
ATOM      5  N   UNL     1      -0.987  -1.459  -7.755  0.00  0.00    -0.285 N 
ATOM      6  H   UNL     1       1.363   0.406  -8.820  0.00  0.00    +0.143 HD
ATOM      7  H   UNL     1      -0.692   0.312  -9.803  0.00  0.00    +0.143 HD
ENDROOT
BRANCH   5   8
ATOM      8  C   UNL     1      -1.583  -2.685  -7.452  0.00  0.00    +0.033 A 
ATOM      9  C   UNL     1      -2.967  -2.795  -7.410  0.00  0.00    +0.023 A 
ATOM     10  C   UNL     1      -3.553  -4.009  -7.111  0.00  0.00    +0.002 A 
ATOM     11  C   UNL     1      -2.764  -5.115  -6.853  0.00  0.00    +0.000 A 
ATOM     12  C   UNL     1      -1.386  -5.009  -6.893  0.00  0.00    +0.002 A 
ATOM     13  C   UNL     1      -0.793  -3.799  -7.197  0.00  0.00    +0.023 A 
ENDBRANCH   5   8
BRANCH   1  14
ATOM     14  S   UNL     1       1.255  -1.510  -6.250  0.00  0.00    -0.112 S 
BRANCH  14  15
ATOM     15  C   UNL     1       0.373  -0.434  -5.086  0.00  0.00    +0.168 C 
BRANCH  15  17
ATOM     16  N   UNL     1       0.424   0.059  -2.663  0.00  0.00    -0.285 N 
ATOM     17  C   UNL     1       0.983  -0.571  -3.715  0.00  0.00    +0.227 C 
ATOM     18  O   UNL     1       1.977  -1.247  -3.558  0.00  0.00    -0.275 OA
ATOM     19  H   UNL     1      -0.323   0.662  -2.800  0.00  0.00    +0.155 HD
BRANCH  16  22
ATOM     20  C   UNL     1       1.812   2.037  -0.567  0.00  0.00    +0.041 C 
ATOM     21  C   UNL     1       0.953   0.818  -0.226  0.00  0.00    +0.171 C 
ATOM     22  C   UNL     1       0.913  -0.155  -1.392  0.00  0.00    +0.059 C 
ATOM     23  C   UNL     1       1.469  -1.278  -0.890  0.00  0.00    +0.079 C 
ATOM     24  N   UNL     1       1.823  -1.099   0.388  0.00  0.00    -0.157 NA
ATOM     25  N   UNL     1       1.578   0.023   0.846  0.00  0.00    -0.178 NA
ATOM     26  C   UNL     1       1.663  -2.557  -1.662  0.00  0.00    +0.069 C 
ENDBRANCH  16  22
ENDBRANCH  15  17
ENDBRANCH  14  15
ENDBRANCH   1  14
BRANCH   4  27
ATOM     27  C   UNL     1      -2.030   0.547  -6.752  0.00  0.00    +0.268 C 
BRANCH  27  28
ATOM     28  O   UNL     1      -2.729   1.754  -7.061  0.00  0.00    -0.488 OA
BRANCH  28  29
ATOM     29  C   UNL     1      -3.037   2.572  -6.022  0.00  0.00    +0.128 A 
ATOM     30  C   UNL     1      -2.594   2.280  -4.762  0.00  0.00    +0.046 A 
ATOM     31  C   UNL     1      -2.902   3.109  -3.687  0.00  0.00    +0.004 A 
ATOM     32  C   UNL     1      -3.652   4.232  -3.857  0.00  0.00    +0.009 A 
ATOM     33  C   UNL     1      -4.126   4.567  -5.137  0.00  0.00    -0.014 A 
ATOM     34  C   UNL     1      -3.812   3.730  -6.236  0.00  0.00    +0.024 A 
ATOM     35  C   UNL     1      -4.282   4.067  -7.516  0.00  0.00    +0.012 A 
ATOM     36  C   UNL     1      -5.027   5.194  -7.684  0.00  0.00    +0.001 A 
ATOM     37  C   UNL     1      -5.332   6.020  -6.605  0.00  0.00    +0.001 A 
ATOM     38  C   UNL     1      -4.903   5.719  -5.349  0.00  0.00    +0.008 A 
ENDBRANCH  28  29
ENDBRANCH  27  28
ENDBRANCH   4  27
TORSDOF 8
