REMARK  Name = ZINC08438962
REMARK  9 active torsions:
REMARK  status: ('A' for Active; 'I' for Inactive)
REMARK    1  A    between atoms: C_1  and  C_2
REMARK    2  A    between atoms: C_3  and  C_29
REMARK    3  A    between atoms: C_6  and  N_15
REMARK    4  A    between atoms: N_15  and  S_16
REMARK    5  A    between atoms: S_16  and  C_19
REMARK    6  A    between atoms: C_29  and  O_31
REMARK    7  A    between atoms: O_31  and  C_32
REMARK    8  A    between atoms: C_32  and  C_33
REMARK    9  A    between atoms: C_32  and  C_34
REMARK                            x       y       z     vdW  Elec       q    Type
REMARK                         _______ _______ _______ _____ _____    ______ ____
ROOT
ATOM      1  C   UNL     1      -5.267   5.988  -1.462  0.00  0.00    +0.087 C 
ATOM      2  C   UNL     1      -4.362   4.866  -1.022  0.00  0.00    +0.117 A 
ATOM      3  C   UNL     1      -3.073   4.691  -1.429  0.00  0.00    +0.107 A 
ATOM      4  C   UNL     1      -2.599   3.473  -0.742  0.00  0.00    +0.037 A 
ATOM      5  C   UNL     1      -1.383   2.775  -0.739  0.00  0.00    +0.037 A 
ATOM      6  C   UNL     1      -1.228   1.649   0.015  0.00  0.00    +0.057 A 
ATOM      7  C   UNL     1      -2.304   1.171   0.800  0.00  0.00    +0.008 A 
ATOM      8  C   UNL     1      -2.164   0.017   1.585  0.00  0.00    +0.010 A 
ATOM      9  C   UNL     1      -3.213  -0.420   2.338  0.00  0.00    +0.001 A 
ATOM     10  C   UNL     1      -4.425   0.266   2.343  0.00  0.00    +0.001 A 
ATOM     11  C   UNL     1      -4.594   1.392   1.595  0.00  0.00    +0.012 A 
ATOM     12  C   UNL     1      -3.534   1.870   0.809  0.00  0.00    +0.027 A 
ATOM     13  C   UNL     1      -3.678   3.034   0.023  0.00  0.00    +0.144 A 
ATOM     14  O   UNL     1      -4.701   3.890  -0.174  0.00  0.00    -0.459 OA
ENDROOT
BRANCH   6  15
ATOM     15  N   UNL     1      -0.011   0.966   0.007  0.00  0.00    -0.216 N 
ATOM     16  H   UNL     1       0.002  -0.002   0.064  0.00  0.00    +0.174 HD
BRANCH  15  17
ATOM     17  S   UNL     1       1.411   1.808  -0.105  0.00  0.00    +0.072 S 
ATOM     18  O   UNL     1       2.457   0.859   0.050  0.00  0.00    -0.150 OA
ATOM     19  O   UNL     1       1.300   2.640  -1.251  0.00  0.00    -0.150 OA
BRANCH  17  20
ATOM     20  C   UNL     1       1.493   2.880   1.291  0.00  0.00    +0.109 A 
ATOM     21  C   UNL     1       0.966   4.167   1.200  0.00  0.00    +0.029 A 
ATOM     22  C   UNL     1       1.009   5.018   2.261  0.00  0.00    +0.010 A 
ATOM     23  C   UNL     1       1.602   4.600   3.464  0.00  0.00    -0.018 A 
ATOM     24  C   UNL     1       1.670   5.453   4.579  0.00  0.00    +0.008 A 
ATOM     25  C   UNL     1       2.252   5.014   5.728  0.00  0.00    +0.001 A 
ATOM     26  C   UNL     1       2.783   3.729   5.818  0.00  0.00    +0.001 A 
ATOM     27  C   UNL     1       2.735   2.875   4.759  0.00  0.00    +0.008 A 
ATOM     28  C   UNL     1       2.142   3.293   3.555  0.00  0.00    -0.016 A 
ATOM     29  C   UNL     1       2.074   2.440   2.440  0.00  0.00    +0.037 A 
ENDBRANCH  17  20
ENDBRANCH  15  17
ENDBRANCH   6  15
BRANCH   3  30
ATOM     30  C   UNL     1      -2.313   5.539  -2.358  0.00  0.00    +0.343 C 
ATOM     31  O   UNL     1      -2.333   5.303  -3.550  0.00  0.00    -0.245 OA
BRANCH  30  32
ATOM     32  O   UNL     1      -1.594   6.577  -1.888  0.00  0.00    -0.458 OA
BRANCH  32  33
ATOM     33  C   UNL     1      -0.868   7.371  -2.863  0.00  0.00    +0.171 C 
ATOM     34  C   UNL     1      -1.759   8.513  -3.357  0.00  0.00    +0.052 C 
ATOM     35  C   UNL     1       0.391   7.951  -2.213  0.00  0.00    +0.052 C 
ENDBRANCH  32  33
ENDBRANCH  30  32
ENDBRANCH   3  30
TORSDOF 6
