REMARK  Name = ZINC08837997
REMARK  5 active torsions:
REMARK  status: ('A' for Active; 'I' for Inactive)
REMARK    1  A    between atoms: C_4  and  C_7
REMARK    2  A    between atoms: C_7  and  N_54
REMARK    3  A    between atoms: C_17  and  C_22
REMARK    4  A    between atoms: C_22  and  S_23
REMARK    5  A    between atoms: S_23  and  C_24
REMARK                            x       y       z     vdW  Elec       q    Type
REMARK                         _______ _______ _______ _____ _____    ______ ____
ROOT
ATOM      1  C   UNL     1       3.982   5.141  -1.440  0.00  0.00    -0.073 C 
ATOM      2  C   UNL     1       4.633   5.110  -2.825  0.00  0.00    +0.018 C 
ATOM      3  C   UNL     1       3.537   5.299  -3.871  0.00  0.00    -0.028 A 
ATOM      4  C   UNL     1       2.242   5.098  -3.533  0.00  0.00    -0.021 A 
ATOM      5  S   UNL     1       1.328   5.422  -5.014  0.00  0.00    -0.075 S 
ATOM      6  C   UNL     1       2.687   5.824  -6.084  0.00  0.00    +0.114 A 
ATOM      7  C   UNL     1       3.809   5.692  -5.249  0.00  0.00    +0.055 A 
ATOM      8  C   UNL     1       5.105   5.974  -5.897  0.00  0.00    +0.168 A 
ATOM      9  N   UNL     1       6.353   5.965  -5.472  0.00  0.00    -0.210 NA
ATOM     10  C   UNL     1       7.164   6.300  -6.471  0.00  0.00    +0.162 A 
ATOM     11  N   UNL     1       6.458   6.531  -7.551  0.00  0.00    -0.148 NA
ATOM     12  N   UNL     1       5.112   6.329  -7.215  0.00  0.00    -0.201 N 
ATOM     13  C   UNL     1       3.949   6.420  -7.915  0.00  0.00    +0.226 A 
ATOM     14  N   UNL     1       2.795   6.175  -7.359  0.00  0.00    -0.228 NA
ATOM     15  C   UNL     1       1.724   4.690  -2.189  0.00  0.00    -0.035 C 
ATOM     16  N   UNL     1       2.867   4.172  -1.400  0.00  0.00    +0.386 N 
ATOM     17  H   UNL     1       3.181   3.284  -1.809  0.00  0.00    -0.081 HD
ENDROOT
BRANCH  16  18
ATOM     18  C   UNL     1       2.451   3.937  -0.001  0.00  0.00    -0.043 C 
BRANCH  18  22
ATOM     19  C   UNL     1      -1.219   1.751   0.017  0.00  0.00    +0.000 A 
ATOM     20  C   UNL     1      -0.013   1.076   0.008  0.00  0.00    +0.000 A 
ATOM     21  C   UNL     1       1.175   1.783   0.000  0.00  0.00    +0.002 A 
ATOM     22  C   UNL     1       1.156   3.165   0.008  0.00  0.00    -0.064 A 
ATOM     23  C   UNL     1      -0.050   3.840   0.023  0.00  0.00    +0.002 A 
ATOM     24  C   UNL     1      -1.238   3.133   0.030  0.00  0.00    +0.000 A 
ENDBRANCH  18  22
ENDBRANCH  16  18
BRANCH  10  25
ATOM     25  C   UNL     1       8.665   6.401  -6.375  0.00  0.00    +0.154 C 
BRANCH  25  26
ATOM     26  S   UNL     1       9.403   4.798  -6.777  0.00  0.00    -0.091 S 
BRANCH  26  27
ATOM     27  C   UNL     1      11.111   5.192  -6.592  0.00  0.00    +0.136 A 
ATOM     28  N   UNL     1      12.159   4.416  -6.755  0.00  0.00    -0.233 NA
ATOM     29  C   UNL     1      13.423   4.858  -6.578  0.00  0.00    +0.079 A 
ATOM     30  C   UNL     1      14.629   4.134  -6.721  0.00  0.00    +0.029 A 
ATOM     31  C   UNL     1      15.839   4.739  -6.503  0.00  0.00    +0.002 A 
ATOM     32  C   UNL     1      15.927   6.074  -6.137  0.00  0.00    +0.001 A 
ATOM     33  C   UNL     1      14.767   6.813  -5.988  0.00  0.00    +0.017 A 
ATOM     34  C   UNL     1      13.551   6.215  -6.205  0.00  0.00    +0.040 A 
ATOM     35  S   UNL     1      11.858   6.752  -6.143  0.00  0.00    -0.061 S 
ENDBRANCH  26  27
ENDBRANCH  25  26
ENDBRANCH  10  25
TORSDOF 5
