REMARK  Name = ZINC39727138
REMARK  6 active torsions:
REMARK  status: ('A' for Active; 'I' for Inactive)
REMARK    1  A    between atoms: C_1  and  C_2
REMARK    2  A    between atoms: C_2  and  C_4
REMARK    3  A    between atoms: C_2  and  N_10
REMARK    4  A    between atoms: C_11  and  C_13
REMARK    5  A    between atoms: N_15  and  C_32
REMARK    6  A    between atoms: N_22  and  C_25
REMARK                            x       y       z     vdW  Elec       q    Type
REMARK                         _______ _______ _______ _____ _____    ______ ____
ROOT
ATOM      1  C   UNL     1      -3.188  -1.092  -0.845  0.00  0.00    +0.072 C 
ATOM      2  C   UNL     1      -3.589  -1.629  -2.059  0.00  0.00    +0.085 C 
ATOM      3  N   UNL     1      -4.770  -2.274  -1.959  0.00  0.00    -0.322 N 
ATOM      4  C   UNL     1      -5.320  -1.968  -0.646  0.00  0.00    +0.208 C 
ATOM      5  C   UNL     1      -4.118  -1.450   0.138  0.00  0.00    +0.078 C 
ATOM      6  N   UNL     1      -4.100  -1.435   1.446  0.00  0.00    -0.164 NA
ATOM      7  C   UNL     1      -5.015  -2.182   2.095  0.00  0.00    +0.337 C 
ATOM      8  O   UNL     1      -5.189  -2.002   3.286  0.00  0.00    -0.250 OA
ATOM      9  N   UNL     1      -5.742  -3.121   1.464  0.00  0.00    -0.191 N 
ATOM     10  C   UNL     1      -5.873  -3.146   0.104  0.00  0.00    +0.254 C 
ATOM     11  O   UNL     1      -6.383  -4.082  -0.474  0.00  0.00    -0.272 OA
ATOM     12  C   UNL     1      -5.384  -3.124  -2.982  0.00  0.00    +0.130 C 
ENDROOT
BRANCH   9  13
ATOM     13  C   UNL     1      -6.410  -4.091   2.224  0.00  0.00    +0.046 A 
ATOM     14  C   UNL     1      -7.729  -3.886   2.607  0.00  0.00    +0.025 A 
ATOM     15  C   UNL     1      -8.385  -4.843   3.357  0.00  0.00    +0.022 A 
ATOM     16  C   UNL     1      -7.730  -6.005   3.725  0.00  0.00    +0.041 A 
ATOM     17  C   UNL     1      -6.415  -6.211   3.344  0.00  0.00    +0.022 A 
ATOM     18  C   UNL     1      -5.757  -5.260   2.590  0.00  0.00    +0.025 A 
ATOM     19 CL   UNL     1      -8.557  -7.205   4.668  0.00  0.00    -0.084 Cl
ENDBRANCH   9  13
BRANCH   1  21
ATOM     20  N   UNL     1      -1.692   0.177   0.609  0.00  0.00    -0.305 N 
ATOM     21  C   UNL     1      -1.978  -0.285  -0.624  0.00  0.00    +0.247 C 
ATOM     22  O   UNL     1      -1.237  -0.034  -1.555  0.00  0.00    -0.270 OA
ATOM     23  H   UNL     1      -2.283  -0.024   1.351  0.00  0.00    +0.150 HD
BRANCH  20  25
ATOM     24  C   UNL     1      -0.787   2.447   0.510  0.00  0.00    +0.033 C 
ATOM     25  C   UNL     1      -0.487   0.981   0.829  0.00  0.00    +0.100 C 
BRANCH  25  26
ATOM     26  C   UNL     1      -0.056   0.858   2.268  0.00  0.00    -0.027 A 
ATOM     27  C   UNL     1      -1.004   0.842   3.274  0.00  0.00    +0.005 A 
ATOM     28  C   UNL     1      -0.609   0.729   4.594  0.00  0.00    +0.000 A 
ATOM     29  C   UNL     1       0.734   0.632   4.907  0.00  0.00    +0.000 A 
ATOM     30  C   UNL     1       1.682   0.648   3.901  0.00  0.00    +0.000 A 
ATOM     31  C   UNL     1       1.286   0.756   2.581  0.00  0.00    +0.005 A 
ENDBRANCH  25  26
ENDBRANCH  20  25
ENDBRANCH   1  21
TORSDOF 4
