REMARK  Name = ZINC06054234
REMARK  9 active torsions:
REMARK  status: ('A' for Active; 'I' for Inactive)
REMARK    1  A    between atoms: C_2  and  C_3
REMARK    2  A    between atoms: C_3  and  N_4
REMARK    3  A    between atoms: N_4  and  C_5
REMARK    4  A    between atoms: C_6  and  C_25
REMARK    5  A    between atoms: C_7  and  N_24
REMARK    6  A    between atoms: C_8  and  C_10
REMARK    7  A    between atoms: C_10  and  C_12
REMARK    8  A    between atoms: C_12  and  C_22
REMARK    9  A    between atoms: N_27  and  C_28
REMARK                            x       y       z     vdW  Elec       q    Type
REMARK                         _______ _______ _______ _____ _____    ______ ____
ROOT
ATOM      1  C   UNL     1       2.492  -2.724   1.276  0.00  0.00    +0.080 A 
ATOM      2  C   UNL     1       2.784  -3.528   2.378  0.00  0.00    +0.086 A 
ATOM      3  C   UNL     1       4.062  -4.082   2.455  0.00  0.00    +0.057 A 
ATOM      4  C   UNL     1       4.919  -3.767   1.409  0.00  0.00    +0.083 A 
ATOM      5  S   UNL     1       3.908  -2.729   0.374  0.00  0.00    -0.068 S 
ENDROOT
BRANCH   2   6
ATOM      6  C   UNL     1       1.783  -3.781   3.417  0.00  0.00    +0.252 C 
ATOM      7  O   UNL     1       1.032  -4.734   3.320  0.00  0.00    -0.270 OA
ATOM      8  N   UNL     1       1.695  -2.960   4.482  0.00  0.00    -0.281 N 
ATOM      9  H   UNL     1       2.342  -2.247   4.599  0.00  0.00    +0.155 HD
BRANCH   8  10
ATOM     10  C   UNL     1       0.670  -3.136   5.418  0.00  0.00    +0.034 A 
ATOM     11  C   UNL     1       0.894  -2.846   6.758  0.00  0.00    +0.025 A 
ATOM     12  C   UNL     1      -0.119  -3.021   7.680  0.00  0.00    +0.022 A 
ATOM     13  C   UNL     1      -1.357  -3.484   7.270  0.00  0.00    +0.041 A 
ATOM     14  C   UNL     1      -1.583  -3.774   5.936  0.00  0.00    +0.022 A 
ATOM     15  C   UNL     1      -0.575  -3.596   5.009  0.00  0.00    +0.025 A 
ATOM     16 CL   UNL     1      -2.628  -3.703   8.432  0.00  0.00    -0.084 Cl
ENDBRANCH   8  10
ENDBRANCH   2   6
BRANCH   3  17
ATOM     17  N   UNL     1       4.453  -4.896   3.510  0.00  0.00    -0.356 N 
ATOM     18  H   UNL     1       3.829  -5.095   4.225  0.00  0.00    +0.142 HD
ATOM     19  H   UNL     1       5.350  -5.264   3.532  0.00  0.00    +0.142 HD
ENDBRANCH   3  17
BRANCH   1  20
ATOM     20  N   UNL     1       1.311  -2.078   0.990  0.00  0.00    -0.334 N 
ATOM     21  H   UNL     1       0.558  -2.154   1.597  0.00  0.00    +0.147 HD
BRANCH  20  22
ATOM     22  C   UNL     1       1.191  -1.276  -0.230  0.00  0.00    +0.129 C 
BRANCH  22  24
ATOM     23  C   UNL     1      -0.340   0.615  -0.438  0.00  0.00    +0.005 C 
ATOM     24  C   UNL     1      -0.191  -0.680  -0.305  0.00  0.00    -0.016 C 
ENDBRANCH  22  24
ENDBRANCH  20  22
ENDBRANCH   1  20
BRANCH   4  25
ATOM     25  C   UNL     1       6.260  -4.174   1.211  0.00  0.00    +0.214 C 
ATOM     26  O   UNL     1       6.805  -4.900   2.029  0.00  0.00    -0.285 OA
BRANCH  25  27
ATOM     27  C   UNL     1       6.995  -3.725   0.027  0.00  0.00    +0.127 C 
ATOM     28  C   UNL     1       8.323  -4.128  -0.168  0.00  0.00    +0.092 C 
ATOM     29  N   UNL     1       9.169  -3.816  -1.191  0.00  0.00    -0.307 N 
ATOM     30  C   UNL     1      10.457  -4.317  -1.208  0.00  0.00    +0.046 A 
ATOM     31  C   UNL     1      11.449  -4.096  -2.180  0.00  0.00    +0.024 A 
ATOM     32  C   UNL     1      12.693  -4.667  -2.061  0.00  0.00    +0.002 A 
ATOM     33  C   UNL     1      13.012  -5.476  -0.983  0.00  0.00    +0.001 A 
ATOM     34  C   UNL     1      12.056  -5.711  -0.011  0.00  0.00    +0.017 A 
ATOM     35  C   UNL     1      10.811  -5.140  -0.129  0.00  0.00    +0.035 A 
ATOM     36  S   UNL     1       9.338  -5.173   0.863  0.00  0.00    -0.071 S 
ATOM     37  H   UNL     1       8.865  -3.240  -1.911  0.00  0.00    +0.153 HD
BRANCH  27  38
ATOM     38  C   UNL     1       6.357  -2.873  -0.931  0.00  0.00    +0.105 C 
ATOM     39  N   UNL     1       5.851  -2.198  -1.691  0.00  0.00    -0.191 NA
ENDBRANCH  27  38
ENDBRANCH  25  27
ENDBRANCH   4  25
TORSDOF 9
