REMARK  Name = ZINC33514842
REMARK  12 active torsions:
REMARK  status: ('A' for Active; 'I' for Inactive)
REMARK    1  A    between atoms: C_1  and  C_2
REMARK    2  A    between atoms: C_5  and  C_8
REMARK    3  A    between atoms: N_9  and  C_10
REMARK    4  A    between atoms: C_13  and  O_16
REMARK    5  A    between atoms: O_16  and  C_17
REMARK    6  A    between atoms: N_18  and  C_19
REMARK    7  A    between atoms: C_22  and  O_25
REMARK    8  A    between atoms: O_25  and  C_26
REMARK    9  A    between atoms: C_27  and  C_29
REMARK   10  A    between atoms: C_31  and  O_37
REMARK   11  A    between atoms: C_32  and  O_36
REMARK   12  A    between atoms: C_33  and  O_35
REMARK                            x       y       z     vdW  Elec       q    Type
REMARK                         _______ _______ _______ _____ _____    ______ ____
ROOT
ATOM      1  C   UNL     1       0.095  -0.253  -0.546  0.00  0.00    +0.140 C 
ATOM      2  N   UNL     1       1.109  -0.800   0.078  0.00  0.00    -0.231 NA
ATOM      3  N   UNL     1      -1.091  -0.952  -0.683  0.00  0.00    -0.220 N 
ATOM      4  C   UNL     1      -1.169  -2.235  -0.277  0.00  0.00    +0.257 C 
ATOM      5  O   UNL     1      -0.222  -2.754   0.282  0.00  0.00    -0.269 OA
ENDROOT
BRANCH   1  10
ATOM      6  C   UNL     1       0.576   5.051  -2.723  0.00  0.00    +0.044 C 
ATOM      7  C   UNL     1       0.450   3.662  -2.153  0.00  0.00    -0.050 A 
ATOM      8  C   UNL     1      -0.185   2.673  -2.883  0.00  0.00    +0.004 A 
ATOM      9  C   UNL     1      -0.304   1.399  -2.367  0.00  0.00    +0.011 A 
ATOM     10  C   UNL     1       0.219   1.109  -1.105  0.00  0.00    +0.016 A 
ATOM     11  C   UNL     1       0.854   2.113  -0.372  0.00  0.00    +0.011 A 
ATOM     12  C   UNL     1       0.970   3.381  -0.901  0.00  0.00    +0.004 A 
ENDBRANCH   1  10
BRANCH   2  13
ATOM     13  C   UNL     1       2.331  -0.183   0.070  0.00  0.00    +0.066 A 
ATOM     14  C   UNL     1       2.962   0.105  -1.142  0.00  0.00    +0.031 A 
ATOM     15  C   UNL     1       4.190   0.732  -1.145  0.00  0.00    +0.048 A 
ATOM     16  C   UNL     1       4.805   1.066   0.054  0.00  0.00    +0.120 A 
ATOM     17  C   UNL     1       4.184   0.776   1.262  0.00  0.00    +0.048 A 
ATOM     18  C   UNL     1       2.953   0.155   1.274  0.00  0.00    +0.031 A 
BRANCH  16  19
ATOM     19  O   UNL     1       6.018   1.679   0.046  0.00  0.00    -0.495 OA
ATOM     20  C   UNL     1       6.600   1.948  -1.231  0.00  0.00    +0.277 C 
ENDBRANCH  16  19
ENDBRANCH   2  13
BRANCH   3  21
ATOM     21  C   UNL     1      -2.213  -0.326  -1.243  0.00  0.00    +0.043 A 
ATOM     22  C   UNL     1      -2.813  -0.860  -2.376  0.00  0.00    +0.027 A 
ATOM     23  C   UNL     1      -3.922  -0.245  -2.924  0.00  0.00    +0.047 A 
ATOM     24  C   UNL     1      -4.429   0.911  -2.350  0.00  0.00    +0.120 A 
ATOM     25  C   UNL     1      -3.826   1.448  -1.222  0.00  0.00    +0.047 A 
ATOM     26  C   UNL     1      -2.721   0.832  -0.669  0.00  0.00    +0.027 A 
BRANCH  24  27
ATOM     27  O   UNL     1      -5.518   1.519  -2.893  0.00  0.00    -0.495 OA
ATOM     28  C   UNL     1      -6.087   0.911  -4.054  0.00  0.00    +0.277 C 
ENDBRANCH  24  27
ENDBRANCH   3  21
BRANCH   4  29
ATOM     29  C   UNL     1      -2.402  -3.010  -0.510  0.00  0.00    +0.045 A 
ATOM     30  C   UNL     1      -3.642  -2.365  -0.526  0.00  0.00    +0.062 A 
ATOM     31  C   UNL     1      -4.795  -3.092  -0.751  0.00  0.00    +0.163 A 
ATOM     32  C   UNL     1      -4.724  -4.468  -0.950  0.00  0.00    +0.201 A 
ATOM     33  C   UNL     1      -3.491  -5.114  -0.929  0.00  0.00    +0.163 A 
ATOM     34  C   UNL     1      -2.334  -4.391  -0.711  0.00  0.00    +0.062 A 
BRANCH  33  35
ATOM     35  O   UNL     1      -3.425  -6.459  -1.124  0.00  0.00    -0.503 OA
ATOM     36  H   UNL     1      -2.451  -6.970  -1.107  0.00  0.00    +0.292 HD
ENDBRANCH  33  35
BRANCH  32  37
ATOM     37  O   UNL     1      -5.861  -5.182  -1.165  0.00  0.00    -0.501 OA
ATOM     38  H   UNL     1      -5.806  -6.269  -1.322  0.00  0.00    +0.292 HD
ENDBRANCH  32  37
BRANCH  31  39
ATOM     39  O   UNL     1      -6.001  -2.464  -0.773  0.00  0.00    -0.503 OA
ATOM     40  H   UNL     1      -6.920  -3.042  -0.952  0.00  0.00    +0.292 HD
ENDBRANCH  31  39
ENDBRANCH   4  29
TORSDOF 9
