REMARK  Name = ZINC00778282
REMARK  7 active torsions:
REMARK  status: ('A' for Active; 'I' for Inactive)
REMARK    1  A    between atoms: C_3  and  C_9
REMARK    2  A    between atoms: C_12  and  C_14
REMARK    3  A    between atoms: C_15  and  C_16
REMARK    4  A    between atoms: C_15  and  C_18
REMARK    5  A    between atoms: N_20  and  C_21
REMARK    6  A    between atoms: C_24  and  S_27
REMARK    7  A    between atoms: S_27  and  N_30
REMARK                            x       y       z     vdW  Elec       q    Type
REMARK                         _______ _______ _______ _____ _____    ______ ____
ROOT
ATOM      1  C   UNL     1       0.134   6.753  -1.169  0.00  0.00    +0.070 C 
ATOM      2  C   UNL     1      -0.758   6.564  -2.217  0.00  0.00    +0.117 C 
ENDROOT
BRANCH   1   6
ATOM      3  C   UNL     1       1.198   3.563  -0.009  0.00  0.00    +0.137 A 
ATOM      4  C   UNL     1       1.911   4.369   0.855  0.00  0.00    +0.050 A 
ATOM      5  C   UNL     1       1.608   5.689   0.527  0.00  0.00    +0.050 A 
ATOM      6  C   UNL     1       0.707   5.643  -0.528  0.00  0.00    +0.130 A 
ATOM      7  O   UNL     1       0.478   4.347  -0.830  0.00  0.00    -0.455 OA
BRANCH   3  10
ATOM      8  C   UNL     1       2.444   0.023  -0.056  0.00  0.00    +0.002 A 
ATOM      9  C   UNL     1       2.433   1.402  -0.042  0.00  0.00    +0.013 A 
ATOM     10  C   UNL     1       1.217   2.089  -0.024  0.00  0.00    +0.037 A 
ATOM     11  C   UNL     1       0.017   1.370  -0.020  0.00  0.00    +0.070 A 
ATOM     12  C   UNL     1       0.043  -0.011  -0.035  0.00  0.00    +0.060 A 
ATOM     13  C   UNL     1       1.254  -0.682  -0.052  0.00  0.00    +0.021 A 
ATOM     14 CL   UNL     1      -1.444  -0.906  -0.031  0.00  0.00    -0.082 Cl
ATOM     15 CL   UNL     1      -1.502   2.212  -0.005  0.00  0.00    -0.081 Cl
ENDBRANCH   3  10
ENDBRANCH   1   6
BRANCH   2  16
ATOM     16  C   UNL     1      -1.358   7.723  -2.888  0.00  0.00    +0.259 C 
ATOM     17  O   UNL     1      -1.073   8.850  -2.525  0.00  0.00    -0.269 OA
ATOM     18  N   UNL     1      -2.223   7.540  -3.905  0.00  0.00    -0.281 N 
ATOM     19  H   UNL     1      -2.398   6.646  -4.237  0.00  0.00    +0.155 HD
BRANCH  18  20
ATOM     20  C   UNL     1      -2.868   8.640  -4.480  0.00  0.00    +0.034 A 
ATOM     21  C   UNL     1      -4.172   8.518  -4.942  0.00  0.00    +0.025 A 
ATOM     22  C   UNL     1      -4.809   9.607  -5.504  0.00  0.00    +0.030 A 
ATOM     23  C   UNL     1      -4.145  10.815  -5.617  0.00  0.00    +0.105 A 
ATOM     24  C   UNL     1      -2.845  10.938  -5.164  0.00  0.00    +0.030 A 
ATOM     25  C   UNL     1      -2.204   9.854  -4.596  0.00  0.00    +0.025 A 
BRANCH  23  26
ATOM     26  S   UNL     1      -4.959  12.200  -6.341  0.00  0.00    +0.056 S 
ATOM     27  O   UNL     1      -6.354  11.977  -6.189  0.00  0.00    -0.153 OA
ATOM     28  O   UNL     1      -4.313  13.360  -5.835  0.00  0.00    -0.153 OA
BRANCH  26  29
ATOM     29  N   UNL     1      -4.647  12.156  -7.967  0.00  0.00    -0.204 NA
ATOM     30  H   UNL     1      -5.295  12.515  -8.595  0.00  0.00    +0.144 HD
ATOM     31  H   UNL     1      -3.818  11.772  -8.292  0.00  0.00    +0.144 HD
ENDBRANCH  26  29
ENDBRANCH  23  26
ENDBRANCH  18  20
ENDBRANCH   2  16
BRANCH   2  32
ATOM     32  C   UNL     1      -1.092   5.238  -2.643  0.00  0.00    +0.104 C 
ATOM     33  N   UNL     1      -1.357   4.187  -2.981  0.00  0.00    -0.191 NA
ENDBRANCH   2  32
TORSDOF 7
