REMARK  Name = ZINC20764608
REMARK  8 active torsions:
REMARK  status: ('A' for Active; 'I' for Inactive)
REMARK    1  A    between atoms: C_1  and  C_2
REMARK    2  A    between atoms: C_2  and  O_3
REMARK    3  A    between atoms: O_3  and  C_4
REMARK    4  A    between atoms: C_7  and  C_10
REMARK    5  A    between atoms: C_12  and  C_26
REMARK    6  A    between atoms: C_15  and  C_18
REMARK    7  A    between atoms: C_23  and  O_24
REMARK    8  A    between atoms: C_29  and  C_32
REMARK                            x       y       z     vdW  Elec       q    Type
REMARK                         _______ _______ _______ _____ _____    ______ ____
ROOT
ATOM      1  C   UNL     1       1.170   3.561   0.009  0.00  0.00    +0.040 C 
ATOM      2  N   UNL     1       0.038   4.159   0.018  0.00  0.00    -0.299 NA
ATOM      3  C   UNL     1      -0.121   5.608   0.021  0.00  0.00    +0.081 C 
ATOM      4  N   UNL     1       1.128   6.267   0.421  0.00  0.00    +0.401 N 
ATOM      5  C   UNL     1       2.253   5.756  -0.381  0.00  0.00    -0.028 C 
ATOM      6  C   UNL     1       2.485   4.290   0.001  0.00  0.00    +0.044 C 
ATOM      7  H   UNL     1       1.037   7.352   0.263  0.00  0.00    -0.081 HD
ATOM      8  H   UNL     1       1.323   6.067   1.485  0.00  0.00    -0.081 HD
ENDROOT
BRANCH   5   9
ATOM      9  C   UNL     1       3.493   6.560  -0.088  0.00  0.00    -0.018 A 
ATOM     10  C   UNL     1       3.609   7.242   1.108  0.00  0.00    +0.025 A 
ATOM     11  C   UNL     1       4.750   7.976   1.378  0.00  0.00    +0.041 A 
ATOM     12  C   UNL     1       5.773   8.037   0.448  0.00  0.00    +0.023 A 
ATOM     13  C   UNL     1       5.658   7.362  -0.751  0.00  0.00    +0.047 A 
ATOM     14  C   UNL     1       4.517   6.620  -1.022  0.00  0.00    +0.119 A 
ATOM     15 CL   UNL     1       4.896   8.828   2.884  0.00  0.00    -0.084 Cl
BRANCH  14  16
ATOM     16  O   UNL     1       4.402   5.955  -2.202  0.00  0.00    -0.507 OA
ATOM     17  H   UNL     1       5.214   6.003  -2.942  0.00  0.00    +0.292 HD
ENDBRANCH  14  16
ENDBRANCH   5   9
BRANCH   1  21
ATOM     18  C   UNL     1       1.214  -0.684  -0.014  0.00  0.00    +0.121 A 
ATOM     19  C   UNL     1       0.002  -0.004   0.002  0.00  0.00    +0.046 A 
ATOM     20  C   UNL     1      -0.017   1.373   0.010  0.00  0.00    +0.013 A 
ATOM     21  C   UNL     1       1.185   2.086   0.002  0.00  0.00    -0.004 A 
ATOM     22  C   UNL     1       2.401   1.398  -0.013  0.00  0.00    +0.013 A 
ATOM     23  C   UNL     1       2.411   0.021  -0.021  0.00  0.00    +0.046 A 
BRANCH  18  24
ATOM     24  O   UNL     1       1.228  -2.042  -0.022  0.00  0.00    -0.492 OA
BRANCH  24  26
ATOM     25  C   UNL     1       2.322  -4.196  -0.045  0.00  0.00    +0.048 C 
ATOM     26  C   UNL     1       2.507  -2.678  -0.038  0.00  0.00    +0.225 C 
ENDBRANCH  24  26
ENDBRANCH  18  24
ENDBRANCH   1  21
BRANCH   3  27
ATOM     27  C   UNL     1      -0.501   6.064  -1.365  0.00  0.00    -0.040 A 
ATOM     28  C   UNL     1      -0.151   7.330  -1.796  0.00  0.00    +0.004 A 
ATOM     29  C   UNL     1      -0.496   7.746  -3.068  0.00  0.00    +0.012 A 
ATOM     30  C   UNL     1      -1.199   6.900  -3.906  0.00  0.00    +0.055 A 
ATOM     31  C   UNL     1      -1.553   5.636  -3.472  0.00  0.00    +0.012 A 
ATOM     32  C   UNL     1      -1.204   5.218  -2.202  0.00  0.00    +0.004 A 
BRANCH  30  33
ATOM     33  C   UNL     1      -1.579   7.356  -5.291  0.00  0.00    +0.417 C 
ATOM     34  F   UNL     1      -2.832   7.976  -5.250  0.00  0.00    -0.166 F 
ATOM     35  F   UNL     1      -0.624   8.263  -5.762  0.00  0.00    -0.166 F 
ATOM     36  F   UNL     1      -1.633   6.250  -6.147  0.00  0.00    -0.166 F 
ENDBRANCH  30  33
ENDBRANCH   3  27
TORSDOF 7
