REMARK  Name = ZINC08644961
REMARK  5 active torsions:
REMARK  status: ('A' for Active; 'I' for Inactive)
REMARK    1  A    between atoms: C_1  and  C_2
REMARK    2  A    between atoms: C_2  and  C_26
REMARK    3  A    between atoms: N_5  and  C_9
REMARK    4  A    between atoms: C_9  and  C_10
REMARK    5  A    between atoms: N_15  and  C_16
REMARK                            x       y       z     vdW  Elec       q    Type
REMARK                         _______ _______ _______ _____ _____    ______ ____
ROOT
ATOM      1  C   UNL     1       4.856   4.668   1.255  0.00  0.00    +0.047 C 
ATOM      2  C   UNL     1       5.218   3.332   0.604  0.00  0.00    +0.136 C 
ATOM      3  C   UNL     1       4.053   2.365   0.689  0.00  0.00    +0.251 C 
ATOM      4  O   UNL     1       3.531   1.933   1.694  0.00  0.00    -0.272 OA
ATOM      5  N   UNL     1       3.719   2.085  -0.586  0.00  0.00    -0.215 N 
ATOM      6  C   UNL     1       4.505   2.729  -1.456  0.00  0.00    +0.310 C 
ATOM      7  O   UNL     1       4.400   2.633  -2.663  0.00  0.00    -0.252 OA
ATOM      8  N   UNL     1       5.424   3.500  -0.845  0.00  0.00    -0.281 N 
ATOM      9  H   UNL     1       6.093   4.054  -1.274  0.00  0.00    +0.152 HD
ENDROOT
BRANCH   2  10
ATOM     10  C   UNL     1       6.444   2.742   1.253  0.00  0.00    -0.008 A 
ATOM     11  C   UNL     1       7.558   2.495   0.511  0.00  0.00    +0.007 A 
ATOM     12  C   UNL     1       8.701   1.951   1.093  0.00  0.00    +0.001 A 
ATOM     13  C   UNL     1       8.737   1.651   2.420  0.00  0.00    +0.008 A 
ATOM     14  C   UNL     1       7.606   1.893   3.218  0.00  0.00    -0.018 A 
ATOM     15  C   UNL     1       6.445   2.451   2.627  0.00  0.00    -0.012 A 
ATOM     16  C   UNL     1       5.312   2.687   3.424  0.00  0.00    +0.009 A 
ATOM     17  C   UNL     1       5.348   2.388   4.751  0.00  0.00    +0.001 A 
ATOM     18  C   UNL     1       6.491   1.843   5.333  0.00  0.00    +0.001 A 
ATOM     19  C   UNL     1       7.605   1.596   4.592  0.00  0.00    +0.008 A 
ENDBRANCH   2  10
BRANCH   5  20
ATOM     20  C   UNL     1       2.632   1.181  -0.973  0.00  0.00    +0.214 C 
BRANCH  20  21
ATOM     21  C   UNL     1       1.352   1.964  -1.107  0.00  0.00    +0.238 C 
ATOM     22  O   UNL     1       1.347   3.158  -0.901  0.00  0.00    -0.274 OA
ATOM     23  N   UNL     1       0.212   1.336  -1.457  0.00  0.00    -0.239 N 
ATOM     24  C   UNL     1      -0.933   2.037  -1.583  0.00  0.00    +0.306 C 
ATOM     25  O   UNL     1      -0.937   3.234  -1.376  0.00  0.00    -0.252 OA
ATOM     26  N   UNL     1      -2.071   1.410  -1.938  0.00  0.00    -0.294 N 
ATOM     27  H   UNL     1       0.216   0.380  -1.623  0.00  0.00    +0.159 HD
ATOM     28  H   UNL     1      -2.067   0.454  -2.103  0.00  0.00    +0.151 HD
BRANCH  26  29
ATOM     29  C   UNL     1      -3.315   2.171  -2.075  0.00  0.00    +0.037 C 
ATOM     30  C   UNL     1      -3.138   3.250  -3.145  0.00  0.00    +0.029 C 
ATOM     31  C   UNL     1      -4.437   4.046  -3.288  0.00  0.00    -0.008 C 
ATOM     32  C   UNL     1      -5.570   3.103  -3.697  0.00  0.00    +0.007 C 
ATOM     33  C   UNL     1      -5.748   2.024  -2.626  0.00  0.00    -0.008 C 
ATOM     34  C   UNL     1      -4.449   1.229  -2.484  0.00  0.00    +0.029 C 
ATOM     35  C   UNL     1      -6.091   2.684  -1.289  0.00  0.00    +0.007 C 
ATOM     36  C   UNL     1      -4.957   3.627  -0.880  0.00  0.00    -0.008 C 
ATOM     37  C   UNL     1      -4.780   4.706  -1.951  0.00  0.00    +0.007 C 
ATOM     38  C   UNL     1      -3.658   2.832  -0.738  0.00  0.00    +0.029 C 
ENDBRANCH  26  29
ENDBRANCH  20  21
ENDBRANCH   5  20
TORSDOF 4
