REMARK  Name = ZINC35992821
REMARK  10 active torsions:
REMARK  status: ('A' for Active; 'I' for Inactive)
REMARK    1  A    between atoms: C_1  and  C_2
REMARK    2  A    between atoms: C_2  and  N_3
REMARK    3  A    between atoms: C_4  and  C_23
REMARK    4  A    between atoms: C_5  and  C_18
REMARK    5  A    between atoms: C_6  and  C_11
REMARK    6  A    between atoms: C_18  and  O_20
REMARK    7  A    between atoms: O_20  and  C_21
REMARK    8  A    between atoms: C_21  and  C_22
REMARK    9  A    between atoms: C_23  and  N_24
REMARK   10  A    between atoms: C_31  and  C_33
REMARK                            x       y       z     vdW  Elec       q    Type
REMARK                         _______ _______ _______ _____ _____    ______ ____
ROOT
ATOM      1  N   UNL     1       0.629  -0.608  -1.909  0.00  0.00    -0.261 N 
ATOM      2  C   UNL     1      -0.207  -1.316  -2.724  0.00  0.00    +0.010 C 
ATOM      3  C   UNL     1       0.281  -2.153  -3.665  0.00  0.00    +0.076 C 
ATOM      4  C   UNL     1       1.786  -2.279  -3.785  0.00  0.00    +0.143 C 
ATOM      5  N   UNL     1       2.599  -1.472  -2.860  0.00  0.00    -0.288 N 
ATOM      6  C   UNL     1       1.964  -0.677  -1.976  0.00  0.00    +0.307 C 
ATOM      7  O   UNL     1       2.626  -0.004  -1.210  0.00  0.00    -0.252 OA
ATOM      8  H   UNL     1       3.567  -1.510  -2.888  0.00  0.00    +0.151 HD
ENDROOT
BRANCH   4   9
ATOM      9  C   UNL     1       2.173  -1.901  -5.192  0.00  0.00    -0.022 A 
ATOM     10  C   UNL     1       2.276  -0.569  -5.546  0.00  0.00    +0.008 A 
ATOM     11  C   UNL     1       2.631  -0.222  -6.836  0.00  0.00    +0.038 A 
ATOM     12  C   UNL     1       2.883  -1.209  -7.773  0.00  0.00    +0.123 A 
ATOM     13  C   UNL     1       2.779  -2.543  -7.418  0.00  0.00    +0.038 A 
ATOM     14  C   UNL     1       2.429  -2.888  -6.126  0.00  0.00    +0.008 A 
ATOM     15  F   UNL     1       3.230  -0.870  -9.034  0.00  0.00    -0.205 F 
ENDBRANCH   4   9
BRANCH   1  17
ATOM     16  C   UNL     1      -0.303   1.626  -1.560  0.00  0.00    +0.025 C 
ATOM     17  C   UNL     1       0.031   0.282  -0.911  0.00  0.00    +0.111 C 
ENDBRANCH   1  17
BRANCH   3  18
ATOM     18  C   UNL     1      -0.584  -2.888  -4.510  0.00  0.00    +0.339 C 
ATOM     19  O   UNL     1      -1.786  -2.707  -4.456  0.00  0.00    -0.245 OA
BRANCH  18  20
ATOM     20  O   UNL     1      -0.076  -3.791  -5.374  0.00  0.00    -0.462 OA
BRANCH  20  21
ATOM     21  C   UNL     1      -1.008  -4.497  -6.197  0.00  0.00    +0.229 C 
ATOM     22  C   UNL     1      -0.252  -5.469  -7.105  0.00  0.00    +0.048 C 
ENDBRANCH  20  21
ENDBRANCH  18  20
ENDBRANCH   3  18
BRANCH   2  23
ATOM     23  C   UNL     1      -1.698  -1.162  -2.571  0.00  0.00    -0.026 C 
BRANCH  23  24
ATOM     24  N   UNL     1      -2.237  -2.313  -1.834  0.00  0.00    +0.384 N 
ATOM     25  C   UNL     1      -3.694  -2.287  -1.940  0.00  0.00    -0.077 C 
ATOM     26  C   UNL     1      -4.224  -3.702  -1.868  0.00  0.00    +0.000 C 
ATOM     27  C   UNL     1      -4.589  -4.039  -0.410  0.00  0.00    +0.106 C 
ATOM     28  N   UNL     1      -3.591  -3.487   0.528  0.00  0.00    -0.299 N 
ATOM     29  C   UNL     1      -2.168  -3.535   0.263  0.00  0.00    +0.089 C 
ATOM     30  C   UNL     1      -1.735  -2.271  -0.514  0.00  0.00    -0.059 C 
ATOM     31  C   UNL     1      -4.020  -2.917   1.671  0.00  0.00    +0.249 C 
ATOM     32  O   UNL     1      -3.225  -2.384   2.421  0.00  0.00    -0.270 OA
ATOM     33  H   UNL     1      -1.902  -3.156  -2.275  0.00  0.00    -0.081 HD
BRANCH  31  34
ATOM     34  C   UNL     1      -5.456  -2.940   2.015  0.00  0.00    +0.072 A 
ATOM     35  C   UNL     1      -6.138  -4.156   2.101  0.00  0.00    +0.016 A 
ATOM     36  C   UNL     1      -7.478  -4.171   2.422  0.00  0.00    +0.001 A 
ATOM     37  C   UNL     1      -8.151  -2.984   2.659  0.00  0.00    +0.003 A 
ATOM     38  C   UNL     1      -7.486  -1.776   2.576  0.00  0.00    +0.039 A 
ATOM     39  C   UNL     1      -6.139  -1.745   2.261  0.00  0.00    +0.135 A 
ATOM     40  F   UNL     1      -5.488  -0.564   2.185  0.00  0.00    -0.205 F 
ENDBRANCH  31  34
ENDBRANCH  23  24
ENDBRANCH   2  23
TORSDOF 8
