REMARK  Name = ZINC42520844
REMARK  5 active torsions:
REMARK  status: ('A' for Active; 'I' for Inactive)
REMARK    1  A    between atoms: C_1  and  C_2
REMARK    2  A    between atoms: C_2  and  C_3
REMARK    3  A    between atoms: C_6  and  S_8
REMARK    4  A    between atoms: S_8  and  N_11
REMARK    5  A    between atoms: C_15  and  N_18
REMARK                            x       y       z     vdW  Elec       q    Type
REMARK                         _______ _______ _______ _____ _____    ______ ____
ROOT
ATOM      1  N   UNL     1       1.614  -3.534  -5.327  0.00  0.00    -0.110 NA
ATOM      2  C   UNL     1       1.751  -4.202  -6.455  0.00  0.00    +0.153 A 
ATOM      3  C   UNL     1       1.595  -5.608  -6.471  0.00  0.00    +0.049 A 
ATOM      4  C   UNL     1       1.738  -6.281  -7.641  0.00  0.00    +0.028 A 
ATOM      5  C   UNL     1       2.040  -5.572  -8.822  0.00  0.00    +0.041 A 
ATOM      6  C   UNL     1       2.186  -4.226  -8.791  0.00  0.00    +0.107 A 
ATOM      7  N   UNL     1       2.039  -3.536  -7.620  0.00  0.00    -0.343 N 
ATOM      8  H   UNL     1       2.143  -2.572  -7.611  0.00  0.00    +0.167 HD
ENDROOT
BRANCH   1   9
ATOM      9  S   UNL     1       1.791  -1.887  -5.313  0.00  0.00    +0.107 S 
ATOM     10  O   UNL     1       0.717  -1.357  -6.078  0.00  0.00    -0.146 OA
ATOM     11  O   UNL     1       3.152  -1.622  -5.626  0.00  0.00    -0.146 OA
BRANCH   9  15
ATOM     12  C   UNL     1       0.707  -0.490  -1.238  0.00  0.00    -0.009 A 
ATOM     13  C   UNL     1       2.023  -0.761  -1.421  0.00  0.00    +0.013 A 
ATOM     14  C   UNL     1       2.451  -1.202  -2.659  0.00  0.00    +0.037 A 
ATOM     15  C   UNL     1       1.542  -1.350  -3.654  0.00  0.00    +0.150 A 
ATOM     16  S   UNL     1       0.026  -0.866  -2.845  0.00  0.00    -0.073 S 
BRANCH  12  18
ATOM     17  C   UNL     1      -0.019   1.526   0.010  0.00  0.00    +0.009 C 
ATOM     18  C   UNL     1       0.002  -0.004   0.002  0.00  0.00    +0.039 C 
ENDBRANCH  12  18
ENDBRANCH   9  15
ENDBRANCH   1   9
BRANCH   5  19
ATOM     19  N   UNL     1       2.189  -6.264 -10.034  0.00  0.00    -0.357 N 
ATOM     20  H   UNL     1       2.085  -7.228 -10.059  0.00  0.00    +0.142 HD
ATOM     21  H   UNL     1       2.397  -5.778 -10.848  0.00  0.00    +0.142 HD
ENDBRANCH   5  19
TORSDOF 4
