REMARK  Name = ZINC38787527
REMARK  6 active torsions:
REMARK  status: ('A' for Active; 'I' for Inactive)
REMARK    1  A    between atoms: C_1  and  C_2
REMARK    2  A    between atoms: C_2  and  C_3
REMARK    3  A    between atoms: C_6  and  C_30
REMARK    4  A    between atoms: C_9  and  C_11
REMARK    5  A    between atoms: C_13  and  C_24
REMARK    6  A    between atoms: C_35  and  O_36
REMARK                            x       y       z     vdW  Elec       q    Type
REMARK                         _______ _______ _______ _____ _____    ______ ____
ROOT
ATOM      1  C   UNL     1       0.254  -5.322  -0.312  0.00  0.00    +0.152 C 
ATOM      2  C   UNL     1      -0.296  -4.897   1.036  0.00  0.00    -0.014 C 
ATOM      3  C   UNL     1      -1.617  -5.253   1.323  0.00  0.00    +0.002 A 
ATOM      4  C   UNL     1      -2.207  -4.898   2.554  0.00  0.00    +0.030 A 
ATOM      5  C   UNL     1      -3.495  -5.257   2.808  0.00  0.00    +0.042 A 
ATOM      6  C   UNL     1      -4.246  -5.971   1.875  0.00  0.00    +0.022 A 
ATOM      7  C   UNL     1      -3.730  -6.342   0.671  0.00  0.00    +0.025 A 
ATOM      8  C   UNL     1      -2.405  -6.004   0.340  0.00  0.00    +0.041 A 
ATOM      9  N   UNL     1      -1.901  -6.369  -0.843  0.00  0.00    -0.284 N 
ATOM     10  C   UNL     1      -0.671  -6.091  -1.227  0.00  0.00    +0.230 C 
ATOM     11  O   UNL     1      -0.280  -6.455  -2.321  0.00  0.00    -0.274 OA
ATOM     12 CL   UNL     1      -4.218  -4.818   4.324  0.00  0.00    -0.084 Cl
ATOM     13  H   UNL     1      -2.471  -6.864  -1.452  0.00  0.00    +0.155 HD
ENDROOT
BRANCH   1  19
ATOM     14  C   UNL     1       0.883  -0.577  -1.319  0.00  0.00    +0.235 C 
ATOM     15  O   UNL     1       1.365   0.189  -2.126  0.00  0.00    -0.274 OA
ATOM     16  N   UNL     1       0.989  -1.907  -1.506  0.00  0.00    -0.185 N 
ATOM     17  C   UNL     1       1.665  -2.564  -2.637  0.00  0.00    +0.140 C 
ATOM     18  C   UNL     1       1.478  -4.065  -2.338  0.00  0.00    +0.083 C 
ATOM     19  C   UNL     1       0.699  -4.080  -1.042  0.00  0.00    +0.055 C 
ATOM     20  N   UNL     1       0.481  -2.890  -0.658  0.00  0.00    -0.185 NA
BRANCH  17  21
ATOM     21  C   UNL     1       1.005  -2.192  -3.940  0.00  0.00    +0.017 A 
ATOM     22  C   UNL     1      -0.273  -1.668  -3.943  0.00  0.00    +0.009 A 
ATOM     23  C   UNL     1      -0.879  -1.327  -5.138  0.00  0.00    +0.001 A 
ATOM     24  C   UNL     1      -0.207  -1.508  -6.333  0.00  0.00    +0.004 A 
ATOM     25  C   UNL     1       1.071  -2.031  -6.335  0.00  0.00    +0.046 A 
ATOM     26  C   UNL     1       1.683  -2.369  -5.137  0.00  0.00    +0.122 A 
BRANCH  26  27
ATOM     27  O   UNL     1       2.943  -2.879  -5.136  0.00  0.00    -0.506 OA
ATOM     28  H   UNL     1       2.978  -3.843  -5.202  0.00  0.00    +0.292 HD
ENDBRANCH  26  27
ENDBRANCH  17  21
BRANCH  14  30
ATOM     29  C   UNL     1       0.187   1.488  -0.136  0.00  0.00    +0.013 C 
ATOM     30  C   UNL     1       0.165  -0.041  -0.107  0.00  0.00    +0.094 C 
ENDBRANCH  14  30
ENDBRANCH   1  19
BRANCH   2  31
ATOM     31  C   UNL     1       0.494  -4.172   1.963  0.00  0.00    -0.020 A 
ATOM     32  C   UNL     1       0.113  -2.880   2.359  0.00  0.00    +0.008 A 
ATOM     33  C   UNL     1       0.887  -2.184   3.260  0.00  0.00    +0.001 A 
ATOM     34  C   UNL     1       2.039  -2.755   3.776  0.00  0.00    +0.000 A 
ATOM     35  C   UNL     1       2.424  -4.029   3.393  0.00  0.00    +0.001 A 
ATOM     36  C   UNL     1       1.661  -4.744   2.497  0.00  0.00    +0.008 A 
ENDBRANCH   2  31
TORSDOF 5
