REMARK  Name = ZINC09494343
REMARK  7 active torsions:
REMARK  status: ('A' for Active; 'I' for Inactive)
REMARK    1  A    between atoms: C_1  and  C_2
REMARK    2  A    between atoms: C_2  and  C_4
REMARK    3  A    between atoms: C_2  and  S_19
REMARK    4  A    between atoms: N_6  and  C_7
REMARK    5  A    between atoms: C_12  and  C_13
REMARK    6  A    between atoms: S_19  and  C_20
REMARK    7  A    between atoms: C_26  and  N_28
REMARK                            x       y       z     vdW  Elec       q    Type
REMARK                         _______ _______ _______ _____ _____    ______ ____
ROOT
ATOM      1  C   UNL     1      -2.169   4.843   0.160  0.00  0.00    +0.230 C 
ATOM      2  O   UNL     1      -3.283   4.447  -0.110  0.00  0.00    -0.274 OA
ATOM      3  N   UNL     1      -1.989   6.107   0.590  0.00  0.00    -0.284 N 
ATOM      4  H   UNL     1      -1.111   6.400   0.881  0.00  0.00    +0.155 HD
ENDROOT
BRANCH   3   5
ATOM      5  C   UNL     1      -3.066   6.997   0.615  0.00  0.00    +0.041 A 
ATOM      6  C   UNL     1      -4.147   6.806  -0.233  0.00  0.00    +0.024 A 
ATOM      7  C   UNL     1      -5.214   7.683  -0.203  0.00  0.00    +0.002 A 
ATOM      8  C   UNL     1      -5.206   8.762   0.664  0.00  0.00    +0.001 A 
ATOM      9  C   UNL     1      -4.135   8.968   1.509  0.00  0.00    +0.010 A 
ATOM     10  C   UNL     1      -3.056   8.088   1.492  0.00  0.00    +0.003 A 
BRANCH  10  11
ATOM     11  C   UNL     1      -1.903   8.305   2.398  0.00  0.00    -0.016 A 
ATOM     12  C   UNL     1      -1.429   7.260   3.190  0.00  0.00    +0.008 A 
ATOM     13  C   UNL     1      -0.352   7.466   4.028  0.00  0.00    +0.001 A 
ATOM     14  C   UNL     1       0.250   8.709   4.091  0.00  0.00    +0.000 A 
ATOM     15  C   UNL     1      -0.218   9.751   3.311  0.00  0.00    +0.001 A 
ATOM     16  C   UNL     1      -1.291   9.555   2.466  0.00  0.00    +0.008 A 
ENDBRANCH  10  11
ENDBRANCH   3   5
BRANCH   1  18
ATOM     17  C   UNL     1      -0.262   4.223  -1.299  0.00  0.00    +0.029 C 
ATOM     18  C   UNL     1      -0.986   3.921   0.015  0.00  0.00    +0.137 C 
BRANCH  18  19
ATOM     19  S   UNL     1      -1.557   2.203   0.007  0.00  0.00    -0.075 S 
BRANCH  19  20
ATOM     20  C   UNL     1      -0.007   1.365  -0.018  0.00  0.00    +0.171 A 
ATOM     21  N   UNL     1       0.015   0.003  -0.030  0.00  0.00    -0.302 N 
ATOM     22  H   UNL     1      -0.818  -0.494  -0.020  0.00  0.00    +0.171 HD
ATOM     23  C   UNL     1       1.193  -0.655  -0.054  0.00  0.00    +0.254 A 
ATOM     24  O   UNL     1       1.222  -1.875  -0.064  0.00  0.00    -0.268 OA
ATOM     25  C   UNL     1       2.379   0.085  -0.068  0.00  0.00    +0.113 A 
ATOM     26  C   UNL     1       2.303   1.470  -0.056  0.00  0.00    +0.124 A 
ATOM     27  N   UNL     1       1.106   2.069  -0.031  0.00  0.00    -0.209 NA
BRANCH  26  28
ATOM     28  N   UNL     1       3.456   2.228  -0.069  0.00  0.00    -0.343 N 
ATOM     29  H   UNL     1       4.323   1.793  -0.086  0.00  0.00    +0.144 HD
ATOM     30  H   UNL     1       3.400   3.197  -0.060  0.00  0.00    +0.144 HD
ENDBRANCH  26  28
ENDBRANCH  19  20
ENDBRANCH  18  19
ENDBRANCH   1  18
TORSDOF 6
