REMARK  Name = ZINC31055936
REMARK  8 active torsions:
REMARK  status: ('A' for Active; 'I' for Inactive)
REMARK    1  A    between atoms: C_1  and  C_2
REMARK    2  A    between atoms: C_9  and  C_37
REMARK    3  A    between atoms: C_9  and  C_38
REMARK    4  A    between atoms: C_11  and  N_13
REMARK    5  A    between atoms: C_14  and  C_16
REMARK    6  A    between atoms: N_21  and  C_23
REMARK    7  A    between atoms: C_23  and  C_24
REMARK    8  A    between atoms: C_26  and  C_29
REMARK                            x       y       z     vdW  Elec       q    Type
REMARK                         _______ _______ _______ _____ _____    ______ ____
ROOT
ATOM      1  C   UNL     1      -0.823   3.123  -1.184  0.00  0.00    +0.058 C 
ATOM      2  C   UNL     1      -0.755   1.594  -1.231  0.00  0.00    +0.009 C 
ATOM      3  C   UNL     1      -0.013   1.086   0.008  0.00  0.00    -0.018 C 
ATOM      4  C   UNL     1      -0.731   1.580   1.266  0.00  0.00    -0.078 C 
ATOM      5  N   UNL     1      -0.770   3.048   1.264  0.00  0.00    +0.386 N 
ATOM      6  C   UNL     1      -1.519   3.558   0.108  0.00  0.00    -0.065 C 
ATOM      7  H   UNL     1       0.265   3.411   1.179  0.00  0.00    -0.081 HD
ENDROOT
BRANCH   1   9
ATOM      8  N   UNL     1      -1.177   3.360  -3.621  0.00  0.00    -0.308 N 
ATOM      9  C   UNL     1      -1.603   3.628  -2.371  0.00  0.00    +0.215 C 
ATOM     10  O   UNL     1      -2.614   4.276  -2.201  0.00  0.00    -0.276 OA
ATOM     11  H   UNL     1      -0.260   2.772  -3.775  0.00  0.00    +0.149 HD
BRANCH   8  22
ATOM     12  C   UNL     1      -6.212   0.124  -5.908  0.00  0.00    +0.044 C 
ATOM     13  C   UNL     1      -5.094   1.094  -5.623  0.00  0.00    -0.047 A 
ATOM     14  C   UNL     1      -4.793   1.439  -4.318  0.00  0.00    +0.004 A 
ATOM     15  C   UNL     1      -3.770   2.329  -4.058  0.00  0.00    +0.009 A 
ATOM     16  C   UNL     1      -3.041   2.880  -5.098  0.00  0.00    +0.015 A 
ATOM     17  C   UNL     1      -3.337   2.534  -6.405  0.00  0.00    +0.126 A 
ATOM     18  C   UNL     1      -4.370   1.638  -6.664  0.00  0.00    +0.049 A 
ATOM     19  O   UNL     1      -2.642   3.042  -7.455  0.00  0.00    -0.486 OA
ATOM     20  C   UNL     1      -1.855   4.212  -7.231  0.00  0.00    +0.107 C 
ATOM     21  C   UNL     1      -0.999   3.987  -5.979  0.00  0.00    +0.074 C 
ATOM     22  C   UNL     1      -1.934   3.851  -4.775  0.00  0.00    +0.110 C 
ATOM     23  C   UNL     1      -0.947   4.462  -8.438  0.00  0.00    +0.055 C 
ATOM     24  C   UNL     1      -2.773   5.418  -7.019  0.00  0.00    +0.055 C 
ENDBRANCH   8  22
ENDBRANCH   1   9
BRANCH   5  25
ATOM     25  C   UNL     1      -1.329   3.562   2.521  0.00  0.00    +0.022 C 
BRANCH  25  26
ATOM     26  C   UNL     1      -0.401   3.224   3.659  0.00  0.00    +0.211 A 
ATOM     27  N   UNL     1       0.591   3.957   4.098  0.00  0.00    -0.193 NA
ATOM     28  C   UNL     1       1.134   3.260   5.121  0.00  0.00    +0.203 A 
ATOM     29  N   UNL     1       0.451   2.151   5.237  0.00  0.00    -0.056 NA
ATOM     30  O   UNL     1      -0.432   2.116   4.406  0.00  0.00    -0.340 OA
BRANCH  28  31
ATOM     31  C   UNL     1       2.291   3.673   5.953  0.00  0.00    +0.041 A 
ATOM     32  C   UNL     1       2.929   4.888   5.709  0.00  0.00    +0.014 A 
ATOM     33  C   UNL     1       4.001   5.270   6.489  0.00  0.00    +0.021 A 
ATOM     34  C   UNL     1       4.451   4.444   7.505  0.00  0.00    +0.042 A 
ATOM     35  C   UNL     1       3.826   3.234   7.748  0.00  0.00    +0.040 A 
ATOM     36  C   UNL     1       2.748   2.845   6.977  0.00  0.00    +0.053 A 
ATOM     37 CL   UNL     1       1.963   1.326   7.283  0.00  0.00    -0.083 Cl
ATOM     38 CL   UNL     1       5.806   4.929   8.477  0.00  0.00    -0.083 Cl
ENDBRANCH  28  31
ENDBRANCH  25  26
ENDBRANCH   5  25
TORSDOF 5
