REMARK  Name = ZINC59105111
REMARK  6 active torsions:
REMARK  status: ('A' for Active; 'I' for Inactive)
REMARK    1  A    between atoms: C_1  and  N_2
REMARK    2  A    between atoms: N_4  and  C_22
REMARK    3  A    between atoms: C_8  and  C_9
REMARK    4  A    between atoms: C_12  and  O_16
REMARK    5  A    between atoms: O_16  and  C_17
REMARK    6  A    between atoms: C_17  and  C_18
REMARK                            x       y       z     vdW  Elec       q    Type
REMARK                         _______ _______ _______ _____ _____    ______ ____
ROOT
ATOM      1  C   UNL     1      -5.600  -2.790  -0.643  0.00  0.00    -0.022 A 
ATOM      2  C   UNL     1      -5.979  -1.470  -0.917  0.00  0.00    +0.027 A 
ATOM      3  C   UNL     1      -7.309  -1.162  -1.103  0.00  0.00    +0.061 A 
ATOM      4  C   UNL     1      -8.274  -2.159  -1.019  0.00  0.00    +0.149 A 
ATOM      5  C   UNL     1      -7.904  -3.471  -0.747  0.00  0.00    +0.061 A 
ATOM      6  C   UNL     1      -6.576  -3.791  -0.565  0.00  0.00    +0.027 A 
ATOM      7 BR   UNL     1      -9.224  -4.821  -0.634  0.00  0.00    -0.046 Br
ATOM      8 BR   UNL     1      -7.822   0.620  -1.473  0.00  0.00    -0.046 Br
ENDROOT
BRANCH   1  16
ATOM      9  C   UNL     1      -1.733  -8.331  -3.161  0.00  0.00    +0.173 C 
ATOM     10  N   UNL     1      -1.426  -7.351  -2.117  0.00  0.00    -0.266 NA
ATOM     11  C   UNL     1      -2.274  -6.397  -1.849  0.00  0.00    +0.163 C 
ATOM     12  N   UNL     1      -3.551  -6.219  -2.342  0.00  0.00    -0.249 N 
ATOM     13  C   UNL     1      -4.282  -5.185  -1.960  0.00  0.00    +0.259 C 
ATOM     14  O   UNL     1      -5.409  -5.012  -2.385  0.00  0.00    -0.269 OA
ATOM     15  C   UNL     1      -3.669  -4.251  -0.997  0.00  0.00    +0.078 C 
ATOM     16  C   UNL     1      -4.184  -3.124  -0.444  0.00  0.00    +0.028 C 
ATOM     17  S   UNL     1      -2.068  -5.006  -0.747  0.00  0.00    -0.049 S 
ATOM     18  C   UNL     1      -4.101  -7.184  -3.298  0.00  0.00    +0.140 C 
ENDBRANCH   1  16
BRANCH   4  19
ATOM     19  O   UNL     1      -9.584  -1.850  -1.203  0.00  0.00    -0.486 OA
BRANCH  19  20
ATOM     20  C   UNL     1     -10.087  -1.926  -2.538  0.00  0.00    +0.256 C 
BRANCH  20  21
ATOM     21  C   UNL     1     -11.546  -1.551  -2.548  0.00  0.00    +0.006 C 
ATOM     22  C   UNL     1     -12.008  -0.736  -3.463  0.00  0.00    +0.007 C 
ENDBRANCH  20  21
ENDBRANCH  19  20
ENDBRANCH   4  19
TORSDOF 4
