REMARK  Name = ZINC63589336
REMARK  12 active torsions:
REMARK  status: ('A' for Active; 'I' for Inactive)
REMARK    1  A    between atoms: C_1  and  C_2
REMARK    2  A    between atoms: C_2  and  O_3
REMARK    3  A    between atoms: O_3  and  C_4
REMARK    4  A    between atoms: C_7  and  C_13
REMARK    5  A    between atoms: C_9  and  O_10
REMARK    6  A    between atoms: O_10  and  C_11
REMARK    7  A    between atoms: C_11  and  C_12
REMARK    8  A    between atoms: C_13  and  N_15
REMARK    9  A    between atoms: N_17  and  C_18
REMARK   10  A    between atoms: N_25  and  C_26
REMARK   11  A    between atoms: C_26  and  C_27
REMARK   12  A    between atoms: C_27  and  C_28
REMARK                            x       y       z     vdW  Elec       q    Type
REMARK                         _______ _______ _______ _____ _____    ______ ____
ROOT
ATOM      1  N   UNL     1      -0.169  -7.348   0.368  0.00  0.00    -0.143 NA
ATOM      2  C   UNL     1       0.200  -8.086   1.403  0.00  0.00    +0.194 C 
ATOM      3  N   UNL     1       1.375  -7.820   2.047  0.00  0.00    -0.326 N 
ATOM      4  N   UNL     1      -0.593  -9.112   1.828  0.00  0.00    -0.357 N 
ATOM      5  H   UNL     1       1.545  -6.933   2.399  0.00  0.00    +0.169 HD
ATOM      6  H   UNL     1      -1.406  -9.328   1.344  0.00  0.00    +0.162 HD
ENDROOT
BRANCH   3   7
ATOM      7  C   UNL     1       2.333  -8.829   2.198  0.00  0.00    +0.077 A 
ATOM      8  C   UNL     1       2.523  -9.766   1.192  0.00  0.00    +0.028 A 
ATOM      9  C   UNL     1       3.469 -10.760   1.344  0.00  0.00    +0.002 A 
ATOM     10  C   UNL     1       4.229 -10.824   2.498  0.00  0.00    +0.003 A 
ATOM     11  C   UNL     1       4.044  -9.894   3.504  0.00  0.00    +0.040 A 
ATOM     12  C   UNL     1       3.102  -8.892   3.355  0.00  0.00    +0.147 A 
ATOM     13  F   UNL     1       2.926  -7.979   4.335  0.00  0.00    -0.203 F 
ENDBRANCH   3   7
BRANCH   1  14
ATOM     14  C   UNL     1       0.675  -6.441  -0.143  0.00  0.00    +0.270 C 
ATOM     15  O   UNL     1       1.742  -6.225   0.404  0.00  0.00    -0.268 OA
BRANCH  14  19
ATOM     16  C   UNL     1      -0.378  -4.317  -3.674  0.00  0.00    +0.162 A 
ATOM     17  C   UNL     1      -1.251  -5.258  -3.143  0.00  0.00    +0.050 A 
ATOM     18  C   UNL     1      -0.912  -5.947  -1.999  0.00  0.00    +0.017 A 
ATOM     19  C   UNL     1       0.310  -5.701  -1.371  0.00  0.00    +0.043 A 
ATOM     20  C   UNL     1       1.188  -4.755  -1.905  0.00  0.00    +0.062 A 
ATOM     21  C   UNL     1       0.846  -4.070  -3.055  0.00  0.00    +0.163 A 
BRANCH  16  22
ATOM     22  O   UNL     1      -0.716  -3.640  -4.802  0.00  0.00    -0.489 OA
BRANCH  22  24
ATOM     23  C   UNL     1      -2.188  -3.087  -6.637  0.00  0.00    +0.048 C 
ATOM     24  C   UNL     1      -1.986  -3.942  -5.385  0.00  0.00    +0.226 C 
ENDBRANCH  22  24
ENDBRANCH  16  22
BRANCH  21  25
ATOM     25  O   UNL     1       1.701  -3.152  -3.580  0.00  0.00    -0.489 OA
BRANCH  25  26
ATOM     26  C   UNL     1       2.937  -2.950  -2.893  0.00  0.00    +0.226 C 
ATOM     27  C   UNL     1       3.760  -1.889  -3.626  0.00  0.00    +0.048 C 
ENDBRANCH  25  26
ENDBRANCH  21  25
ENDBRANCH  14  19
ENDBRANCH   1  14
BRANCH   4  28
ATOM     28  C   UNL     1      -0.218  -9.886   3.013  0.00  0.00    +0.120 C 
BRANCH  28  29
ATOM     29  C   UNL     1      -1.295 -10.934   3.300  0.00  0.00    +0.054 C 
BRANCH  29  30
ATOM     30  C   UNL     1      -0.971 -11.649   4.586  0.00  0.00    -0.040 C 
ATOM     31  C   UNL     1      -1.415 -11.336   5.825  0.00  0.00    -0.001 A 
ATOM     32  C   UNL     1      -2.297 -10.275   6.326  0.00  0.00    +0.010 A 
ATOM     33  C   UNL     1      -2.564 -10.216   7.651  0.00  0.00    +0.001 A 
ATOM     34  C   UNL     1      -2.019 -11.138   8.555  0.00  0.00    +0.002 A 
ATOM     35  C   UNL     1      -1.200 -12.139   8.170  0.00  0.00    +0.026 A 
ATOM     36  C   UNL     1      -0.852 -12.297   6.800  0.00  0.00    +0.043 A 
ATOM     37  N   UNL     1      -0.090 -13.171   6.188  0.00  0.00    -0.380 N 
ATOM     38  C   UNL     1      -0.088 -12.866   4.753  0.00  0.00    +0.144 C 
ATOM     39  H   UNL     1       0.388 -13.900   6.612  0.00  0.00    +0.160 HD
ENDBRANCH  29  30
ENDBRANCH  28  29
ENDBRANCH   4  28
TORSDOF 10
