REMARK  Name = ZINC43757366
REMARK  8 active torsions:
REMARK  status: ('A' for Active; 'I' for Inactive)
REMARK    1  A    between atoms: C_1  and  C_2
REMARK    2  A    between atoms: C_2  and  C_4
REMARK    3  A    between atoms: C_2  and  O_32
REMARK    4  A    between atoms: C_4  and  O_31
REMARK    5  A    between atoms: C_9  and  C_30
REMARK    6  A    between atoms: C_17  and  O_29
REMARK    7  A    between atoms: C_21  and  C_28
REMARK    8  A    between atoms: C_24  and  O_27
REMARK                            x       y       z     vdW  Elec       q    Type
REMARK                         _______ _______ _______ _____ _____    ______ ____
ROOT
ATOM      1  C   UNL     1       0.655  -0.514   1.251  0.00  0.00    +0.097 C 
ATOM      2  C   UNL     1       2.119   0.002   1.225  0.00  0.00    +0.038 C 
ATOM      3  C   UNL     1       3.021  -1.247   1.015  0.00  0.00    +0.007 C 
ATOM      4  C   UNL     1       2.035  -2.250   0.393  0.00  0.00    +0.001 C 
ATOM      5  C   UNL     1       0.797  -2.047   1.291  0.00  0.00    +0.002 C 
ATOM      6  C   UNL     1      -0.365  -2.854   0.782  0.00  0.00    +0.010 C 
ATOM      7  C   UNL     1       0.039  -4.305   0.476  0.00  0.00    +0.005 C 
ATOM      8  C   UNL     1       1.452  -4.638   0.910  0.00  0.00    -0.001 C 
ATOM      9  C   UNL     1       2.479  -3.679   0.311  0.00  0.00    -0.001 C 
ATOM     10  C   UNL     1       3.835  -3.931   0.968  0.00  0.00    +0.035 C 
ATOM     11  C   UNL     1       4.259  -5.377   0.673  0.00  0.00    +0.119 C 
ATOM     12  C   UNL     1       3.193  -6.067  -0.172  0.00  0.00    +0.026 C 
ATOM     13  C   UNL     1       1.841  -6.075   0.535  0.00  0.00    -0.024 C 
ATOM     14  C   UNL     1       0.791  -6.690  -0.387  0.00  0.00    +0.010 C 
ATOM     15  C   UNL     1       1.192  -8.111  -0.778  0.00  0.00    +0.032 C 
ATOM     16  C   UNL     1       2.569  -8.127  -1.437  0.00  0.00    +0.115 C 
ATOM     17  C   UNL     1       3.615  -7.496  -0.516  0.00  0.00    +0.038 C 
ATOM     18  C   UNL     1       1.917  -6.887   1.833  0.00  0.00    +0.012 C 
ATOM     19  C   UNL     1       1.079  -2.384   2.763  0.00  0.00    +0.014 C 
ENDROOT
BRANCH   1  21
ATOM     20  C   UNL     1      -0.198   1.490   0.036  0.00  0.00    +0.040 C 
ATOM     21  C   UNL     1      -0.093  -0.037   0.013  0.00  0.00    +0.144 C 
BRANCH  21  22
ATOM     22  O   UNL     1      -1.405  -0.604   0.001  0.00  0.00    -0.389 OA
ATOM     23  H   UNL     1      -1.943  -0.367   0.768  0.00  0.00    +0.210 HD
ENDBRANCH  21  22
ENDBRANCH   1  21
BRANCH  16  24
ATOM     24  O   UNL     1       2.520  -7.406  -2.670  0.00  0.00    -0.392 OA
ATOM     25  H   UNL     1       1.895  -7.768  -3.312  0.00  0.00    +0.210 HD
ENDBRANCH  16  24
BRANCH  11  26
ATOM     26  O   UNL     1       5.497  -5.356  -0.048  0.00  0.00    -0.391 OA
ATOM     27  H   UNL     1       6.223  -4.931   0.429  0.00  0.00    +0.210 HD
ENDBRANCH  11  26
BRANCH   1  28
ATOM     28  O   UNL     1       0.000  -0.066   2.439  0.00  0.00    -0.385 OA
ATOM     29  H   UNL     1      -0.077   0.896   2.508  0.00  0.00    +0.210 HD
ENDBRANCH   1  28
TORSDOF 5
