REMARK  Name = ZINC41586428
REMARK  9 active torsions:
REMARK  status: ('A' for Active; 'I' for Inactive)
REMARK    1  A    between atoms: C_1  and  C_2
REMARK    2  A    between atoms: C_2  and  O_3
REMARK    3  A    between atoms: O_3  and  C_4
REMARK    4  A    between atoms: C_4  and  C_6
REMARK    5  A    between atoms: N_11  and  C_13
REMARK    6  A    between atoms: C_13  and  C_14
REMARK    7  A    between atoms: C_15  and  O_32
REMARK    8  A    between atoms: C_17  and  C_31
REMARK    9  A    between atoms: C_22  and  C_23
REMARK                            x       y       z     vdW  Elec       q    Type
REMARK                         _______ _______ _______ _____ _____    ______ ____
ROOT
ATOM      1  C   UNL     1       3.057  -6.502   4.600  0.00  0.00    +0.020 A 
ATOM      2  C   UNL     1       4.423  -6.674   4.439  0.00  0.00    +0.122 A 
ATOM      3  C   UNL     1       5.197  -7.199   5.471  0.00  0.00    +0.050 A 
ATOM      4  C   UNL     1       4.614  -7.549   6.656  0.00  0.00    -0.033 A 
ATOM      5  C   UNL     1       3.241  -7.380   6.832  0.00  0.00    +0.071 A 
ATOM      6  C   UNL     1       2.450  -6.847   5.801  0.00  0.00    +0.145 A 
ATOM      7  O   UNL     1       1.163  -6.772   6.203  0.00  0.00    -0.451 OA
ATOM      8  C   UNL     1       1.004  -7.221   7.470  0.00  0.00    +0.178 C 
ATOM      9  C   UNL     1      -0.160  -7.276   8.160  0.00  0.00    +0.078 C 
ATOM     10  C   UNL     1       2.328  -7.650   7.958  0.00  0.00    +0.232 C 
ATOM     11  O   UNL     1       2.607  -8.113   9.050  0.00  0.00    -0.283 OA
ATOM     12  C   UNL     1       5.454  -8.116   7.771  0.00  0.00    +0.045 C 
ENDROOT
BRANCH   9  13
ATOM     13  C   UNL     1      -1.410  -6.821   7.532  0.00  0.00    +0.067 A 
ATOM     14  C   UNL     1      -2.608  -6.875   8.250  0.00  0.00    +0.028 A 
ATOM     15  C   UNL     1      -3.775  -6.442   7.644  0.00  0.00    +0.004 A 
ATOM     16  C   UNL     1      -3.709  -5.969   6.341  0.00  0.00    +0.020 A 
ATOM     17  C   UNL     1      -2.489  -5.943   5.688  0.00  0.00    +0.111 A 
ATOM     18  N   UNL     1      -1.391  -6.355   6.286  0.00  0.00    -0.255 NA
ENDBRANCH   9  13
BRANCH   2  19
ATOM     19  O   UNL     1       5.011  -6.330   3.266  0.00  0.00    -0.506 OA
ATOM     20  H   UNL     1       5.321  -5.414   3.235  0.00  0.00    +0.292 HD
ENDBRANCH   2  19
BRANCH   1  21
ATOM     21  C   UNL     1       2.232  -5.933   3.475  0.00  0.00    -0.036 C 
BRANCH  21  26
ATOM     22  C   UNL     1       1.516  -2.381   2.500  0.00  0.00    +0.081 C 
ATOM     23  C   UNL     1       0.812  -1.927   3.782  0.00  0.00    +0.011 C 
ATOM     24  C   UNL     1       1.499  -2.578   4.987  0.00  0.00    -0.018 C 
ATOM     25  C   UNL     1       1.477  -4.098   4.820  0.00  0.00    -0.078 C 
ATOM     26  N   UNL     1       2.188  -4.470   3.591  0.00  0.00    +0.383 N 
ATOM     27  C   UNL     1       1.495  -3.909   2.425  0.00  0.00    -0.064 C 
ATOM     28  H   UNL     1       3.130  -4.109   3.626  0.00  0.00    -0.081 HD
BRANCH  22  29
ATOM     29  C   UNL     1       0.801  -1.808   1.304  0.00  0.00    +0.308 C 
ATOM     30  O   UNL     1       0.324  -2.546   0.475  0.00  0.00    -0.251 OA
BRANCH  29  31
ATOM     31  O   UNL     1       0.693  -0.477   1.160  0.00  0.00    -0.465 OA
BRANCH  31  33
ATOM     32  C   UNL     1      -0.019   1.526   0.010  0.00  0.00    +0.048 C 
ATOM     33  C   UNL     1       0.002  -0.004   0.002  0.00  0.00    +0.229 C 
ENDBRANCH  31  33
ENDBRANCH  29  31
ENDBRANCH  22  29
ENDBRANCH  21  26
ENDBRANCH   1  21
TORSDOF 7
