REMARK  Name = ZINC12103885
REMARK  12 active torsions:
REMARK  status: ('A' for Active; 'I' for Inactive)
REMARK    1  A    between atoms: C_1  and  C_2
REMARK    2  A    between atoms: C_2  and  C_3
REMARK    3  A    between atoms: C_2  and  C_4
REMARK    4  A    between atoms: C_4  and  N_5
REMARK    5  A    between atoms: N_5  and  C_6
REMARK    6  A    between atoms: C_7  and  N_22
REMARK    7  A    between atoms: N_8  and  C_15
REMARK    8  A    between atoms: C_15  and  C_16
REMARK    9  A    between atoms: C_23  and  C_25
REMARK   10  A    between atoms: C_25  and  S_26
REMARK   11  A    between atoms: S_26  and  C_27
REMARK   12  A    between atoms: C_31  and  C_33
REMARK                            x       y       z     vdW  Elec       q    Type
REMARK                         _______ _______ _______ _____ _____    ______ ____
ROOT
ATOM      1  N   UNL     1      -1.375  -2.084   0.143  0.00  0.00    -0.263 N 
ATOM      2  C   UNL     1      -1.342  -2.912  -0.922  0.00  0.00    +0.230 C 
ATOM      3  O   UNL     1      -1.506  -4.104  -0.768  0.00  0.00    -0.274 OA
ENDROOT
BRANCH   1   4
ATOM      4  C   UNL     1      -1.490  -2.613   1.446  0.00  0.00    +0.140 A 
ATOM      5  C   UNL     1      -2.574  -2.296   2.238  0.00  0.00    +0.128 A 
ATOM      6  N   UNL     1      -2.659  -2.828   3.504  0.00  0.00    -0.276 N 
ATOM      7  C   UNL     1      -1.696  -3.648   3.964  0.00  0.00    +0.331 A 
ATOM      8  O   UNL     1      -1.790  -4.107   5.086  0.00  0.00    -0.246 OA
ATOM      9  N   UNL     1      -0.633  -3.968   3.205  0.00  0.00    -0.273 N 
ATOM     10  H   UNL     1       0.047  -4.562   3.560  0.00  0.00    +0.173 HD
ATOM     11  C   UNL     1      -0.505  -3.479   1.957  0.00  0.00    +0.277 A 
ATOM     12  O   UNL     1       0.461  -3.780   1.276  0.00  0.00    -0.266 OA
BRANCH   5  13
ATOM     13  N   UNL     1      -3.557  -1.458   1.769  0.00  0.00    -0.343 N 
ATOM     14  H   UNL     1      -3.541  -1.161   0.846  0.00  0.00    +0.144 HD
ATOM     15  H   UNL     1      -4.267  -1.164   2.361  0.00  0.00    +0.144 HD
ENDBRANCH   5  13
BRANCH   6  16
ATOM     16  C   UNL     1      -3.804  -2.500   4.357  0.00  0.00    +0.163 C 
BRANCH  16  17
ATOM     17  C   UNL     1      -4.903  -3.506   4.131  0.00  0.00    -0.028 A 
ATOM     18  C   UNL     1      -5.855  -3.283   3.154  0.00  0.00    +0.005 A 
ATOM     19  C   UNL     1      -6.863  -4.206   2.947  0.00  0.00    +0.000 A 
ATOM     20  C   UNL     1      -6.919  -5.353   3.717  0.00  0.00    +0.000 A 
ATOM     21  C   UNL     1      -5.967  -5.576   4.694  0.00  0.00    +0.000 A 
ATOM     22  C   UNL     1      -4.956  -4.655   4.898  0.00  0.00    +0.005 A 
ENDBRANCH  16  17
ENDBRANCH   6  16
ENDBRANCH   1   4
BRANCH   1  23
ATOM     23  C   UNL     1      -1.290  -0.634  -0.054  0.00  0.00    +0.117 C 
BRANCH  23  25
ATOM     24  C   UNL     1       0.262   1.261  -0.544  0.00  0.00    +0.009 C 
ATOM     25  C   UNL     1       0.178  -0.221  -0.175  0.00  0.00    +0.001 C 
ATOM     26  C   UNL     1       0.886  -0.454   1.161  0.00  0.00    +0.009 C 
ENDBRANCH  23  25
ENDBRANCH   1  23
BRANCH   2  27
ATOM     27  C   UNL     1      -1.102  -2.356  -2.302  0.00  0.00    +0.173 C 
BRANCH  27  28
ATOM     28  S   UNL     1      -1.115  -3.710  -3.510  0.00  0.00    -0.077 S 
BRANCH  28  29
ATOM     29  C   UNL     1      -0.826  -2.908  -5.052  0.00  0.00    +0.185 A 
ATOM     30  N   UNL     1      -0.754  -3.508  -6.259  0.00  0.00    -0.254 N 
ATOM     31  H   UNL     1      -0.850  -4.455  -6.444  0.00  0.00    +0.191 HD
ATOM     32  N   UNL     1      -0.511  -2.488  -7.194  0.00  0.00    -0.157 NA
ATOM     33  C   UNL     1      -0.451  -1.367  -6.527  0.00  0.00    +0.155 A 
ATOM     34  N   UNL     1      -0.647  -1.616  -5.232  0.00  0.00    -0.205 NA
BRANCH  33  35
ATOM     35  C   UNL     1      -0.206  -0.006  -7.128  0.00  0.00    +0.059 C 
ATOM     36  C   UNL     1      -1.274   0.298  -8.199  0.00  0.00    +0.011 C 
ATOM     37  C   UNL     1      -0.499   1.063  -9.301  0.00  0.00    +0.001 C 
ATOM     38  C   UNL     1       0.867   0.334  -9.327  0.00  0.00    +0.001 C 
ATOM     39  C   UNL     1       1.155   0.017  -7.845  0.00  0.00    +0.011 C 
ENDBRANCH  33  35
ENDBRANCH  28  29
ENDBRANCH  27  28
ENDBRANCH   2  27
TORSDOF 10
