REMARK  Name = ZINC04168802
REMARK  7 active torsions:
REMARK  status: ('A' for Active; 'I' for Inactive)
REMARK    1  A    between atoms: C_1  and  O_2
REMARK    2  A    between atoms: O_2  and  C_3
REMARK    3  A    between atoms: C_6  and  C_9
REMARK    4  A    between atoms: C_16  and  N_35
REMARK    5  A    between atoms: C_17  and  C_33
REMARK    6  A    between atoms: C_18  and  C_20
REMARK    7  A    between atoms: C_25  and  C_26
REMARK                            x       y       z     vdW  Elec       q    Type
REMARK                         _______ _______ _______ _____ _____    ______ ____
ROOT
ATOM      1  C   UNL     1      -4.868  -2.684   0.751  0.00  0.00    +0.100 A 
ATOM      2  C   UNL     1      -5.241  -3.662  -0.176  0.00  0.00    +0.054 A 
ATOM      3  C   UNL     1      -6.541  -4.000   0.067  0.00  0.00    +0.223 A 
ATOM      4  N   UNL     1      -6.970  -3.261   1.111  0.00  0.00    -0.246 N 
ATOM      5  H   UNL     1      -7.855  -3.290   1.505  0.00  0.00    +0.192 HD
ATOM      6  N   UNL     1      -5.907  -2.445   1.529  0.00  0.00    -0.171 NA
ATOM      7  O   UNL     1      -7.206  -4.927  -0.667  0.00  0.00    -0.423 OA
ATOM      8  C   UNL     1      -6.645  -5.324  -1.828  0.00  0.00    +0.200 C 
ATOM      9  C   UNL     1      -5.365  -5.062  -2.173  0.00  0.00    +0.098 C 
ATOM     10  C   UNL     1      -4.428  -4.292  -1.277  0.00  0.00    +0.105 C 
ENDROOT
BRANCH   1  14
ATOM     11  C   UNL     1      -1.053  -0.821   1.024  0.00  0.00    +0.120 A 
ATOM     12  C   UNL     1      -1.716  -1.216   2.179  0.00  0.00    +0.046 A 
ATOM     13  C   UNL     1      -2.953  -1.821   2.093  0.00  0.00    +0.013 A 
ATOM     14  C   UNL     1      -3.538  -2.033   0.846  0.00  0.00    +0.003 A 
ATOM     15  C   UNL     1      -2.871  -1.635  -0.311  0.00  0.00    +0.013 A 
ATOM     16  C   UNL     1      -1.636  -1.027  -0.218  0.00  0.00    +0.046 A 
BRANCH  11  18
ATOM     17  C   UNL     1       0.706  -0.045   2.422  0.00  0.00    +0.277 C 
ATOM     18  O   UNL     1       0.165  -0.226   1.112  0.00  0.00    -0.495 OA
ENDBRANCH  11  18
ENDBRANCH   1  14
BRANCH  10  19
ATOM     19  C   UNL     1      -3.408  -5.229  -0.683  0.00  0.00    +0.010 A 
ATOM     20  C   UNL     1      -3.666  -6.266   0.142  0.00  0.00    +0.110 A 
ATOM     21  N   UNL     1      -2.491  -6.856   0.451  0.00  0.00    -0.284 N 
ATOM     22  H   UNL     1      -2.375  -7.627   1.027  0.00  0.00    +0.188 HD
ATOM     23  N   UNL     1      -1.468  -6.160  -0.206  0.00  0.00    -0.174 NA
ATOM     24  C   UNL     1      -2.016  -5.182  -0.896  0.00  0.00    +0.097 A 
BRANCH  24  25
ATOM     25  C   UNL     1      -1.295  -4.201  -1.745  0.00  0.00    +0.003 A 
ATOM     26  C   UNL     1      -1.836  -3.802  -2.965  0.00  0.00    +0.013 A 
ATOM     27  C   UNL     1      -1.162  -2.890  -3.751  0.00  0.00    +0.039 A 
ATOM     28  C   UNL     1       0.051  -2.372  -3.329  0.00  0.00    +0.123 A 
ATOM     29  C   UNL     1       0.593  -2.766  -2.116  0.00  0.00    +0.039 A 
ATOM     30  C   UNL     1      -0.077  -3.673  -1.321  0.00  0.00    +0.013 A 
ATOM     31  F   UNL     1       0.708  -1.479  -4.102  0.00  0.00    -0.205 F 
ENDBRANCH  24  25
ENDBRANCH  10  19
BRANCH   8  32
ATOM     32  N   UNL     1      -7.420  -6.036  -2.709  0.00  0.00    -0.328 N 
ATOM     33  H   UNL     1      -8.342  -6.240  -2.489  0.00  0.00    +0.145 HD
ATOM     34  H   UNL     1      -7.045  -6.335  -3.553  0.00  0.00    +0.145 HD
ENDBRANCH   8  32
BRANCH   9  35
ATOM     35  C   UNL     1      -4.881  -5.532  -3.436  0.00  0.00    +0.101 C 
ATOM     36  N   UNL     1      -4.497  -5.906  -4.438  0.00  0.00    -0.191 NA
ENDBRANCH   9  35
TORSDOF 6
