REMARK  Name = ZINC09102246
REMARK  14 active torsions:
REMARK  status: ('A' for Active; 'I' for Inactive)
REMARK    1  A    between atoms: C_1  and  C_2
REMARK    2  A    between atoms: C_2  and  C_4
REMARK    3  A    between atoms: C_2  and  N_61
REMARK    4  A    between atoms: C_7  and  S_16
REMARK    5  A    between atoms: N_8  and  C_9
REMARK    6  A    between atoms: S_16  and  C_17
REMARK    7  A    between atoms: C_17  and  C_19
REMARK    8  A    between atoms: C_17  and  C_20
REMARK    9  A    between atoms: N_22  and  C_23
REMARK   10  A    between atoms: C_26  and  N_29
REMARK   11  A    between atoms: N_29  and  C_30
REMARK   12  A    between atoms: N_29  and  C_31
REMARK   13  A    between atoms: C_32  and  N_61
REMARK   14  A    between atoms: C_33  and  N_61
REMARK                            x       y       z     vdW  Elec       q    Type
REMARK                         _______ _______ _______ _____ _____    ______ ____
ROOT
ATOM      1  C   UNL     1       1.407  -0.334   2.777  0.00  0.00    +0.125 A 
ATOM      2  N   UNL     1       1.819  -1.124   1.826  0.00  0.00    -0.135 NA
ATOM      3  N   UNL     1       1.568  -2.348   2.127  0.00  0.00    -0.122 NA
ATOM      4  C   UNL     1       0.978  -2.408   3.298  0.00  0.00    +0.197 A 
ATOM      5  N   UNL     1       0.860  -1.124   3.754  0.00  0.00    -0.275 N 
ENDROOT
BRANCH   5   6
ATOM      6  C   UNL     1       0.295  -0.703   4.967  0.00  0.00    +0.050 A 
ATOM      7  C   UNL     1       1.089  -0.097   5.930  0.00  0.00    +0.028 A 
ATOM      8  C   UNL     1       0.530   0.321   7.122  0.00  0.00    +0.022 A 
ATOM      9  C   UNL     1      -0.819   0.125   7.360  0.00  0.00    +0.041 A 
ATOM     10  C   UNL     1      -1.612  -0.484   6.404  0.00  0.00    +0.022 A 
ATOM     11  C   UNL     1      -1.058  -0.899   5.208  0.00  0.00    +0.028 A 
ATOM     12 CL   UNL     1      -1.518   0.646   8.861  0.00  0.00    -0.084 Cl
ENDBRANCH   5   6
BRANCH   1  14
ATOM     13  C   UNL     1       2.965   1.568   3.098  0.00  0.00    -0.005 C 
ATOM     14  C   UNL     1       1.518   1.169   2.802  0.00  0.00    -0.003 C 
BRANCH  14  17
ATOM     15  C   UNL     1       1.993   1.212   0.428  0.00  0.00    -0.096 C 
ATOM     16  C   UNL     1       1.099   3.179   1.520  0.00  0.00    -0.096 C 
ATOM     17  N   UNL     1       1.091   1.702   1.491  0.00  0.00    +0.382 N 
ATOM     18  H   UNL     1       0.137   1.377   1.295  0.00  0.00    -0.082 HD
ENDBRANCH  14  17
ENDBRANCH   1  14
BRANCH   4  19
ATOM     19  S   UNL     1       0.445  -3.868   4.128  0.00  0.00    -0.073 S 
BRANCH  19  20
ATOM     20  C   UNL     1       0.947  -5.119   2.920  0.00  0.00    +0.137 C 
ATOM     21  C   UNL     1       0.139  -4.938   1.633  0.00  0.00    +0.029 C 
BRANCH  20  22
ATOM     22  C   UNL     1       0.692  -6.493   3.483  0.00  0.00    +0.230 C 
ATOM     23  O   UNL     1      -0.155  -6.651   4.336  0.00  0.00    -0.274 OA
ATOM     24  N   UNL     1       1.407  -7.546   3.040  0.00  0.00    -0.285 N 
ATOM     25  H   UNL     1       2.033  -7.433   2.308  0.00  0.00    +0.155 HD
BRANCH  24  26
ATOM     26  C   UNL     1       1.245  -8.804   3.636  0.00  0.00    +0.034 A 
ATOM     27  C   UNL     1       0.995  -8.899   4.999  0.00  0.00    +0.025 A 
ATOM     28  C   UNL     1       0.830 -10.137   5.586  0.00  0.00    +0.025 A 
ATOM     29  C   UNL     1       0.925 -11.289   4.815  0.00  0.00    +0.029 A 
ATOM     30  C   UNL     1       1.182 -11.194   3.454  0.00  0.00    +0.025 A 
ATOM     31  C   UNL     1       1.341  -9.955   2.866  0.00  0.00    +0.025 A 
BRANCH  29  32
ATOM     32  N   UNL     1       0.763 -12.544   5.411  0.00  0.00    -0.336 N 
ATOM     33  C   UNL     1       0.893 -13.760   4.604  0.00  0.00    +0.129 C 
ATOM     34  C   UNL     1       0.463 -12.643   6.841  0.00  0.00    +0.129 C 
ENDBRANCH  29  32
ENDBRANCH  24  26
ENDBRANCH  20  22
ENDBRANCH  19  20
ENDBRANCH   4  19
TORSDOF 8
