REMARK  Name = ZINC52342131
REMARK  5 active torsions:
REMARK  status: ('A' for Active; 'I' for Inactive)
REMARK    1  A    between atoms: C_1  and  C_2
REMARK    2  A    between atoms: C_2  and  C_4
REMARK    3  A    between atoms: C_2  and  N_10
REMARK    4  A    between atoms: C_11  and  C_15
REMARK    5  A    between atoms: C_19  and  N_21
REMARK                            x       y       z     vdW  Elec       q    Type
REMARK                         _______ _______ _______ _____ _____    ______ ____
ROOT
ATOM      1  N   UNL     1      -1.311  -0.903   0.167  0.00  0.00    -0.222 N 
ATOM      2  C   UNL     1      -1.995  -1.223  -0.960  0.00  0.00    +0.182 A 
ATOM      3  N   UNL     1      -3.276  -1.089  -0.685  0.00  0.00    -0.108 NA
ATOM      4  N   UNL     1      -3.437  -0.709   0.531  0.00  0.00    -0.023 NA
ATOM      5  N   UNL     1      -2.296  -0.579   1.117  0.00  0.00    -0.043 NA
ENDROOT
BRANCH   2   6
ATOM      6  C   UNL     1      -1.412  -1.643  -2.253  0.00  0.00    +0.023 A 
ATOM      7  C   UNL     1      -0.175  -1.140  -2.659  0.00  0.00    +0.014 A 
ATOM      8  C   UNL     1       0.368  -1.532  -3.865  0.00  0.00    +0.041 A 
ATOM      9  C   UNL     1      -0.312  -2.424  -4.678  0.00  0.00    +0.144 A 
ATOM     10  C   UNL     1      -1.547  -2.929  -4.281  0.00  0.00    +0.061 A 
ATOM     11  C   UNL     1      -2.095  -2.545  -3.068  0.00  0.00    +0.037 A 
ATOM     12  F   UNL     1       0.224  -2.804  -5.858  0.00  0.00    -0.204 F 
BRANCH  10  13
ATOM     13  N   UNL     1      -2.231  -3.829  -5.104  0.00  0.00    -0.356 N 
ATOM     14  H   UNL     1      -1.846  -4.101  -5.952  0.00  0.00    +0.142 HD
ATOM     15  H   UNL     1      -3.092  -4.181  -4.828  0.00  0.00    +0.142 HD
ENDBRANCH  10  13
ENDBRANCH   2   6
BRANCH   1  17
ATOM     16  C   UNL     1       0.628   0.533   0.566  0.00  0.00    +0.033 C 
ATOM     17  C   UNL     1       0.141  -0.903   0.356  0.00  0.00    +0.111 C 
BRANCH  17  18
ATOM     18  C   UNL     1       0.496  -1.746   1.583  0.00  0.00    +0.013 C 
ATOM     19  C   UNL     1       2.014  -1.745   1.780  0.00  0.00    +0.005 C 
ATOM     20  C   UNL     1       2.369  -2.588   3.006  0.00  0.00    +0.000 C 
ATOM     21  C   UNL     1       1.883  -4.024   2.797  0.00  0.00    +0.000 C 
ATOM     22  C   UNL     1       0.365  -4.024   2.599  0.00  0.00    +0.000 C 
ATOM     23  C   UNL     1       0.010  -3.181   1.373  0.00  0.00    +0.005 C 
ENDBRANCH  17  18
ENDBRANCH   1  17
TORSDOF 4
