REMARK  Name = ZINC08636191
REMARK  13 active torsions:
REMARK  status: ('A' for Active; 'I' for Inactive)
REMARK    1  A    between atoms: C_1  and  N_2
REMARK    2  A    between atoms: N_2  and  C_3
REMARK    3  A    between atoms: N_2  and  C_4
REMARK    4  A    between atoms: C_7  and  N_10
REMARK    5  A    between atoms: N_10  and  C_11
REMARK    6  A    between atoms: C_11  and  N_13
REMARK    7  A    between atoms: N_13  and  C_14
REMARK    8  A    between atoms: C_14  and  C_15
REMARK    9  A    between atoms: C_23  and  C_25
REMARK   10  A    between atoms: C_25  and  N_64
REMARK   11  A    between atoms: C_26  and  N_64
REMARK   12  A    between atoms: C_27  and  C_28
REMARK   13  A    between atoms: C_27  and  N_64
REMARK                            x       y       z     vdW  Elec       q    Type
REMARK                         _______ _______ _______ _____ _____    ______ ____
ROOT
ATOM      1  C   UNL     1       1.218   4.881  -4.228  0.00  0.00    +0.088 C 
ENDROOT
BRANCH   1   2
ATOM      2  C   UNL     1       2.294   5.727  -3.543  0.00  0.00    -0.051 C 
ATOM      3  C   UNL     1       1.614   6.705  -2.554  0.00  0.00    -0.010 C 
ATOM      4  C   UNL     1       2.164   6.418  -1.151  0.00  0.00    -0.015 C 
ATOM      5  C   UNL     1       3.688   6.594  -1.159  0.00  0.00    -0.015 C 
ATOM      6  C   UNL     1       4.292   5.625  -2.179  0.00  0.00    -0.078 C 
ATOM      7  C   UNL     1       2.497   4.039  -1.817  0.00  0.00    -0.076 C 
ATOM      8  C   UNL     1       1.842   4.964  -0.787  0.00  0.00    -0.041 C 
ATOM      9  N   UNL     1       3.228   4.831  -2.830  0.00  0.00    +0.383 N 
ATOM     10  H   UNL     1       3.658   4.189  -3.507  0.00  0.00    -0.081 HD
BRANCH   8  11
ATOM     11  C   UNL     1       0.326   4.756  -0.802  0.00  0.00    -0.077 C 
BRANCH  11  13
ATOM     12  C   UNL     1       0.375   3.228   1.076  0.00  0.00    -0.096 C 
ATOM     13  N   UNL     1       0.029   3.379  -0.353  0.00  0.00    +0.380 N 
ATOM     14  H   UNL     1       0.592   2.720  -0.904  0.00  0.00    -0.082 HD
BRANCH  13  15
ATOM     15  C   UNL     1      -1.403   3.078  -0.560  0.00  0.00    -0.052 C 
BRANCH  15  16
ATOM     16  C   UNL     1      -1.633   1.611  -0.305  0.00  0.00    -0.053 C 
ATOM     17  C   UNL     1      -2.545   1.231   0.555  0.00  0.00    +0.002 C 
ENDBRANCH  15  16
ENDBRANCH  13  15
ENDBRANCH  11  13
ENDBRANCH   8  11
ENDBRANCH   1   2
BRANCH   1  18
ATOM     18  N   UNL     1       1.858   3.870  -5.074  0.00  0.00    -0.328 N 
ATOM     19  H   UNL     1       2.825   3.823  -5.127  0.00  0.00    +0.148 HD
BRANCH  18  20
ATOM     20  C   UNL     1       1.102   3.006  -5.779  0.00  0.00    +0.134 C 
ATOM     21  S   UNL     1      -0.606   3.088  -5.686  0.00  0.00    -0.019 S 
BRANCH  20  22
ATOM     22  N   UNL     1       1.690   2.075  -6.557  0.00  0.00    -0.297 N 
ATOM     23  H   UNL     1       2.654   2.067  -6.658  0.00  0.00    +0.154 HD
BRANCH  22  27
ATOM     24  C   UNL     1      -0.638  -0.767  -8.530  0.00  0.00    +0.029 A 
ATOM     25  C   UNL     1      -1.014   0.570  -8.545  0.00  0.00    +0.025 A 
ATOM     26  C   UNL     1      -0.243   1.510  -7.892  0.00  0.00    +0.025 A 
ATOM     27  C   UNL     1       0.907   1.120  -7.220  0.00  0.00    +0.033 A 
ATOM     28  C   UNL     1       1.286  -0.216  -7.210  0.00  0.00    +0.025 A 
ATOM     29  C   UNL     1       0.513  -1.158  -7.858  0.00  0.00    +0.025 A 
BRANCH  24  31
ATOM     30  C   UNL     1      -2.565  -1.296 -10.000  0.00  0.00    +0.129 C 
ATOM     31  N   UNL     1      -1.419  -1.721  -9.193  0.00  0.00    -0.336 N 
ATOM     32  C   UNL     1      -1.090  -3.144  -9.079  0.00  0.00    +0.129 C 
ENDBRANCH  24  31
ENDBRANCH  22  27
ENDBRANCH  20  22
ENDBRANCH  18  20
ENDBRANCH   1  18
TORSDOF 10
