REMARK  Name = ZINC35388152
REMARK  6 active torsions:
REMARK  status: ('A' for Active; 'I' for Inactive)
REMARK    1  A    between atoms: C_4  and  C_7
REMARK    2  A    between atoms: C_7  and  N_8
REMARK    3  A    between atoms: N_8  and  C_9
REMARK    4  A    between atoms: C_17  and  C_19
REMARK    5  A    between atoms: C_19  and  N_20
REMARK    6  A    between atoms: C_29  and  C_31
REMARK                            x       y       z     vdW  Elec       q    Type
REMARK                         _______ _______ _______ _____ _____    ______ ____
ROOT
ATOM      1  N   UNL     1       4.830  -1.855   2.518  0.00  0.00    -0.291 N 
ATOM      2  C   UNL     1       5.234  -0.608   2.830  0.00  0.00    +0.230 C 
ATOM      3  O   UNL     1       5.415   0.208   1.952  0.00  0.00    -0.274 OA
ENDROOT
BRANCH   1   4
ATOM      4  C   UNL     1       4.720  -2.874   3.566  0.00  0.00    +0.099 C 
ATOM      5  C   UNL     1       6.124  -3.273   4.051  0.00  0.00    +0.047 C 
ATOM      6  C   UNL     1       6.039  -4.557   4.912  0.00  0.00    +0.168 C 
ATOM      7  S   UNL     1       4.554  -5.402   4.231  0.00  0.00    -0.029 S 
ATOM      8  O   UNL     1       3.567  -5.493   5.249  0.00  0.00    -0.174 OA
ATOM      9  O   UNL     1       4.964  -6.579   3.548  0.00  0.00    -0.174 OA
ATOM     10  C   UNL     1       4.027  -4.143   2.994  0.00  0.00    +0.188 C 
ENDBRANCH   1   4
BRANCH   1  11
ATOM     11  C   UNL     1       4.501  -2.193   1.131  0.00  0.00    +0.143 C 
BRANCH  11  15
ATOM     12  C   UNL     1       0.392  -1.298   0.381  0.00  0.00    +0.000 A 
ATOM     13  C   UNL     1       1.346  -0.302   0.281  0.00  0.00    +0.000 A 
ATOM     14  C   UNL     1       2.676  -0.592   0.524  0.00  0.00    +0.005 A 
ATOM     15  C   UNL     1       3.052  -1.877   0.867  0.00  0.00    -0.030 A 
ATOM     16  C   UNL     1       2.098  -2.872   0.968  0.00  0.00    +0.005 A 
ATOM     17  C   UNL     1       0.768  -2.583   0.724  0.00  0.00    +0.000 A 
ENDBRANCH  11  15
ENDBRANCH   1  11
BRANCH   2  18
ATOM     18  C   UNL     1       5.461  -0.228   4.271  0.00  0.00    +0.181 C 
BRANCH  18  19
ATOM     19  N   UNL     1       5.837   1.190   4.350  0.00  0.00    -0.278 NA
ATOM     20  C   UNL     1       7.210   1.396   3.877  0.00  0.00    +0.121 C 
ATOM     21  C   UNL     1       7.617   2.835   4.054  0.00  0.00    -0.030 A 
ATOM     22  C   UNL     1       8.712   3.304   3.342  0.00  0.00    +0.005 A 
ATOM     23  C   UNL     1       9.123   4.614   3.477  0.00  0.00    +0.000 A 
ATOM     24  C   UNL     1       8.441   5.466   4.326  0.00  0.00    +0.000 A 
ATOM     25  C   UNL     1       7.351   5.002   5.034  0.00  0.00    +0.004 A 
ATOM     26  C   UNL     1       6.936   3.686   4.897  0.00  0.00    -0.041 A 
ATOM     27  C   UNL     1       5.733   3.226   5.681  0.00  0.00    +0.063 C 
ATOM     28  C   UNL     1       5.690   1.699   5.723  0.00  0.00    +0.148 C 
BRANCH  28  29
ATOM     29  C   UNL     1       4.370   1.245   6.292  0.00  0.00    +0.228 C 
ATOM     30  O   UNL     1       3.396   1.165   5.574  0.00  0.00    -0.274 OA
ATOM     31  N   UNL     1       4.273   0.928   7.598  0.00  0.00    -0.328 N 
ATOM     32  H   UNL     1       5.052   0.992   8.172  0.00  0.00    +0.145 HD
ATOM     33  H   UNL     1       3.423   0.636   7.965  0.00  0.00    +0.145 HD
ENDBRANCH  28  29
ENDBRANCH  18  19
ENDBRANCH   2  18
TORSDOF 6
