REMARK  Name = ZINC04767041
REMARK  10 active torsions:
REMARK  status: ('A' for Active; 'I' for Inactive)
REMARK    1  A    between atoms: C_1  and  C_2
REMARK    2  A    between atoms: C_7  and  C_23
REMARK    3  A    between atoms: C_9  and  C_13
REMARK    4  A    between atoms: C_10  and  C_12
REMARK    5  A    between atoms: C_13  and  O_15
REMARK    6  A    between atoms: O_15  and  C_16
REMARK    7  A    between atoms: C_27  and  O_29
REMARK    8  A    between atoms: C_32  and  C_34
REMARK    9  A    between atoms: C_34  and  O_36
REMARK   10  A    between atoms: O_36  and  C_37
REMARK                            x       y       z     vdW  Elec       q    Type
REMARK                         _______ _______ _______ _____ _____    ______ ____
ROOT
ATOM      1  C   UNL     1      -1.140   8.576  -2.689  0.00  0.00    +0.009 C 
ATOM      2  C   UNL     1      -1.834   7.370  -3.326  0.00  0.00    +0.013 C 
ATOM      3  C   UNL     1      -2.823   6.761  -2.329  0.00  0.00    +0.055 C 
ATOM      4  C   UNL     1      -2.080   6.283  -1.107  0.00  0.00    +0.016 C 
ATOM      5  C   UNL     1      -0.808   5.840  -1.195  0.00  0.00    +0.025 C 
ATOM      6  C   UNL     1      -0.076   5.351   0.029  0.00  0.00    +0.092 C 
ATOM      7  C   UNL     1      -0.748   5.826   1.284  0.00  0.00    +0.065 C 
ATOM      8  C   UNL     1      -2.016   6.273   1.270  0.00  0.00    +0.016 C 
ATOM      9  N   UNL     1      -2.724   6.310   0.101  0.00  0.00    -0.321 N 
ATOM     10  C   UNL     1      -2.660   6.736   2.551  0.00  0.00    +0.061 C 
ATOM     11  C   UNL     1      -0.129   5.822  -2.426  0.00  0.00    +0.176 C 
ATOM     12  O   UNL     1       1.012   5.408  -2.473  0.00  0.00    -0.291 OA
ATOM     13  C   UNL     1      -0.791   6.308  -3.687  0.00  0.00    +0.171 C 
ATOM     14  H   UNL     1      -3.822   6.361   0.138  0.00  0.00    +0.152 HD
ENDROOT
BRANCH   6  15
ATOM     15  C   UNL     1      -0.051   3.844   0.022  0.00  0.00    -0.032 A 
ATOM     16  C   UNL     1      -1.237   3.133   0.030  0.00  0.00    +0.005 A 
ATOM     17  C   UNL     1      -1.218   1.751   0.017  0.00  0.00    +0.004 A 
ATOM     18  C   UNL     1      -0.013   1.076   0.008  0.00  0.00    +0.045 A 
ATOM     19  C   UNL     1       1.179   1.786   0.000  0.00  0.00    +0.117 A 
ATOM     20  C   UNL     1       1.157   3.174   0.008  0.00  0.00    +0.050 A 
BRANCH  19  21
ATOM     21  O   UNL     1       2.366   1.125  -0.015  0.00  0.00    -0.507 OA
ATOM     22  H   UNL     1       3.310   1.689  -0.021  0.00  0.00    +0.292 HD
ENDBRANCH  19  21
ENDBRANCH   6  15
BRANCH   7  23
ATOM     23  C   UNL     1      -0.034   5.804   2.505  0.00  0.00    +0.338 C 
ATOM     24  O   UNL     1      -0.568   6.188   3.529  0.00  0.00    -0.245 OA
BRANCH  23  25
ATOM     25  O   UNL     1       1.240   5.359   2.534  0.00  0.00    -0.458 OA
BRANCH  25  26
ATOM     26  C   UNL     1       1.901   5.365   3.800  0.00  0.00    +0.177 C 
ATOM     27  C   UNL     1       2.550   6.747   4.019  0.00  0.00    +0.044 C 
ATOM     28  C   UNL     1       2.788   6.936   5.492  0.00  0.00    +0.004 C 
ATOM     29  C   UNL     1       4.208   6.519   5.919  0.00  0.00    +0.000 C 
ATOM     30  C   UNL     1       4.676   5.215   5.245  0.00  0.00    +0.000 C 
ATOM     31  C   UNL     1       3.591   4.174   5.191  0.00  0.00    +0.004 C 
ATOM     32  C   UNL     1       2.874   4.284   3.829  0.00  0.00    +0.044 C 
ENDBRANCH  25  26
ENDBRANCH  23  25
ENDBRANCH   7  23
BRANCH  13  33
ATOM     33  C   UNL     1       0.244   6.908  -4.603  0.00  0.00    +0.318 C 
ATOM     34  O   UNL     1       0.158   8.066  -4.935  0.00  0.00    -0.250 OA
BRANCH  33  35
ATOM     35  O   UNL     1       1.261   6.155  -5.051  0.00  0.00    -0.467 OA
ATOM     36  C   UNL     1       2.221   6.799  -5.930  0.00  0.00    +0.280 C 
ENDBRANCH  33  35
ENDBRANCH  13  33
TORSDOF 7
