REMARK  Name = ZINC21325851
REMARK  13 active torsions:
REMARK  status: ('A' for Active; 'I' for Inactive)
REMARK    1  A    between atoms: C_1  and  C_2
REMARK    2  A    between atoms: C_2  and  N_3
REMARK    3  A    between atoms: N_3  and  C_4
REMARK    4  A    between atoms: N_3  and  C_6
REMARK    5  A    between atoms: C_4  and  C_5
REMARK    6  A    between atoms: C_9  and  C_13
REMARK    7  A    between atoms: C_10  and  O_12
REMARK    8  A    between atoms: N_14  and  N_15
REMARK    9  A    between atoms: C_19  and  S_22
REMARK   10  A    between atoms: N_20  and  N_21
REMARK   11  A    between atoms: S_22  and  C_23
REMARK   12  A    between atoms: C_23  and  C_24
REMARK   13  A    between atoms: C_29  and  C_32
REMARK                            x       y       z     vdW  Elec       q    Type
REMARK                         _______ _______ _______ _____ _____    ______ ____
ROOT
ATOM      1  N   UNL     1     -10.995   5.005   7.204  0.00  0.00    -0.204 N 
ATOM      2  C   UNL     1      -9.956   4.592   6.383  0.00  0.00    +0.254 A 
ATOM      3  N   UNL     1     -10.063   4.231   5.127  0.00  0.00    -0.109 NA
ATOM      4  N   UNL     1      -8.785   3.893   4.663  0.00  0.00    -0.119 NA
ATOM      5  C   UNL     1      -7.940   4.050   5.654  0.00  0.00    +0.210 A 
ATOM      6  N   UNL     1      -8.640   4.489   6.741  0.00  0.00    -0.211 N 
ATOM      7  H   UNL     1     -10.792   5.286   8.248  0.00  0.00    +0.177 HD
ENDROOT
BRANCH   6   8
ATOM      8  N   UNL     1      -8.118   4.774   7.971  0.00  0.00    -0.294 N 
ATOM      9  H   UNL     1      -7.040   4.656   8.151  0.00  0.00    +0.163 HD
ATOM     10  H   UNL     1      -8.776   5.122   8.780  0.00  0.00    +0.163 HD
ENDBRANCH   6   8
BRANCH   1  12
ATOM     11  C   UNL     1     -13.275   5.450   7.473  0.00  0.00    +0.142 C 
ATOM     12  N   UNL     1     -12.302   5.064   6.704  0.00  0.00    -0.187 NA
BRANCH  11  16
ATOM     13  C   UNL     1     -17.239   5.631   5.957  0.00  0.00    +0.033 A 
ATOM     14  C   UNL     1     -16.982   5.985   7.278  0.00  0.00    +0.024 A 
ATOM     15  C   UNL     1     -15.697   5.928   7.773  0.00  0.00    +0.015 A 
ATOM     16  C   UNL     1     -14.649   5.512   6.948  0.00  0.00    +0.036 A 
ATOM     17  C   UNL     1     -14.910   5.160   5.615  0.00  0.00    +0.127 A 
ATOM     18  C   UNL     1     -16.203   5.217   5.130  0.00  0.00    +0.069 A 
BRANCH  17  19
ATOM     19  O   UNL     1     -13.895   4.760   4.806  0.00  0.00    -0.506 OA
ATOM     20  H   UNL     1     -14.101   4.484   3.761  0.00  0.00    +0.292 HD
ENDBRANCH  17  19
BRANCH  13  21
ATOM     21  N   UNL     1     -18.543   5.692   5.463  0.00  0.00    -0.330 N 
BRANCH  21  23
ATOM     22  C   UNL     1     -19.799   7.646   6.227  0.00  0.00    +0.024 C 
ATOM     23  C   UNL     1     -19.637   6.128   6.333  0.00  0.00    +0.102 C 
ENDBRANCH  21  23
BRANCH  21  24
ATOM     24  C   UNL     1     -18.817   5.319   4.073  0.00  0.00    +0.102 C 
ATOM     25  C   UNL     1     -19.131   3.823   3.998  0.00  0.00    +0.024 C 
ENDBRANCH  21  24
ENDBRANCH  13  21
ENDBRANCH  11  16
ENDBRANCH   1  12
BRANCH   5  26
ATOM     26  S   UNL     1      -6.204   3.754   5.590  0.00  0.00    -0.075 S 
BRANCH  26  27
ATOM     27  C   UNL     1      -5.916   3.196   3.889  0.00  0.00    +0.173 C 
BRANCH  27  28
ATOM     28  C   UNL     1      -4.449   2.904   3.697  0.00  0.00    +0.229 C 
ATOM     29  O   UNL     1      -3.675   3.058   4.618  0.00  0.00    -0.275 OA
ATOM     30  N   UNL     1      -3.999   2.473   2.502  0.00  0.00    -0.264 N 
ATOM     31  C   UNL     1      -2.646   2.204   2.326  0.00  0.00    +0.165 A 
ATOM     32  N   UNL     1      -2.019   1.784   1.244  0.00  0.00    -0.230 NA
ATOM     33  C   UNL     1      -0.718   1.572   1.248  0.00  0.00    +0.047 A 
ATOM     34  C   UNL     1      -0.029   1.806   2.391  0.00  0.00    +0.071 A 
ATOM     35  S   UNL     1      -1.348   2.342   3.471  0.00  0.00    -0.060 S 
ATOM     36  C   UNL     1      -0.013   1.086   0.008  0.00  0.00    +0.066 C 
ATOM     37  H   UNL     1      -4.701   2.334   1.667  0.00  0.00    +0.157 HD
ENDBRANCH  27  28
ENDBRANCH  26  27
ENDBRANCH   5  26
TORSDOF 10
