REMARK  Name = ZINC05342950
REMARK  7 active torsions:
REMARK  status: ('A' for Active; 'I' for Inactive)
REMARK    1  A    between atoms: C_1  and  N_56
REMARK    2  A    between atoms: C_2  and  C_3
REMARK    3  A    between atoms: C_2  and  N_56
REMARK    4  A    between atoms: C_8  and  N_56
REMARK    5  A    between atoms: N_10  and  C_27
REMARK    6  A    between atoms: C_12  and  C_21
REMARK    7  A    between atoms: N_14  and  C_15
REMARK                            x       y       z     vdW  Elec       q    Type
REMARK                         _______ _______ _______ _____ _____    ______ ____
ROOT
ATOM      1  C   UNL     1       2.528  -3.666   1.388  0.00  0.00    +0.153 C 
ATOM      2  N   UNL     1       1.686  -4.666   0.705  0.00  0.00    -0.217 N 
ATOM      3  N   UNL     1       0.554  -5.140   1.393  0.00  0.00    -0.162 NA
ATOM      4  C   UNL     1       0.517  -5.098   2.721  0.00  0.00    +0.160 C 
ATOM      5  N   UNL     1       1.526  -4.607   3.433  0.00  0.00    -0.246 N 
ATOM      6  N   UNL     1       2.676  -4.123   2.783  0.00  0.00    -0.246 N 
ATOM      7  H   UNL     1       1.468  -4.582   4.431  0.00  0.00    +0.172 HD
ENDROOT
BRANCH   6   8
ATOM      8  C   UNL     1       3.909  -4.076   3.434  0.00  0.00    +0.048 A 
ATOM      9  C   UNL     1       5.030  -3.598   2.767  0.00  0.00    +0.025 A 
ATOM     10  C   UNL     1       6.249  -3.549   3.415  0.00  0.00    +0.002 A 
ATOM     11  C   UNL     1       6.356  -3.984   4.723  0.00  0.00    +0.000 A 
ATOM     12  C   UNL     1       5.243  -4.466   5.389  0.00  0.00    +0.002 A 
ATOM     13  C   UNL     1       4.020  -4.513   4.748  0.00  0.00    +0.025 A 
ENDBRANCH   6   8
BRANCH   4  14
ATOM     14  C   UNL     1      -0.680  -5.609   3.425  0.00  0.00    +0.018 A 
ATOM     15  C   UNL     1      -0.740  -5.579   4.818  0.00  0.00    +0.011 A 
ATOM     16  C   UNL     1      -1.861  -6.053   5.468  0.00  0.00    +0.001 A 
ATOM     17  C   UNL     1      -2.920  -6.567   4.742  0.00  0.00    +0.000 A 
ATOM     18  C   UNL     1      -2.865  -6.604   3.360  0.00  0.00    +0.001 A 
ATOM     19  C   UNL     1      -1.752  -6.128   2.697  0.00  0.00    +0.011 A 
ENDBRANCH   4  14
BRANCH   2  20
ATOM     20  C   UNL     1       2.001  -5.125  -0.574  0.00  0.00    +0.051 A 
ATOM     21  C   UNL     1       3.122  -4.635  -1.233  0.00  0.00    +0.025 A 
ATOM     22  C   UNL     1       3.433  -5.095  -2.498  0.00  0.00    +0.002 A 
ATOM     23  C   UNL     1       2.624  -6.033  -3.112  0.00  0.00    +0.000 A 
ATOM     24  C   UNL     1       1.504  -6.518  -2.462  0.00  0.00    +0.002 A 
ATOM     25  C   UNL     1       1.190  -6.067  -1.195  0.00  0.00    +0.025 A 
ENDBRANCH   2  20
BRANCH   1  27
ATOM     26  C   UNL     1       0.581  -2.389   2.050  0.00  0.00    -0.090 C 
ATOM     27  N   UNL     1       1.891  -2.332   1.370  0.00  0.00    +0.408 N 
ATOM     28  H   UNL     1       2.496  -1.667   1.866  0.00  0.00    -0.076 HD
BRANCH  27  29
ATOM     29  C   UNL     1       1.717  -1.875  -0.025  0.00  0.00    +0.002 C 
BRANCH  29  30
ATOM     30  C   UNL     1       1.274  -0.435  -0.012  0.00  0.00    +0.089 A 
ATOM     31  C   UNL     1       2.086   0.638  -0.014  0.00  0.00    +0.042 A 
ATOM     32  C   UNL     1       1.254   1.781  -0.000  0.00  0.00    +0.041 A 
ATOM     33  C   UNL     1      -0.016   1.339   0.009  0.00  0.00    +0.195 A 
ATOM     34  O   UNL     1       0.002  -0.004   0.002  0.00  0.00    -0.470 OA
ENDBRANCH  29  30
ENDBRANCH  27  29
ENDBRANCH   1  27
TORSDOF 6
