REMARK  Name = ZINC67003400
REMARK  14 active torsions:
REMARK  status: ('A' for Active; 'I' for Inactive)
REMARK    1  A    between atoms: C_1  and  C_2
REMARK    2  A    between atoms: C_2  and  N_3
REMARK    3  A    between atoms: N_3  and  C_4
REMARK    4  A    between atoms: N_3  and  C_6
REMARK    5  A    between atoms: C_4  and  C_5
REMARK    6  A    between atoms: C_6  and  C_8
REMARK    7  A    between atoms: C_6  and  C_24
REMARK    8  A    between atoms: C_8  and  N_9
REMARK    9  A    between atoms: N_12  and  C_13
REMARK   10  A    between atoms: C_13  and  C_14
REMARK   11  A    between atoms: C_14  and  C_16
REMARK   12  A    between atoms: C_14  and  N_21
REMARK   13  A    between atoms: N_21  and  C_22
REMARK   14  A    between atoms: N_21  and  C_23
REMARK                            x       y       z     vdW  Elec       q    Type
REMARK                         _______ _______ _______ _____ _____    ______ ____
ROOT
ATOM      1  N   UNL     1       1.399  -0.935  -0.964  0.00  0.00    -0.301 N 
ATOM      2  C   UNL     1       1.957  -1.271  -2.144  0.00  0.00    +0.300 C 
ATOM      3  O   UNL     1       2.897  -2.042  -2.176  0.00  0.00    -0.253 OA
ATOM      4  N   UNL     1       1.473  -0.752  -3.290  0.00  0.00    -0.301 N 
ATOM      5  H   UNL     1       0.650  -0.320  -0.939  0.00  0.00    +0.150 HD
ATOM      6  H   UNL     1       0.723  -0.137  -3.265  0.00  0.00    +0.150 HD
ENDROOT
BRANCH   1   7
ATOM      7  C   UNL     1       1.925  -1.500   0.281  0.00  0.00    +0.098 C 
BRANCH   7   8
ATOM      8  C   UNL     1       1.233  -0.837   1.474  0.00  0.00    +0.016 C 
BRANCH   8   9
ATOM      9  C   UNL     1       1.463  -1.665   2.712  0.00  0.00    +0.093 A 
ATOM     10  C   UNL     1       0.590  -2.534   3.251  0.00  0.00    +0.043 A 
ATOM     11  C   UNL     1       1.212  -3.085   4.395  0.00  0.00    +0.041 A 
ATOM     12  C   UNL     1       2.429  -2.519   4.486  0.00  0.00    +0.195 A 
ATOM     13  O   UNL     1       2.578  -1.665   3.461  0.00  0.00    -0.469 OA
ENDBRANCH   8   9
BRANCH   8  14
ATOM     14  N   UNL     1       1.785   0.509   1.675  0.00  0.00    +0.387 N 
ATOM     15  H   UNL     1       2.746   0.437   1.976  0.00  0.00    -0.081 HD
BRANCH  14  17
ATOM     16  C   UNL     1       2.348   2.640   0.608  0.00  0.00    -0.017 C 
ATOM     17  C   UNL     1       1.722   1.258   0.413  0.00  0.00    -0.081 C 
ENDBRANCH  14  17
BRANCH  14  18
ATOM     18  C   UNL     1       1.002   1.211   2.701  0.00  0.00    -0.081 C 
ATOM     19  C   UNL     1       1.224   0.542   4.059  0.00  0.00    -0.017 C 
ENDBRANCH  14  18
ENDBRANCH   8  14
ENDBRANCH   7   8
ENDBRANCH   1   7
BRANCH   4  20
ATOM     20  C   UNL     1       2.079  -1.117  -4.573  0.00  0.00    +0.095 C 
BRANCH  20  21
ATOM     21  C   UNL     1       1.432  -0.300  -5.694  0.00  0.00    -0.014 C 
BRANCH  21  22
ATOM     22  C   UNL     1       1.718   1.164  -5.478  0.00  0.00    -0.022 A 
ATOM     23  C   UNL     1       0.922   2.119  -4.939  0.00  0.00    +0.009 A 
ATOM     24  C   UNL     1       1.401   3.412  -4.839  0.00  0.00    +0.008 A 
ATOM     25  C   UNL     1       2.652   3.687  -5.283  0.00  0.00    +0.045 A 
ATOM     26  S   UNL     1       3.198   2.088  -5.860  0.00  0.00    -0.103 S 
ENDBRANCH  21  22
BRANCH  21  27
ATOM     27  N   UNL     1       1.983  -0.722  -6.988  0.00  0.00    +0.382 N 
ATOM     28  C   UNL     1       1.603  -2.116  -7.251  0.00  0.00    -0.096 C 
ATOM     29  C   UNL     1       1.450   0.140  -8.052  0.00  0.00    -0.096 C 
ATOM     30  H   UNL     1       2.989  -0.645  -6.966  0.00  0.00    -0.082 HD
ENDBRANCH  21  27
ENDBRANCH  20  21
ENDBRANCH   4  20
TORSDOF 10
