REMARK  Name = ZINC58249437
REMARK  4 active torsions:
REMARK  status: ('A' for Active; 'I' for Inactive)
REMARK    1  A    between atoms: C_1  and  C_2
REMARK    2  A    between atoms: C_5  and  S_11
REMARK    3  A    between atoms: C_7  and  C_8
REMARK    4  A    between atoms: S_11  and  N_14
REMARK                            x       y       z     vdW  Elec       q    Type
REMARK                         _______ _______ _______ _____ _____    ______ ____
ROOT
ATOM      1  S   UNL     1       0.583  -4.488  -0.114  0.00  0.00    +0.061 S 
ATOM      2  O   UNL     1       0.359  -4.991   1.196  0.00  0.00    -0.153 OA
ATOM      3  O   UNL     1      -0.112  -4.984  -1.250  0.00  0.00    -0.153 OA
ENDROOT
BRANCH   1   4
ATOM      4  N   UNL     1       2.198  -4.681  -0.426  0.00  0.00    -0.173 NA
ATOM      5  C   UNL     1       2.626  -4.752  -1.794  0.00  0.00    +0.113 C 
ATOM      6  C   UNL     1       3.796  -5.667  -1.995  0.00  0.00    +0.005 C 
ATOM      7  C   UNL     1       3.636  -6.997  -1.277  0.00  0.00    +0.008 C 
ATOM      8  C   UNL     1       4.130  -6.995   0.156  0.00  0.00    -0.009 C 
ATOM      9  C   UNL     1       5.541  -6.408   0.250  0.00  0.00    +0.007 C 
ATOM     10  C   UNL     1       5.474  -4.978  -0.290  0.00  0.00    -0.009 C 
ATOM     11  C   UNL     1       5.146  -5.042  -1.782  0.00  0.00    +0.008 C 
ATOM     12  C   UNL     1       4.444  -4.152   0.446  0.00  0.00    +0.024 C 
ATOM     13  C   UNL     1       3.114  -4.766   0.699  0.00  0.00    +0.080 C 
ATOM     14  C   UNL     1       3.231  -6.223   1.111  0.00  0.00    +0.024 C 
ENDBRANCH   1   4
BRANCH   1  19
ATOM     15  C   UNL     1      -0.501   1.454   0.081  0.00  0.00    +0.044 C 
ATOM     16  C   UNL     1      -0.229  -0.027   0.036  0.00  0.00    -0.038 A 
ATOM     17  C   UNL     1      -0.329  -0.712  -1.158  0.00  0.00    +0.006 A 
ATOM     18  C   UNL     1      -0.080  -2.073  -1.201  0.00  0.00    +0.029 A 
ATOM     19  C   UNL     1       0.270  -2.755  -0.049  0.00  0.00    +0.106 A 
ATOM     20  C   UNL     1       0.373  -2.082   1.151  0.00  0.00    +0.041 A 
ATOM     21  C   UNL     1       0.128  -0.708   1.200  0.00  0.00    +0.041 A 
BRANCH  21  22
ATOM     22  C   UNL     1       0.242   0.021   2.481  0.00  0.00    +0.242 C 
ATOM     23  O   UNL     1       0.140   1.232   2.503  0.00  0.00    -0.270 OA
ATOM     24  N   UNL     1       0.460  -0.658   3.626  0.00  0.00    -0.325 N 
ATOM     25  H   UNL     1       0.542  -1.624   3.608  0.00  0.00    +0.145 HD
ATOM     26  H   UNL     1       0.535  -0.179   4.466  0.00  0.00    +0.145 HD
ENDBRANCH  21  22
ENDBRANCH   1  19
TORSDOF 3
