REMARK  Name = ZINC38899276
REMARK  10 active torsions:
REMARK  status: ('A' for Active; 'I' for Inactive)
REMARK    1  A    between atoms: C_1  and  C_2
REMARK    2  A    between atoms: C_2  and  C_3
REMARK    3  A    between atoms: C_8  and  N_9
REMARK    4  A    between atoms: C_10  and  C_12
REMARK    5  A    between atoms: C_12  and  C_13
REMARK    6  A    between atoms: C_14  and  C_31
REMARK    7  A    between atoms: C_16  and  S_21
REMARK    8  A    between atoms: S_21  and  C_22
REMARK    9  A    between atoms: C_22  and  C_24
REMARK   10  A    between atoms: C_22  and  C_25
REMARK                            x       y       z     vdW  Elec       q    Type
REMARK                         _______ _______ _______ _____ _____    ______ ____
ROOT
ATOM      1  C   UNL     1      -2.379  -0.604  -6.004  0.00  0.00    +0.047 A 
ATOM      2  C   UNL     1      -3.135   0.370  -6.589  0.00  0.00    +0.050 A 
ATOM      3  N   UNL     1      -3.951   0.068  -7.596  0.00  0.00    -0.228 NA
ATOM      4  C   UNL     1      -4.052  -1.167  -8.050  0.00  0.00    +0.170 A 
ATOM      5  N   UNL     1      -3.323  -2.179  -7.505  0.00  0.00    -0.302 N 
ATOM      6  H   UNL     1      -3.409  -3.082  -7.850  0.00  0.00    +0.171 HD
ATOM      7  C   UNL     1      -2.476  -1.922  -6.485  0.00  0.00    +0.256 A 
ATOM      8  O   UNL     1      -1.811  -2.816  -5.988  0.00  0.00    -0.267 OA
ATOM      9  C   UNL     1      -3.045   1.791  -6.095  0.00  0.00    +0.066 C 
ENDROOT
BRANCH   1  10
ATOM     10  C   UNL     1      -1.451  -0.272  -4.864  0.00  0.00    +0.138 C 
BRANCH  10  12
ATOM     11  N   UNL     1      -1.505  -0.315  -2.391  0.00  0.00    -0.285 N 
ATOM     12  C   UNL     1      -2.147  -0.541  -3.555  0.00  0.00    +0.222 C 
ATOM     13  O   UNL     1      -3.285  -0.961  -3.548  0.00  0.00    -0.275 OA
ATOM     14  H   UNL     1      -0.620   0.082  -2.395  0.00  0.00    +0.155 HD
BRANCH  11  20
ATOM     15  C   UNL     1      -1.349  -1.119  -0.119  0.00  0.00    -0.026 A 
ATOM     16  C   UNL     1      -1.954  -1.445   1.079  0.00  0.00    +0.005 A 
ATOM     17  C   UNL     1      -3.322  -1.313   1.222  0.00  0.00    +0.000 A 
ATOM     18  C   UNL     1      -4.090  -0.854   0.168  0.00  0.00    +0.002 A 
ATOM     19  C   UNL     1      -3.491  -0.525  -1.033  0.00  0.00    +0.023 A 
ATOM     20  C   UNL     1      -2.116  -0.652  -1.178  0.00  0.00    +0.037 A 
BRANCH  15  22
ATOM     21  C   UNL     1       0.819   0.078   0.019  0.00  0.00    +0.009 C 
ATOM     22  C   UNL     1       0.143  -1.263  -0.275  0.00  0.00    +0.033 C 
ENDBRANCH  15  22
ENDBRANCH  11  20
ENDBRANCH  10  12
ENDBRANCH   1  10
BRANCH   4  23
ATOM     23  S   UNL     1      -5.150  -1.511  -9.385  0.00  0.00    -0.080 S 
BRANCH  23  24
ATOM     24  C   UNL     1      -5.887   0.101  -9.774  0.00  0.00    +0.081 C 
ATOM     25  C   UNL     1      -4.801   1.046 -10.292  0.00  0.00    +0.024 C 
BRANCH  24  26
ATOM     26  C   UNL     1      -6.947  -0.074 -10.831  0.00  0.00    -0.034 A 
ATOM     27  C   UNL     1      -6.613  -0.600 -12.064  0.00  0.00    +0.005 A 
ATOM     28  C   UNL     1      -7.586  -0.760 -13.034  0.00  0.00    +0.000 A 
ATOM     29  C   UNL     1      -8.892  -0.394 -12.769  0.00  0.00    +0.000 A 
ATOM     30  C   UNL     1      -9.226   0.131 -11.534  0.00  0.00    +0.000 A 
ATOM     31  C   UNL     1      -8.255   0.287 -10.564  0.00  0.00    +0.005 A 
ENDBRANCH  24  26
ENDBRANCH  23  24
ENDBRANCH   4  23
TORSDOF 7
