REMARK  Name = ZINC34783444
REMARK  12 active torsions:
REMARK  status: ('A' for Active; 'I' for Inactive)
REMARK    1  A    between atoms: C_1  and  C_2
REMARK    2  A    between atoms: C_2  and  N_3
REMARK    3  A    between atoms: N_3  and  C_4
REMARK    4  A    between atoms: N_3  and  N_6
REMARK    5  A    between atoms: C_4  and  C_5
REMARK    6  A    between atoms: N_6  and  N_29
REMARK    7  A    between atoms: C_17  and  C_22
REMARK    8  A    between atoms: C_19  and  C_21
REMARK    9  A    between atoms: C_25  and  C_27
REMARK   10  A    between atoms: C_25  and  C_28
REMARK   11  A    between atoms: N_29  and  C_30
REMARK   12  A    between atoms: C_30  and  C_31
REMARK                            x       y       z     vdW  Elec       q    Type
REMARK                         _______ _______ _______ _____ _____    ______ ____
ROOT
ATOM      1  N   UNL     1       0.228  -0.431  -2.434  0.00  0.00    -0.178 N 
ATOM      2  C   UNL     1       1.093   0.077  -3.386  0.00  0.00    +0.164 A 
ATOM      3  C   UNL     1       0.727   0.085  -4.761  0.00  0.00    +0.054 A 
ATOM      4  C   UNL     1      -0.505  -0.392  -5.385  0.00  0.00    -0.020 A 
ATOM      5  C   UNL     1      -0.604  -0.268  -6.726  0.00  0.00    +0.021 A 
ATOM      6  S   UNL     1       0.916   0.483  -7.233  0.00  0.00    -0.071 S 
ATOM      7  C   UNL     1       1.686   0.628  -5.640  0.00  0.00    +0.116 A 
ATOM      8  N   UNL     1       2.840   1.092  -5.203  0.00  0.00    -0.203 NA
ATOM      9  C   UNL     1       3.127   1.057  -3.911  0.00  0.00    +0.254 A 
ATOM     10  N   UNL     1       2.268   0.566  -3.027  0.00  0.00    -0.192 NA
ATOM     11  N   UNL     1       4.355   1.552  -3.469  0.00  0.00    -0.202 N 
ATOM     12  C   UNL     1       5.327   2.093  -4.249  0.00  0.00    +0.045 A 
ATOM     13  C   UNL     1       6.351   2.448  -3.439  0.00  0.00    +0.048 A 
ATOM     14  C   UNL     1       5.998   2.115  -2.126  0.00  0.00    +0.061 A 
ATOM     15  N   UNL     1       4.802   1.585  -2.142  0.00  0.00    -0.169 NA
ATOM     16  C   UNL     1       6.848   2.336  -0.901  0.00  0.00    +0.067 C 
ATOM     17  C   UNL     1       5.275   2.266  -5.745  0.00  0.00    +0.066 C 
ATOM     18  C   UNL     1      -1.766  -0.689  -7.571  0.00  0.00    +0.203 C 
ATOM     19  O   UNL     1      -2.614  -1.528  -6.771  0.00  0.00    -0.368 OA
ATOM     20  C   UNL     1      -2.908  -0.979  -5.484  0.00  0.00    +0.068 C 
ATOM     21  C   UNL     1      -1.659  -1.011  -4.599  0.00  0.00    +0.071 C 
ATOM     22  C   UNL     1      -3.378   0.468  -5.645  0.00  0.00    +0.041 C 
ATOM     23  C   UNL     1      -4.019  -1.800  -4.824  0.00  0.00    +0.041 C 
ENDROOT
BRANCH   1  24
ATOM     24  N   UNL     1      -0.454  -1.589  -2.680  0.00  0.00    -0.220 NA
ATOM     25  H   UNL     1      -1.309  -1.625  -2.146  0.00  0.00    +0.146 HD
BRANCH  24  26
ATOM     26  C   UNL     1       0.386  -2.763  -2.409  0.00  0.00    +0.138 C 
BRANCH  26  27
ATOM     27  C   UNL     1      -0.350  -4.013  -2.818  0.00  0.00    -0.032 A 
ATOM     28  C   UNL     1      -1.238  -4.609  -1.942  0.00  0.00    +0.005 A 
ATOM     29  C   UNL     1      -1.913  -5.756  -2.317  0.00  0.00    +0.000 A 
ATOM     30  C   UNL     1      -1.701  -6.306  -3.567  0.00  0.00    +0.000 A 
ATOM     31  C   UNL     1      -0.814  -5.709  -4.443  0.00  0.00    +0.000 A 
ATOM     32  C   UNL     1      -0.142  -4.560  -4.070  0.00  0.00    +0.005 A 
ENDBRANCH  26  27
ENDBRANCH  24  26
ENDBRANCH   1  24
BRANCH   1  33
ATOM     33  N   UNL     1       0.055   0.224  -1.248  0.00  0.00    -0.211 NA
BRANCH  33  35
ATOM     34  C   UNL     1      -1.570   1.772  -2.228  0.00  0.00    +0.022 C 
ATOM     35  C   UNL     1      -1.315   0.741  -1.127  0.00  0.00    +0.104 C 
ENDBRANCH  33  35
BRANCH  33  36
ATOM     36  C   UNL     1       0.393  -0.644  -0.113  0.00  0.00    +0.104 C 
ATOM     37  C   UNL     1       1.878  -1.008  -0.172  0.00  0.00    +0.022 C 
ENDBRANCH  33  36
ENDBRANCH   1  33
TORSDOF 6
