REMARK  Name = ZINC13882159
REMARK  12 active torsions:
REMARK  status: ('A' for Active; 'I' for Inactive)
REMARK    1  A    between atoms: C_1  and  C_2
REMARK    2  A    between atoms: C_5  and  C_8
REMARK    3  A    between atoms: C_8  and  O_9
REMARK    4  A    between atoms: O_9  and  C_10
REMARK    5  A    between atoms: C_13  and  C_19
REMARK    6  A    between atoms: C_15  and  N_16
REMARK    7  A    between atoms: C_24  and  C_28
REMARK    8  A    between atoms: C_24  and  C_29
REMARK    9  A    between atoms: C_31  and  C_37
REMARK   10  A    between atoms: C_32  and  C_33
REMARK   11  A    between atoms: C_33  and  O_35
REMARK   12  A    between atoms: O_35  and  C_36
REMARK                            x       y       z     vdW  Elec       q    Type
REMARK                         _______ _______ _______ _____ _____    ______ ____
ROOT
ATOM      1  C   UNL     1      -5.025   1.097  -0.073  0.00  0.00    +0.092 C 
ATOM      2  C   UNL     1      -5.706   1.388   1.240  0.00  0.00    +0.024 C 
ATOM      3  C   UNL     1      -6.731   2.264   1.306  0.00  0.00    +0.016 C 
ATOM      4  C   UNL     1      -7.420   2.558   2.615  0.00  0.00    +0.058 C 
ATOM      5  C   UNL     1      -6.423   2.406   3.766  0.00  0.00    -0.023 C 
ATOM      6  C   UNL     1      -5.860   0.981   3.738  0.00  0.00    +0.086 C 
ATOM      7  C   UNL     1      -5.242   0.726   2.390  0.00  0.00    +0.162 C 
ATOM      8  O   UNL     1      -4.326  -0.066   2.295  0.00  0.00    -0.292 OA
ATOM      9  C   UNL     1      -5.283   3.412   3.594  0.00  0.00    +0.011 C 
ATOM     10  C   UNL     1      -7.133   2.657   5.098  0.00  0.00    +0.011 C 
ATOM     11  N   UNL     1      -7.172   2.903   0.178  0.00  0.00    -0.321 N 
ATOM     12  C   UNL     1      -6.888   2.402  -1.062  0.00  0.00    +0.016 C 
ATOM     13  C   UNL     1      -5.875   1.534  -1.230  0.00  0.00    +0.065 C 
ATOM     14  C   UNL     1      -7.715   2.826  -2.248  0.00  0.00    +0.061 C 
ATOM     15  H   UNL     1      -7.760   3.829   0.265  0.00  0.00    +0.152 HD
ENDROOT
BRANCH   1  19
ATOM     16  C   UNL     1      -1.293   3.174  -0.212  0.00  0.00    +0.151 A 
ATOM     17  C   UNL     1      -2.480   3.884  -0.102  0.00  0.00    +0.048 A 
ATOM     18  C   UNL     1      -3.685   3.210  -0.058  0.00  0.00    +0.008 A 
ATOM     19  C   UNL     1      -3.709   1.829  -0.122  0.00  0.00    -0.033 A 
ATOM     20  C   UNL     1      -2.528   1.120  -0.237  0.00  0.00    +0.041 A 
ATOM     21  C   UNL     1      -1.320   1.789  -0.277  0.00  0.00    +0.168 A 
BRANCH  21  22
ATOM     22  N   UNL     1      -0.055   1.029  -0.394  0.00  0.00    +0.060 N 
ATOM     23  O   UNL     1      -0.079  -0.188  -0.451  0.00  0.00    -0.126 OA
ATOM     24  O   UNL     1       1.009   1.619  -0.439  0.00  0.00    -0.126 OA
ENDBRANCH  21  22
BRANCH  16  25
ATOM     25  O   UNL     1      -0.106   3.835  -0.256  0.00  0.00    -0.485 OA
BRANCH  25  26
ATOM     26  C   UNL     1      -0.155   5.261  -0.185  0.00  0.00    +0.264 C 
BRANCH  26  31
ATOM     27  C   UNL     1       5.213   7.387  -0.425  0.00  0.00    +0.044 C 
ATOM     28  C   UNL     1       3.813   6.833  -0.362  0.00  0.00    -0.050 A 
ATOM     29  C   UNL     1       3.095   6.635  -1.527  0.00  0.00    +0.004 A 
ATOM     30  C   UNL     1       1.811   6.127  -1.470  0.00  0.00    +0.007 A 
ATOM     31  C   UNL     1       1.245   5.816  -0.247  0.00  0.00    -0.010 A 
ATOM     32  C   UNL     1       1.961   6.018   0.917  0.00  0.00    +0.007 A 
ATOM     33  C   UNL     1       3.247   6.522   0.860  0.00  0.00    +0.004 A 
ENDBRANCH  26  31
ENDBRANCH  25  26
ENDBRANCH  16  25
ENDBRANCH   1  19
BRANCH  13  34
ATOM     34  C   UNL     1      -5.606   1.023  -2.521  0.00  0.00    +0.337 C 
ATOM     35  O   UNL     1      -6.351   1.287  -3.447  0.00  0.00    -0.245 OA
BRANCH  34  36
ATOM     36  O   UNL     1      -4.524   0.243  -2.726  0.00  0.00    -0.465 OA
ATOM     37  C   UNL     1      -4.314  -0.238  -4.055  0.00  0.00    +0.280 C 
ENDBRANCH  34  36
ENDBRANCH  13  34
TORSDOF 7
