REMARK  Name = ZINC40360668
REMARK  8 active torsions:
REMARK  status: ('A' for Active; 'I' for Inactive)
REMARK    1  A    between atoms: C_1  and  C_2
REMARK    2  A    between atoms: C_5  and  N_8
REMARK    3  A    between atoms: C_18  and  C_19
REMARK    4  A    between atoms: C_19  and  C_21
REMARK    5  A    between atoms: C_19  and  N_22
REMARK    6  A    between atoms: N_22  and  C_23
REMARK    7  A    between atoms: N_26  and  C_27
REMARK    8  A    between atoms: C_32  and  C_33
REMARK                            x       y       z     vdW  Elec       q    Type
REMARK                         _______ _______ _______ _____ _____    ______ ____
ROOT
ATOM      1  N   UNL     1       1.168  -4.799   0.338  0.00  0.00    -0.263 N 
ATOM      2  C   UNL     1       1.188  -5.432  -0.858  0.00  0.00    +0.266 A 
ATOM      3  O   UNL     1       2.112  -5.283  -1.637  0.00  0.00    -0.267 OA
ATOM      4  C   UNL     1       0.052  -6.306  -1.181  0.00  0.00    +0.065 A 
ATOM      5  C   UNL     1      -0.024  -7.002  -2.386  0.00  0.00    +0.017 A 
ATOM      6  C   UNL     1      -1.103  -7.803  -2.637  0.00  0.00    +0.021 A 
ATOM      7  C   UNL     1      -2.125  -7.930  -1.704  0.00  0.00    +0.043 A 
ATOM      8  C   UNL     1      -2.075  -7.252  -0.505  0.00  0.00    +0.048 A 
ATOM      9  C   UNL     1      -0.983  -6.428  -0.226  0.00  0.00    +0.080 A 
ATOM     10  N   UNL     1      -0.888  -5.741   0.940  0.00  0.00    -0.231 NA
ATOM     11  C   UNL     1       0.131  -4.980   1.200  0.00  0.00    +0.138 A 
ATOM     12 CL   UNL     1      -3.483  -8.955  -2.053  0.00  0.00    -0.083 Cl
ENDROOT
BRANCH   1  17
ATOM     13  C   UNL     1       5.459  -1.379   1.784  0.00  0.00    +0.044 C 
ATOM     14  C   UNL     1       4.320  -2.287   1.400  0.00  0.00    -0.050 A 
ATOM     15  C   UNL     1       3.061  -1.759   1.177  0.00  0.00    +0.005 A 
ATOM     16  C   UNL     1       2.015  -2.589   0.825  0.00  0.00    +0.026 A 
ATOM     17  C   UNL     1       2.228  -3.955   0.694  0.00  0.00    +0.051 A 
ATOM     18  C   UNL     1       3.492  -4.482   0.918  0.00  0.00    +0.026 A 
ATOM     19  C   UNL     1       4.536  -3.647   1.265  0.00  0.00    +0.005 A 
ENDBRANCH   1  17
BRANCH  11  20
ATOM     20  C   UNL     1       0.164  -4.255   2.521  0.00  0.00    +0.141 C 
ATOM     21  C   UNL     1      -1.106  -3.416   2.674  0.00  0.00    +0.036 C 
BRANCH  20  22
ATOM     22  N   UNL     1       0.239  -5.231   3.611  0.00  0.00    -0.279 N 
ATOM     23  C   UNL     1      -0.824  -6.225   3.779  0.00  0.00    +0.134 C 
ATOM     24  C   UNL     1       1.286  -5.214   4.460  0.00  0.00    +0.307 C 
ATOM     25  O   UNL     1       2.168  -4.389   4.320  0.00  0.00    -0.252 OA
ATOM     26  N   UNL     1       1.355  -6.112   5.463  0.00  0.00    -0.269 N 
ATOM     27  H   UNL     1       0.617  -6.721   5.620  0.00  0.00    +0.156 HD
BRANCH  26  28
ATOM     28  C   UNL     1       2.491  -6.164   6.278  0.00  0.00    +0.046 A 
ATOM     29  C   UNL     1       3.710  -5.699   5.803  0.00  0.00    +0.024 A 
ATOM     30  C   UNL     1       4.830  -5.752   6.610  0.00  0.00    +0.002 A 
ATOM     31  C   UNL     1       4.737  -6.267   7.891  0.00  0.00    +0.001 A 
ATOM     32  C   UNL     1       3.524  -6.730   8.367  0.00  0.00    +0.014 A 
ATOM     33  C   UNL     1       2.400  -6.675   7.566  0.00  0.00    +0.076 A 
BRANCH  33  34
ATOM     34  C   UNL     1       1.077  -7.175   8.088  0.00  0.00    +0.419 C 
ATOM     35  F   UNL     1       1.238  -7.637   9.398  0.00  0.00    -0.166 F 
ATOM     36  F   UNL     1       0.145  -6.131   8.072  0.00  0.00    -0.166 F 
ATOM     37  F   UNL     1       0.621  -8.219   7.277  0.00  0.00    -0.166 F 
ENDBRANCH  33  34
ENDBRANCH  26  28
ENDBRANCH  20  22
ENDBRANCH  11  20
TORSDOF 5
