REMARK  Name = ZINC00695995
REMARK  9 active torsions:
REMARK  status: ('A' for Active; 'I' for Inactive)
REMARK    1  A    between atoms: C_1  and  C_2
REMARK    2  A    between atoms: C_2  and  C_3
REMARK    3  A    between atoms: C_10  and  N_18
REMARK    4  A    between atoms: C_11  and  C_12
REMARK    5  A    between atoms: C_12  and  O_14
REMARK    6  A    between atoms: O_14  and  C_15
REMARK    7  A    between atoms: C_15  and  C_16
REMARK    8  A    between atoms: C_15  and  C_17
REMARK    9  A    between atoms: C_19  and  C_21
REMARK                            x       y       z     vdW  Elec       q    Type
REMARK                         _______ _______ _______ _____ _____    ______ ____
ROOT
ATOM      1  C   UNL     1       0.099  -4.996  -0.407  0.00  0.00    -0.006 C 
ATOM      2  C   UNL     1       1.347  -4.675   0.421  0.00  0.00    +0.008 C 
ATOM      3  C   UNL     1       1.943  -3.341  -0.033  0.00  0.00    +0.037 C 
ATOM      4  C   UNL     1       0.846  -2.283  -0.018  0.00  0.00    -0.021 A 
ATOM      5  C   UNL     1      -0.458  -2.634  -0.008  0.00  0.00    -0.004 A 
ATOM      6  S   UNL     1      -1.341  -1.099   0.008  0.00  0.00    -0.077 S 
ATOM      7  C   UNL     1       0.002  -0.004   0.002  0.00  0.00    +0.087 A 
ATOM      8  C   UNL     1       1.102  -0.852  -0.019  0.00  0.00    +0.091 A 
ATOM      9  C   UNL     1      -1.020  -4.022  -0.012  0.00  0.00    +0.046 C 
ENDROOT
BRANCH   7  10
ATOM     10  N   UNL     1      -0.017   1.380   0.010  0.00  0.00    -0.273 N 
ATOM     11  C   UNL     1      -1.193   2.038   0.019  0.00  0.00    +0.284 C 
ATOM     12  O   UNL     1      -2.239   1.415   0.020  0.00  0.00    -0.266 OA
ATOM     13  H   UNL     1       0.817   1.877   0.004  0.00  0.00    +0.156 HD
BRANCH  11  14
ATOM     14  C   UNL     1      -1.213   3.503   0.027  0.00  0.00    +0.191 A 
ATOM     15  C   UNL     1      -2.329   4.291   0.036  0.00  0.00    +0.056 A 
ATOM     16  C   UNL     1      -1.885   5.621   0.042  0.00  0.00    +0.058 A 
ATOM     17  C   UNL     1      -0.532   5.589   0.035  0.00  0.00    +0.171 A 
ATOM     18  O   UNL     1      -0.132   4.311   0.032  0.00  0.00    -0.444 OA
ATOM     19 BR   UNL     1       0.606   7.100   0.038  0.00  0.00    -0.008 Br
ENDBRANCH  11  14
ENDBRANCH   7  10
BRANCH   1  21
ATOM     20  C   UNL     1      -1.516  -6.792  -1.044  0.00  0.00    +0.004 C 
ATOM     21  C   UNL     1      -0.347  -6.432  -0.125  0.00  0.00    +0.000 C 
ENDBRANCH   1  21
BRANCH   8  22
ATOM     22  C   UNL     1       2.468  -0.325  -0.036  0.00  0.00    +0.342 C 
ATOM     23  O   UNL     1       3.051  -0.112   1.009  0.00  0.00    -0.245 OA
BRANCH  22  24
ATOM     24  O   UNL     1       3.079  -0.076  -1.213  0.00  0.00    -0.458 OA
BRANCH  24  25
ATOM     25  C   UNL     1       4.433   0.445  -1.154  0.00  0.00    +0.171 C 
ATOM     26  C   UNL     1       5.210  -0.014  -2.390  0.00  0.00    +0.052 C 
ATOM     27  C   UNL     1       4.389   1.974  -1.119  0.00  0.00    +0.052 C 
ENDBRANCH  24  25
ENDBRANCH  22  24
ENDBRANCH   8  22
TORSDOF 6
