REMARK  Name = ZINC35643670
REMARK  8 active torsions:
REMARK  status: ('A' for Active; 'I' for Inactive)
REMARK    1  A    between atoms: C_3  and  O_36
REMARK    2  A    between atoms: C_6  and  C_7
REMARK    3  A    between atoms: C_12  and  O_18
REMARK    4  A    between atoms: O_18  and  C_19
REMARK    5  A    between atoms: C_21  and  O_35
REMARK    6  A    between atoms: C_23  and  O_34
REMARK    7  A    between atoms: C_25  and  O_33
REMARK    8  A    between atoms: C_27  and  C_30
REMARK                            x       y       z     vdW  Elec       q    Type
REMARK                         _______ _______ _______ _____ _____    ______ ____
ROOT
ATOM      1  C   UNL     1      -1.271  -0.765   0.011  0.00  0.00    +0.064 A 
ATOM      2  C   UNL     1      -2.131  -0.698  -1.040  0.00  0.00    +0.208 A 
ATOM      3  O   UNL     1      -3.279  -1.378  -1.077  0.00  0.00    -0.462 OA
ATOM      4  C   UNL     1      -3.813  -1.929   0.030  0.00  0.00    +0.142 A 
ATOM      5  C   UNL     1      -5.137  -2.351   0.043  0.00  0.00    +0.092 A 
ATOM      6  C   UNL     1      -5.666  -2.923   1.187  0.00  0.00    +0.128 A 
ATOM      7  C   UNL     1      -4.884  -3.082   2.329  0.00  0.00    +0.047 A 
ATOM      8  C   UNL     1      -3.582  -2.670   2.335  0.00  0.00    +0.019 A 
ATOM      9  C   UNL     1      -3.036  -2.087   1.191  0.00  0.00    +0.065 A 
ATOM     10  C   UNL     1      -1.637  -1.619   1.157  0.00  0.00    +0.200 A 
ATOM     11  O   UNL     1      -0.833  -1.915   2.024  0.00  0.00    -0.286 OA
ENDROOT
BRANCH   1  17
ATOM     12  C   UNL     1      -0.017   1.390   0.010  0.00  0.00    +0.012 A 
ATOM     13  C   UNL     1       1.169   2.094   0.002  0.00  0.00    +0.046 A 
ATOM     14  C   UNL     1       2.380   1.416  -0.013  0.00  0.00    +0.117 A 
ATOM     15  C   UNL     1       2.402   0.029  -0.022  0.00  0.00    +0.046 A 
ATOM     16  C   UNL     1       1.220  -0.682  -0.014  0.00  0.00    +0.012 A 
ATOM     17  C   UNL     1       0.002  -0.004   0.002  0.00  0.00    -0.011 A 
BRANCH  14  18
ATOM     18  O   UNL     1       3.547   2.113  -0.021  0.00  0.00    -0.507 OA
ATOM     19  H   UNL     1       3.894   2.310   0.860  0.00  0.00    +0.292 HD
ENDBRANCH  14  18
ENDBRANCH   1  17
BRANCH   6  20
ATOM     20  O   UNL     1      -6.960  -3.333   1.196  0.00  0.00    -0.461 OA
BRANCH  20  21
ATOM     21  C   UNL     1      -7.447  -3.916   2.407  0.00  0.00    +0.340 C 
ATOM     22  C   UNL     1      -8.945  -4.200   2.270  0.00  0.00    +0.214 C 
ATOM     23  C   UNL     1      -9.447  -4.879   3.548  0.00  0.00    +0.180 C 
ATOM     24  C   UNL     1      -8.633  -6.154   3.788  0.00  0.00    +0.186 C 
ATOM     25  C   UNL     1      -7.147  -5.795   3.867  0.00  0.00    +0.266 C 
ATOM     26  O   UNL     1      -6.753  -5.139   2.660  0.00  0.00    -0.322 OA
BRANCH  25  27
ATOM     27  C   UNL     1      -6.335  -7.052   4.045  0.00  0.00    +0.387 C 
ATOM     28  O   UNL     1      -5.561  -7.406   3.172  0.00  0.00    -0.243 OA
ATOM     29  O   UNL     1      -6.452  -7.715   5.061  0.00  0.00    -0.243 OA
ENDBRANCH  25  27
BRANCH  24  30
ATOM     30  O   UNL     1      -9.045  -6.759   5.016  0.00  0.00    -0.386 OA
ATOM     31  H   UNL     1      -8.570  -7.573   5.232  0.00  0.00    +0.210 HD
ENDBRANCH  24  30
BRANCH  23  32
ATOM     32  O   UNL     1      -9.286  -3.991   4.656  0.00  0.00    -0.386 OA
ATOM     33  H   UNL     1      -9.585  -4.357   5.500  0.00  0.00    +0.210 HD
ENDBRANCH  23  32
BRANCH  22  34
ATOM     34  O   UNL     1      -9.168  -5.061   1.151  0.00  0.00    -0.383 OA
ATOM     35  H   UNL     1      -8.869  -4.695   0.307  0.00  0.00    +0.210 HD
ENDBRANCH  22  34
ENDBRANCH  20  21
ENDBRANCH   6  20
TORSDOF 8
