REMARK  Name = ZINC63697894
REMARK  9 active torsions:
REMARK  status: ('A' for Active; 'I' for Inactive)
REMARK    1  A    between atoms: C_1  and  C_2
REMARK    2  A    between atoms: C_2  and  O_3
REMARK    3  A    between atoms: O_3  and  C_4
REMARK    4  A    between atoms: C_8  and  C_13
REMARK    5  A    between atoms: C_9  and  O_10
REMARK    6  A    between atoms: O_10  and  C_11
REMARK    7  A    between atoms: C_11  and  C_12
REMARK    8  A    between atoms: C_13  and  C_14
REMARK    9  A    between atoms: C_29  and  C_31
REMARK                            x       y       z     vdW  Elec       q    Type
REMARK                         _______ _______ _______ _____ _____    ______ ____
ROOT
ATOM      1  C   UNL     1       1.607  -3.164   5.721  0.00  0.00    +0.221 C 
ATOM      2  O   UNL     1       0.451  -2.895   5.475  0.00  0.00    -0.275 OA
ATOM      3  N   UNL     1       1.899  -4.183   6.554  0.00  0.00    -0.292 N 
ATOM      4  C   UNL     1       3.298  -4.568   6.768  0.00  0.00    +0.113 C 
ATOM      5  C   UNL     1       3.484  -6.050   6.394  0.00  0.00    +0.052 C 
ATOM      6  C   UNL     1       2.333  -6.801   7.016  0.00  0.00    -0.035 C 
ATOM      7  C   UNL     1       2.304  -7.874   7.798  0.00  0.00    -0.001 A 
ATOM      8  C   UNL     1       3.368  -8.784   8.251  0.00  0.00    +0.010 A 
ATOM      9  C   UNL     1       2.983  -9.791   9.079  0.00  0.00    +0.001 A 
ATOM     10  C   UNL     1       1.662  -9.981   9.496  0.00  0.00    +0.002 A 
ATOM     11  C   UNL     1       0.619  -9.198   9.121  0.00  0.00    +0.026 A 
ATOM     12  C   UNL     1       0.898  -8.110   8.244  0.00  0.00    +0.043 A 
ATOM     13  N   UNL     1       0.100  -7.229   7.716  0.00  0.00    -0.375 N 
ATOM     14  C   UNL     1       0.883  -6.370   6.828  0.00  0.00    +0.131 C 
ATOM     15  C   UNL     1       0.811  -4.893   7.245  0.00  0.00    +0.133 C 
ATOM     16  H   UNL     1      -0.853  -7.155   7.883  0.00  0.00    +0.160 HD
ENDROOT
BRANCH  15  17
ATOM     17  C   UNL     1      -0.518  -4.309   6.838  0.00  0.00    -0.025 A 
ATOM     18  C   UNL     1      -1.113  -4.705   5.655  0.00  0.00    +0.007 A 
ATOM     19  C   UNL     1      -2.332  -4.171   5.281  0.00  0.00    +0.020 A 
ATOM     20  C   UNL     1      -2.956  -3.239   6.092  0.00  0.00    +0.041 A 
ATOM     21  C   UNL     1      -2.360  -2.843   7.276  0.00  0.00    +0.020 A 
ATOM     22  C   UNL     1      -1.144  -3.383   7.651  0.00  0.00    +0.007 A 
ATOM     23 CL   UNL     1      -4.486  -2.567   5.623  0.00  0.00    -0.084 Cl
ENDBRANCH  15  17
BRANCH   1  24
ATOM     24  C   UNL     1       2.718  -2.361   5.096  0.00  0.00    +0.135 C 
BRANCH  24  29
ATOM     25  C   UNL     1       1.195   0.907   3.943  0.00  0.00    +0.162 A 
ATOM     26  C   UNL     1       1.045   0.673   2.586  0.00  0.00    +0.049 A 
ATOM     27  C   UNL     1       1.437  -0.538   2.046  0.00  0.00    +0.004 A 
ATOM     28  C   UNL     1       1.977  -1.518   2.859  0.00  0.00    +0.008 A 
ATOM     29  C   UNL     1       2.129  -1.290   4.214  0.00  0.00    +0.007 A 
ATOM     30  C   UNL     1       1.745  -0.076   4.760  0.00  0.00    +0.165 A 
BRANCH  25  31
ATOM     31  O   UNL     1       0.811   2.099   4.475  0.00  0.00    -0.489 OA
BRANCH  31  33
ATOM     32  C   UNL     1      -0.114   4.328   4.352  0.00  0.00    +0.048 C 
ATOM     33  C   UNL     1       0.255   3.061   3.578  0.00  0.00    +0.226 C 
ENDBRANCH  31  33
ENDBRANCH  25  31
BRANCH  30  34
ATOM     34  O   UNL     1       1.899   0.151   6.092  0.00  0.00    -0.488 OA
BRANCH  34  35
ATOM     35  C   UNL     1       0.810  -0.211   6.942  0.00  0.00    +0.226 C 
ATOM     36  C   UNL     1       1.165   0.117   8.394  0.00  0.00    +0.048 C 
ENDBRANCH  34  35
ENDBRANCH  30  34
ENDBRANCH  24  29
ENDBRANCH   1  24
TORSDOF 7
