REMARK  Name = ZINC05444254
REMARK  11 active torsions:
REMARK  status: ('A' for Active; 'I' for Inactive)
REMARK    1  A    between atoms: C_1  and  C_2
REMARK    2  A    between atoms: C_2  and  C_3
REMARK    3  A    between atoms: C_3  and  C_4
REMARK    4  A    between atoms: C_3  and  C_5
REMARK    5  A    between atoms: C_3  and  N_6
REMARK    6  A    between atoms: C_7  and  C_11
REMARK    7  A    between atoms: C_11  and  C_13
REMARK    8  A    between atoms: C_11  and  N_65
REMARK    9  A    between atoms: C_16  and  C_26
REMARK   10  A    between atoms: C_19  and  C_25
REMARK   11  A    between atoms: C_30  and  C_33
REMARK                            x       y       z     vdW  Elec       q    Type
REMARK                         _______ _______ _______ _____ _____    ______ ____
ROOT
ATOM      1  C   UNL     1      -0.107   0.315  -0.155  0.00  0.00    +0.039 C 
ENDROOT
BRANCH   1   2
ATOM      2  C   UNL     1      -0.125   1.810  -0.343  0.00  0.00    +0.011 A 
ATOM      3  C   UNL     1      -1.308   2.461  -0.472  0.00  0.00    +0.018 A 
ATOM      4  C   UNL     1      -1.291   3.914  -0.649  0.00  0.00    +0.002 A 
ATOM      5  C   UNL     1      -2.479   4.640  -0.783  0.00  0.00    -0.041 A 
ATOM      6  C   UNL     1      -2.430   5.995  -0.951  0.00  0.00    +0.004 A 
ATOM      7  C   UNL     1      -1.210   6.658  -0.990  0.00  0.00    +0.005 A 
ATOM      8  C   UNL     1      -0.027   5.962  -0.861  0.00  0.00    -0.026 A 
ATOM      9  C   UNL     1      -0.053   4.582  -0.689  0.00  0.00    +0.052 A 
ATOM     10  N   UNL     1       1.115   3.862  -0.556  0.00  0.00    -0.322 N 
ATOM     11  H   UNL     1       1.994   4.338  -0.584  0.00  0.00    +0.169 HD
ATOM     12  C   UNL     1       1.089   2.528  -0.389  0.00  0.00    +0.251 A 
ATOM     13  O   UNL     1       2.141   1.923  -0.275  0.00  0.00    -0.268 OA
ATOM     14  C   UNL     1       1.289   6.694  -0.906  0.00  0.00    +0.046 C 
ATOM     15  C   UNL     1      -3.808   3.931  -0.742  0.00  0.00    +0.044 C 
ENDBRANCH   1   2
BRANCH   1  22
ATOM     16  C   UNL     1       0.181   0.768   2.206  0.00  0.00    -0.077 C 
ATOM     17  C   UNL     1       1.085   0.505   3.412  0.00  0.00    -0.018 C 
ATOM     18  C   UNL     1       1.059  -0.989   3.747  0.00  0.00    -0.001 C 
ATOM     19  C   UNL     1       1.509  -1.786   2.519  0.00  0.00    -0.031 C 
ATOM     20  C   UNL     1       0.592  -1.457   1.339  0.00  0.00    -0.074 C 
ATOM     21  C   UNL     1       1.429  -3.284   2.825  0.00  0.00    +0.005 C 
ATOM     22  N   UNL     1       0.681  -0.009   1.052  0.00  0.00    +0.389 N 
ATOM     23  H   UNL     1       1.663   0.237   0.885  0.00  0.00    -0.080 HD
ENDBRANCH   1  22
BRANCH   1  25
ATOM     24  N   UNL     1      -0.061  -1.090  -2.283  0.00  0.00    -0.225 N 
ATOM     25  C   UNL     1       0.545  -0.333  -1.349  0.00  0.00    +0.143 A 
ATOM     26  N   UNL     1       1.810  -0.265  -1.683  0.00  0.00    -0.115 NA
ATOM     27  N   UNL     1       1.975  -0.951  -2.761  0.00  0.00    -0.023 NA
ATOM     28  N   UNL     1       0.846  -1.448  -3.128  0.00  0.00    -0.043 NA
BRANCH  24  29
ATOM     29  C   UNL     1      -1.482  -1.440  -2.331  0.00  0.00    +0.061 C 
ATOM     30  C   UNL     1      -1.847  -2.266  -1.095  0.00  0.00    +0.036 C 
ATOM     31  C   UNL     1      -2.322  -0.162  -2.356  0.00  0.00    +0.036 C 
BRANCH  29  33
ATOM     32  C   UNL     1      -3.248  -2.625  -3.643  0.00  0.00    +0.006 C 
ATOM     33  C   UNL     1      -1.763  -2.259  -3.592  0.00  0.00    +0.026 C 
ENDBRANCH  29  33
ENDBRANCH  24  29
ENDBRANCH   1  25
TORSDOF 5
