REMARK  Name = ZINC00340341
REMARK  11 active torsions:
REMARK  status: ('A' for Active; 'I' for Inactive)
REMARK    1  A    between atoms: C_1  and  C_2
REMARK    2  A    between atoms: C_4  and  O_24
REMARK    3  A    between atoms: C_5  and  C_21
REMARK    4  A    between atoms: C_7  and  N_8
REMARK    5  A    between atoms: C_9  and  C_11
REMARK    6  A    between atoms: C_14  and  S_19
REMARK    7  A    between atoms: C_16  and  O_17
REMARK    8  A    between atoms: O_17  and  C_18
REMARK    9  A    between atoms: S_19  and  C_20
REMARK   10  A    between atoms: C_21  and  C_22
REMARK   11  A    between atoms: C_21  and  C_23
REMARK                            x       y       z     vdW  Elec       q    Type
REMARK                         _______ _______ _______ _____ _____    ______ ____
ROOT
ATOM      1  N   UNL     1       2.495  -0.274  -0.022  0.00  0.00    -0.281 N 
ATOM      2  C   UNL     1       2.405   0.935   0.566  0.00  0.00    +0.252 C 
ATOM      3  O   UNL     1       3.384   1.430   1.092  0.00  0.00    -0.270 OA
ATOM      4  H   UNL     1       1.699  -0.704  -0.371  0.00  0.00    +0.155 HD
ENDROOT
BRANCH   1  11
ATOM      5  C   UNL     1       2.539  -3.111  -0.226  0.00  0.00    +0.046 C 
ATOM      6  C   UNL     1       3.805  -2.293  -0.231  0.00  0.00    -0.026 A 
ATOM      7  C   UNL     1       5.031  -2.918  -0.343  0.00  0.00    +0.050 A 
ATOM      8  C   UNL     1       6.196  -2.166  -0.342  0.00  0.00    +0.121 A 
ATOM      9  C   UNL     1       6.131  -0.784  -0.235  0.00  0.00    -0.002 A 
ATOM     10  C   UNL     1       4.906  -0.157  -0.129  0.00  0.00    +0.031 A 
ATOM     11  C   UNL     1       3.738  -0.910  -0.130  0.00  0.00    +0.037 A 
BRANCH   9  12
ATOM     12  C   UNL     1       7.398   0.032  -0.234  0.00  0.00    +0.016 C 
ATOM     13  C   UNL     1       7.378   1.006  -1.413  0.00  0.00    +0.012 C 
ATOM     14  C   UNL     1       7.497   0.818   1.075  0.00  0.00    +0.012 C 
ENDBRANCH   9  12
BRANCH   8  15
ATOM     15  O   UNL     1       7.403  -2.784  -0.445  0.00  0.00    -0.506 OA
ATOM     16  H   UNL     1       7.795  -3.028   0.404  0.00  0.00    +0.292 HD
ENDBRANCH   8  15
ENDBRANCH   1  11
BRANCH   2  17
ATOM     17  C   UNL     1       1.123   1.657   0.571  0.00  0.00    +0.079 A 
ATOM     18  C   UNL     1      -0.005   1.091  -0.034  0.00  0.00    +0.018 A 
ATOM     19  C   UNL     1      -1.192   1.762  -0.033  0.00  0.00    +0.015 A 
ATOM     20  C   UNL     1      -1.295   3.011   0.578  0.00  0.00    +0.011 A 
ATOM     21  C   UNL     1      -0.184   3.588   1.183  0.00  0.00    +0.061 A 
ATOM     22  C   UNL     1       1.026   2.917   1.183  0.00  0.00    +0.133 A 
BRANCH  22  23
ATOM     23  O   UNL     1       2.114   3.474   1.772  0.00  0.00    -0.494 OA
ATOM     24  C   UNL     1       1.940   4.758   2.375  0.00  0.00    +0.277 C 
ENDBRANCH  22  23
BRANCH  20  25
ATOM     25  S   UNL     1      -2.836   3.865   0.578  0.00  0.00    -0.128 S 
ATOM     26  C   UNL     1      -3.958   2.746  -0.305  0.00  0.00    +0.090 C 
ENDBRANCH  20  25
ENDBRANCH   2  17
TORSDOF 6
