REMARK  Name = ZINC18251295
REMARK  6 active torsions:
REMARK  status: ('A' for Active; 'I' for Inactive)
REMARK    1  A    between atoms: C_1  and  C_2
REMARK    2  A    between atoms: C_2  and  C_15
REMARK    3  A    between atoms: C_6  and  C_13
REMARK    4  A    between atoms: C_6  and  C_14
REMARK    5  A    between atoms: N_8  and  N_9
REMARK    6  A    between atoms: N_11  and  N_12
REMARK                            x       y       z     vdW  Elec       q    Type
REMARK                         _______ _______ _______ _____ _____    ______ ____
ROOT
ATOM      1  C   UNL     1       1.395   1.323   0.528  0.00  0.00    +0.018 C 
ATOM      2  C   UNL     1       1.062  -0.113   0.120  0.00  0.00    +0.020 C 
ATOM      3  C   UNL     1       2.025  -0.582  -0.944  0.00  0.00    +0.081 C 
ATOM      4  S   UNL     1       1.301  -1.819  -2.053  0.00  0.00    -0.159 S 
ATOM      5  C   UNL     1       0.358  -2.974  -1.023  0.00  0.00    +0.081 C 
ATOM      6  C   UNL     1       1.083  -3.353   0.246  0.00  0.00    +0.020 C 
ATOM      7  C   UNL     1       0.692  -2.338   1.313  0.00  0.00    +0.088 C 
ATOM      8  N   UNL     1      -0.152  -2.683   2.241  0.00  0.00    -0.192 NA
ATOM      9  C   UNL     1       1.222  -1.043   1.318  0.00  0.00    +0.088 C 
ATOM     10  N   UNL     1       1.865  -0.623   2.368  0.00  0.00    -0.192 NA
ATOM     11  C   UNL     1       2.595  -3.310   0.015  0.00  0.00    +0.018 C 
ATOM     12  C   UNL     1       0.663  -4.758   0.685  0.00  0.00    +0.018 C 
ATOM     13  C   UNL     1      -0.373  -0.185  -0.406  0.00  0.00    +0.018 C 
ENDROOT
BRANCH   8  14
ATOM     14  N   UNL     1      -0.986  -3.792   2.052  0.00  0.00    -0.282 N 
ATOM     15  H   UNL     1      -1.119  -4.428   2.772  0.00  0.00    +0.164 HD
ATOM     16  H   UNL     1      -1.431  -3.925   1.200  0.00  0.00    +0.164 HD
ENDBRANCH   8  14
BRANCH  10  17
ATOM     17  N   UNL     1       2.022  -1.464   3.477  0.00  0.00    -0.282 N 
ATOM     18  H   UNL     1       2.501  -1.151   4.259  0.00  0.00    +0.164 HD
ATOM     19  H   UNL     1       1.650  -2.360   3.462  0.00  0.00    +0.164 HD
ENDBRANCH  10  17
TORSDOF 2
