REMARK  Name = ZINC35778978
REMARK  15 active torsions:
REMARK  status: ('A' for Active; 'I' for Inactive)
REMARK    1  A    between atoms: C_1  and  C_2
REMARK    2  A    between atoms: C_6  and  O_8
REMARK    3  A    between atoms: O_8  and  C_9
REMARK    4  A    between atoms: C_9  and  C_10
REMARK    5  A    between atoms: C_20  and  C_22
REMARK    6  A    between atoms: C_22  and  N_23
REMARK    7  A    between atoms: N_23  and  C_24
REMARK    8  A    between atoms: N_23  and  C_28
REMARK    9  A    between atoms: C_24  and  C_25
REMARK   10  A    between atoms: C_28  and  C_29
REMARK   11  A    between atoms: C_29  and  C_31
REMARK   12  A    between atoms: C_29  and  O_40
REMARK   13  A    between atoms: C_31  and  O_32
REMARK   14  A    between atoms: O_32  and  C_33
REMARK   15  A    between atoms: C_33  and  C_34
REMARK                            x       y       z     vdW  Elec       q    Type
REMARK                         _______ _______ _______ _____ _____    ______ ____
ROOT
ATOM      1  C   UNL     1      -0.260  -5.651   3.531  0.00  0.00    +0.144 C 
ATOM      2  C   UNL     1      -1.579  -5.639   4.302  0.00  0.00    -0.014 A 
ATOM      3  C   UNL     1      -2.762  -6.177   3.799  0.00  0.00    +0.013 A 
ATOM      4  C   UNL     1      -3.895  -6.127   4.537  0.00  0.00    +0.046 A 
ATOM      5  S   UNL     1      -3.335  -5.298   6.016  0.00  0.00    -0.101 S 
ATOM      6  C   UNL     1      -1.639  -5.084   5.543  0.00  0.00    -0.004 A 
ATOM      7  C   UNL     1      -0.532  -4.449   6.319  0.00  0.00    +0.061 C 
ATOM      8  C   UNL     1       0.628  -4.139   5.360  0.00  0.00    +0.113 C 
ATOM      9  N   UNL     1       0.813  -5.296   4.469  0.00  0.00    -0.292 N 
ATOM     10  C   UNL     1       1.949  -6.020   4.514  0.00  0.00    +0.200 C 
ATOM     11  O   UNL     1       2.091  -6.972   3.776  0.00  0.00    -0.278 OA
ENDROOT
BRANCH   1  12
ATOM     12  C   UNL     1      -0.315  -4.627   2.395  0.00  0.00    +0.256 C 
BRANCH  12  13
ATOM     13  O   UNL     1      -0.666  -3.347   2.924  0.00  0.00    -0.490 OA
BRANCH  13  19
ATOM     14  C   UNL     1      -1.556   1.375   2.067  0.00  0.00    +0.044 C 
ATOM     15  C   UNL     1      -1.189  -0.005   1.584  0.00  0.00    -0.047 A 
ATOM     16  C   UNL     1      -0.947  -0.226   0.241  0.00  0.00    +0.003 A 
ATOM     17  C   UNL     1      -0.611  -1.490  -0.205  0.00  0.00    +0.004 A 
ATOM     18  C   UNL     1      -0.516  -2.537   0.692  0.00  0.00    +0.045 A 
ATOM     19  C   UNL     1      -0.758  -2.319   2.040  0.00  0.00    +0.121 A 
ATOM     20  C   UNL     1      -1.090  -1.047   2.485  0.00  0.00    +0.049 A 
ENDBRANCH  13  19
ENDBRANCH  12  13
ENDBRANCH   1  12
BRANCH  10  21
ATOM     21  C   UNL     1       3.043  -5.646   5.480  0.00  0.00    +0.019 C 
BRANCH  21  22
ATOM     22  N   UNL     1       4.136  -6.623   5.385  0.00  0.00    +0.387 N 
ATOM     23  H   UNL     1       3.763  -7.555   5.489  0.00  0.00    -0.081 HD
BRANCH  22  24
ATOM     24  C   UNL     1       5.117  -6.366   6.447  0.00  0.00    -0.075 C 
BRANCH  24  25
ATOM     25  C   UNL     1       4.446  -6.534   7.812  0.00  0.00    -0.028 C 
ATOM     26  C   UNL     1       4.299  -5.286   8.685  0.00  0.00    +0.002 C 
ATOM     27  C   UNL     1       5.322  -6.362   9.055  0.00  0.00    +0.002 C 
ENDBRANCH  24  25
ENDBRANCH  22  24
BRANCH  22  28
ATOM     28  C   UNL     1       4.789  -6.501   4.075  0.00  0.00    -0.044 C 
BRANCH  28  29
ATOM     29  C   UNL     1       5.804  -7.633   3.904  0.00  0.00    +0.124 C 
BRANCH  29  30
ATOM     30  O   UNL     1       6.897  -7.434   4.803  0.00  0.00    -0.391 OA
ATOM     31  H   UNL     1       7.371  -6.602   4.667  0.00  0.00    +0.210 HD
ENDBRANCH  29  30
BRANCH  29  32
ATOM     32  C   UNL     1       6.323  -7.639   2.464  0.00  0.00    +0.189 C 
BRANCH  32  33
ATOM     33  O   UNL     1       7.181  -8.766   2.272  0.00  0.00    -0.373 OA
BRANCH  33  34
ATOM     34  C   UNL     1       7.723  -8.866   0.954  0.00  0.00    +0.195 C 
BRANCH  34  35
ATOM     35  C   UNL     1       8.607 -10.083   0.865  0.00  0.00    -0.022 A 
ATOM     36  C   UNL     1       9.953  -9.982   1.166  0.00  0.00    +0.006 A 
ATOM     37  C   UNL     1      10.764 -11.098   1.084  0.00  0.00    +0.000 A 
ATOM     38  C   UNL     1      10.230 -12.315   0.702  0.00  0.00    +0.000 A 
ATOM     39  C   UNL     1       8.885 -12.415   0.402  0.00  0.00    +0.000 A 
ATOM     40  C   UNL     1       8.072 -11.300   0.488  0.00  0.00    +0.006 A 
ENDBRANCH  34  35
ENDBRANCH  33  34
ENDBRANCH  32  33
ENDBRANCH  29  32
ENDBRANCH  28  29
ENDBRANCH  22  28
ENDBRANCH  21  22
ENDBRANCH  10  21
TORSDOF 14
