REMARK  Name = ZINC22431856
REMARK  14 active torsions:
REMARK  status: ('A' for Active; 'I' for Inactive)
REMARK    1  A    between atoms: C_1  and  C_2
REMARK    2  A    between atoms: C_5  and  S_8
REMARK    3  A    between atoms: S_8  and  N_11
REMARK    4  A    between atoms: N_11  and  C_12
REMARK    5  A    between atoms: N_11  and  C_29
REMARK    6  A    between atoms: C_12  and  C_13
REMARK    7  A    between atoms: N_15  and  C_16
REMARK    8  A    between atoms: C_16  and  C_18
REMARK    9  A    between atoms: C_16  and  C_19
REMARK   10  A    between atoms: C_22  and  O_27
REMARK   11  A    between atoms: C_23  and  O_25
REMARK   12  A    between atoms: O_25  and  C_26
REMARK   13  A    between atoms: O_27  and  C_28
REMARK   14  A    between atoms: C_34  and  C_35
REMARK                            x       y       z     vdW  Elec       q    Type
REMARK                         _______ _______ _______ _____ _____    ______ ____
ROOT
ATOM      1  N   UNL     1       0.167   0.041  -2.356  0.00  0.00    -0.194 N 
ENDROOT
BRANCH   1   2
ATOM      2  C   UNL     1       0.087  -0.783  -1.231  0.00  0.00    +0.056 A 
ATOM      3  C   UNL     1      -0.080  -0.225   0.030  0.00  0.00    +0.045 A 
ATOM      4  C   UNL     1      -0.151  -1.043   1.142  0.00  0.00    +0.043 A 
ATOM      5  C   UNL     1      -0.063  -2.417   0.998  0.00  0.00    +0.020 A 
ATOM      6  C   UNL     1       0.097  -2.974  -0.257  0.00  0.00    +0.006 A 
ATOM      7  C   UNL     1       0.170  -2.162  -1.372  0.00  0.00    -0.028 A 
ATOM      8  C   UNL     1       0.344  -2.772  -2.739  0.00  0.00    +0.046 C 
ATOM      9 CL   UNL     1      -0.351  -0.347   2.719  0.00  0.00    -0.083 Cl
ENDBRANCH   1   2
BRANCH   1  10
ATOM     10  S   UNL     1       1.643   0.556  -2.902  0.00  0.00    +0.075 S 
ATOM     11  O   UNL     1       1.433   1.829  -3.499  0.00  0.00    -0.150 OA
ATOM     12  O   UNL     1       2.563   0.355  -1.838  0.00  0.00    -0.150 OA
BRANCH  10  17
ATOM     13  C   UNL     1       3.302  -3.175  -7.344  0.00  0.00    +0.044 C 
ATOM     14  C   UNL     1       2.888  -2.243  -6.235  0.00  0.00    -0.050 A 
ATOM     15  C   UNL     1       2.155  -1.108  -6.524  0.00  0.00    +0.005 A 
ATOM     16  C   UNL     1       1.774  -0.253  -5.506  0.00  0.00    +0.029 A 
ATOM     17  C   UNL     1       2.127  -0.533  -4.199  0.00  0.00    +0.109 A 
ATOM     18  C   UNL     1       2.865  -1.667  -3.911  0.00  0.00    +0.029 A 
ATOM     19  C   UNL     1       3.241  -2.524  -4.928  0.00  0.00    +0.005 A 
ENDBRANCH  10  17
ENDBRANCH   1  10
BRANCH   1  20
ATOM     20  C   UNL     1      -1.056   0.450  -3.052  0.00  0.00    +0.227 C 
BRANCH  20  21
ATOM     21  C   UNL     1      -1.619   1.684  -2.396  0.00  0.00    +0.233 C 
ATOM     22  O   UNL     1      -1.000   2.237  -1.511  0.00  0.00    -0.274 OA
ATOM     23  N   UNL     1      -2.811   2.174  -2.792  0.00  0.00    -0.307 N 
ATOM     24  H   UNL     1      -3.372   1.673  -3.594  0.00  0.00    +0.149 HD
BRANCH  23  25
ATOM     25  C   UNL     1      -3.358   3.373  -2.153  0.00  0.00    +0.100 C 
ATOM     26  C   UNL     1      -4.109   2.976  -0.881  0.00  0.00    +0.033 C 
BRANCH  25  27
ATOM     27  C   UNL     1      -4.306   4.059  -3.103  0.00  0.00    -0.024 A 
ATOM     28  C   UNL     1      -5.164   3.307  -3.885  0.00  0.00    +0.009 A 
ATOM     29  C   UNL     1      -6.036   3.932  -4.756  0.00  0.00    +0.050 A 
ATOM     30  C   UNL     1      -6.052   5.314  -4.849  0.00  0.00    +0.162 A 
ATOM     31  C   UNL     1      -5.188   6.071  -4.063  0.00  0.00    +0.162 A 
ATOM     32  C   UNL     1      -4.321   5.439  -3.187  0.00  0.00    +0.054 A 
BRANCH  31  33
ATOM     33  O   UNL     1      -5.200   7.428  -4.150  0.00  0.00    -0.491 OA
ATOM     34  C   UNL     1      -4.286   8.140  -3.313  0.00  0.00    +0.277 C 
ENDBRANCH  31  33
BRANCH  30  35
ATOM     35  O   UNL     1      -6.909   5.930  -5.707  0.00  0.00    -0.491 OA
ATOM     36  C   UNL     1      -7.766   5.090  -6.482  0.00  0.00    +0.277 C 
ENDBRANCH  30  35
ENDBRANCH  25  27
ENDBRANCH  23  25
ENDBRANCH  20  21
ENDBRANCH   1  20
TORSDOF 9
