REMARK  Name = ZINC09477869
REMARK  10 active torsions:
REMARK  status: ('A' for Active; 'I' for Inactive)
REMARK    1  A    between atoms: C_1  and  C_2
REMARK    2  A    between atoms: C_3  and  C_31
REMARK    3  A    between atoms: N_4  and  C_25
REMARK    4  A    between atoms: C_5  and  N_9
REMARK    5  A    between atoms: C_6  and  C_7
REMARK    6  A    between atoms: C_10  and  C_12
REMARK    7  A    between atoms: C_12  and  S_13
REMARK    8  A    between atoms: S_13  and  C_14
REMARK    9  A    between atoms: N_18  and  C_19
REMARK   10  A    between atoms: C_25  and  C_26
REMARK                            x       y       z     vdW  Elec       q    Type
REMARK                         _______ _______ _______ _____ _____    ______ ____
ROOT
ATOM      1  N   UNL     1      -6.156   5.250   0.093  0.00  0.00    -0.270 N 
ATOM      2  C   UNL     1      -5.938   3.937   0.301  0.00  0.00    +0.229 C 
ATOM      3  O   UNL     1      -6.397   3.394   1.284  0.00  0.00    -0.275 OA
ATOM      4  H   UNL     1      -5.731   5.700  -0.655  0.00  0.00    +0.156 HD
ENDROOT
BRANCH   1   9
ATOM      5  C   UNL     1      -8.020   7.728   4.083  0.00  0.00    +0.047 C 
ATOM      6  C   UNL     1      -7.858   7.084   2.731  0.00  0.00    -0.011 A 
ATOM      7  C   UNL     1      -8.772   7.043   1.747  0.00  0.00    +0.022 A 
ATOM      8  N   UNL     1      -8.250   6.373   0.673  0.00  0.00    -0.324 N 
ATOM      9  C   UNL     1      -6.986   5.960   0.947  0.00  0.00    +0.124 A 
ATOM     10  C   UNL     1      -6.671   6.378   2.232  0.00  0.00    +0.095 A 
ATOM     11  C   UNL     1     -10.152   7.644   1.814  0.00  0.00    +0.064 C 
BRANCH  10  12
ATOM     12  C   UNL     1      -5.439   6.165   2.930  0.00  0.00    +0.103 C 
ATOM     13  N   UNL     1      -4.461   5.995   3.484  0.00  0.00    -0.191 NA
ENDBRANCH  10  12
BRANCH   8  14
ATOM     14  C   UNL     1      -8.955   6.135  -0.589  0.00  0.00    +0.197 C 
BRANCH  14  15
ATOM     15  C   UNL     1      -9.596   4.771  -0.557  0.00  0.00    +0.124 A 
ATOM     16  C   UNL     1     -10.834   4.494  -0.112  0.00  0.00    +0.046 A 
ATOM     17  C   UNL     1     -11.023   3.101  -0.266  0.00  0.00    +0.041 A 
ATOM     18  C   UNL     1      -9.886   2.609  -0.789  0.00  0.00    +0.195 A 
ATOM     19  O   UNL     1      -9.025   3.625  -0.963  0.00  0.00    -0.466 OA
ENDBRANCH  14  15
ENDBRANCH   8  14
ENDBRANCH   1   9
BRANCH   2  20
ATOM     20  C   UNL     1      -5.125   3.142  -0.687  0.00  0.00    +0.173 C 
BRANCH  20  21
ATOM     21  S   UNL     1      -5.013   1.422  -0.132  0.00  0.00    -0.075 S 
BRANCH  21  22
ATOM     22  C   UNL     1      -4.039   0.743  -1.434  0.00  0.00    +0.210 A 
ATOM     23  N   UNL     1      -3.570   1.391  -2.479  0.00  0.00    -0.101 NA
ATOM     24  N   UNL     1      -2.900   0.598  -3.235  0.00  0.00    -0.022 NA
ATOM     25  N   UNL     1      -2.885  -0.591  -2.737  0.00  0.00    -0.043 NA
ATOM     26  N   UNL     1      -3.632  -0.543  -1.547  0.00  0.00    -0.217 N 
BRANCH  26  27
ATOM     27  C   UNL     1      -3.906  -1.647  -0.624  0.00  0.00    +0.112 C 
ATOM     28  C   UNL     1      -2.585  -2.206  -0.090  0.00  0.00    +0.027 C 
ATOM     29  C   UNL     1      -2.871  -3.359   0.873  0.00  0.00    +0.002 C 
ATOM     30  C   UNL     1      -3.631  -4.463   0.136  0.00  0.00    +0.000 C 
ATOM     31  C   UNL     1      -4.952  -3.905  -0.398  0.00  0.00    +0.002 C 
ATOM     32  C   UNL     1      -4.665  -2.752  -1.362  0.00  0.00    +0.027 C 
ENDBRANCH  26  27
ENDBRANCH  21  22
ENDBRANCH  20  21
ENDBRANCH   2  20
TORSDOF 8
