REMARK  Name = ZINC03640357
REMARK  8 active torsions:
REMARK  status: ('A' for Active; 'I' for Inactive)
REMARK    1  A    between atoms: C_3  and  O_35
REMARK    2  A    between atoms: C_6  and  N_7
REMARK    3  A    between atoms: N_7  and  S_8
REMARK    4  A    between atoms: S_8  and  C_11
REMARK    5  A    between atoms: C_19  and  S_24
REMARK    6  A    between atoms: S_24  and  N_27
REMARK    7  A    between atoms: N_27  and  C_28
REMARK    8  A    between atoms: C_31  and  O_34
REMARK                            x       y       z     vdW  Elec       q    Type
REMARK                         _______ _______ _______ _____ _____    ______ ____
ROOT
ATOM      1  C   UNL     1      -2.938   1.738   0.962  0.00  0.00    +0.109 A 
ATOM      2  C   UNL     1      -2.852   2.823   1.819  0.00  0.00    +0.032 A 
ATOM      3  C   UNL     1      -3.169   2.689   3.155  0.00  0.00    +0.049 A 
ATOM      4  C   UNL     1      -3.580   1.459   3.653  0.00  0.00    +0.136 A 
ATOM      5  C   UNL     1      -3.666   0.363   2.783  0.00  0.00    +0.030 A 
ATOM      6  C   UNL     1      -3.349   0.511   1.437  0.00  0.00    +0.041 A 
ATOM      7  C   UNL     1      -4.123  -0.769   3.611  0.00  0.00    +0.030 A 
ATOM      8  C   UNL     1      -4.399  -2.107   3.352  0.00  0.00    +0.041 A 
ATOM      9  C   UNL     1      -4.820  -2.930   4.375  0.00  0.00    +0.109 A 
ATOM     10  C   UNL     1      -4.969  -2.425   5.657  0.00  0.00    +0.032 A 
ATOM     11  C   UNL     1      -4.698  -1.100   5.926  0.00  0.00    +0.049 A 
ATOM     12  C   UNL     1      -4.272  -0.256   4.907  0.00  0.00    +0.136 A 
ATOM     13  O   UNL     1      -3.944   1.055   4.890  0.00  0.00    -0.455 OA
ENDROOT
BRANCH   1  14
ATOM     14  S   UNL     1      -2.529   1.929  -0.742  0.00  0.00    +0.072 S 
ATOM     15  O   UNL     1      -2.597   3.321  -1.022  0.00  0.00    -0.150 OA
ATOM     16  O   UNL     1      -3.299   0.971  -1.454  0.00  0.00    -0.150 OA
BRANCH  14  17
ATOM     17  N   UNL     1      -0.943   1.488  -0.917  0.00  0.00    -0.216 N 
ATOM     18  H   UNL     1      -0.282   2.148  -1.177  0.00  0.00    +0.174 HD
BRANCH  17  24
ATOM     19  C   UNL     1       0.127  -0.178   0.466  0.00  0.00    +0.028 A 
ATOM     20  C   UNL     1       0.502  -1.488   0.687  0.00  0.00    +0.047 A 
ATOM     21  C   UNL     1       0.207  -2.463  -0.254  0.00  0.00    +0.117 A 
ATOM     22  C   UNL     1      -0.471  -2.124  -1.416  0.00  0.00    +0.047 A 
ATOM     23  C   UNL     1      -0.853  -0.815  -1.636  0.00  0.00    +0.028 A 
ATOM     24  C   UNL     1      -0.557   0.162  -0.694  0.00  0.00    +0.048 A 
BRANCH  21  25
ATOM     25  O   UNL     1       0.582  -3.752  -0.038  0.00  0.00    -0.507 OA
ATOM     26  H   UNL     1       1.461  -3.969  -0.380  0.00  0.00    +0.292 HD
ENDBRANCH  21  25
ENDBRANCH  17  24
ENDBRANCH  14  17
ENDBRANCH   1  14
BRANCH   9  27
ATOM     27  S   UNL     1      -5.170  -4.627   4.052  0.00  0.00    +0.072 S 
ATOM     28  O   UNL     1      -4.512  -4.952   2.835  0.00  0.00    -0.150 OA
ATOM     29  O   UNL     1      -4.924  -5.330   5.263  0.00  0.00    -0.150 OA
BRANCH  27  30
ATOM     30  N   UNL     1      -6.795  -4.744   3.758  0.00  0.00    -0.216 N 
ATOM     31  H   UNL     1      -7.110  -5.055   2.895  0.00  0.00    +0.174 HD
BRANCH  30  32
ATOM     32  C   UNL     1      -7.714  -4.394   4.754  0.00  0.00    +0.048 A 
ATOM     33  C   UNL     1      -7.536  -4.849   6.054  0.00  0.00    +0.028 A 
ATOM     34  C   UNL     1      -8.440  -4.499   7.037  0.00  0.00    +0.047 A 
ATOM     35  C   UNL     1      -9.531  -3.703   6.724  0.00  0.00    +0.117 A 
ATOM     36  C   UNL     1      -9.713  -3.252   5.425  0.00  0.00    +0.047 A 
ATOM     37  C   UNL     1      -8.807  -3.597   4.442  0.00  0.00    +0.028 A 
BRANCH  35  38
ATOM     38  O   UNL     1     -10.424  -3.363   7.692  0.00  0.00    -0.507 OA
ATOM     39  H   UNL     1     -11.157  -3.987   7.788  0.00  0.00    +0.292 HD
ENDBRANCH  35  38
ENDBRANCH  30  32
ENDBRANCH  27  30
ENDBRANCH   9  27
TORSDOF 8
