REMARK  Name = ZINC36861000
REMARK  2 active torsions:
REMARK  status: ('A' for Active; 'I' for Inactive)
REMARK    1  A    between atoms: C_10  and  C_12
REMARK    2  A    between atoms: C_14  and  N_18
REMARK                            x       y       z     vdW  Elec       q    Type
REMARK                         _______ _______ _______ _____ _____    ______ ____
ROOT
ATOM      1  C   UNL     1       0.863   1.077  -1.989  0.00  0.00    +0.013 A 
ATOM      2  C   UNL     1       2.098   1.443  -2.402  0.00  0.00    +0.046 A 
ATOM      3  S   UNL     1       3.056  -0.021  -2.040  0.00  0.00    -0.101 S 
ATOM      4  C   UNL     1       1.743  -1.007  -1.371  0.00  0.00    -0.004 A 
ATOM      5  C   UNL     1       0.657  -0.192  -1.448  0.00  0.00    -0.020 A 
ATOM      6  C   UNL     1      -0.703  -0.678  -0.951  0.00  0.00    +0.144 C 
ATOM      7  N   UNL     1      -0.614  -2.130  -0.745  0.00  0.00    -0.292 N 
ATOM      8  C   UNL     1       0.541  -2.679  -0.019  0.00  0.00    +0.113 C 
ATOM      9  C   UNL     1       1.806  -2.405  -0.848  0.00  0.00    +0.061 C 
ATOM     10  C   UNL     1      -1.577  -2.947  -1.215  0.00  0.00    +0.263 C 
ATOM     11  O   UNL     1      -1.437  -4.154  -1.147  0.00  0.00    -0.268 OA
ENDROOT
BRANCH  10  12
ATOM     12  C   UNL     1      -2.793  -2.382  -1.809  0.00  0.00    +0.104 A 
ATOM     13  C   UNL     1      -3.656  -3.029  -2.668  0.00  0.00    +0.055 A 
ATOM     14  C   UNL     1      -4.678  -2.124  -2.987  0.00  0.00    +0.043 A 
ATOM     15  C   UNL     1      -4.424  -0.963  -2.328  0.00  0.00    +0.106 A 
ATOM     16  N   UNL     1      -3.281  -1.112  -1.605  0.00  0.00    -0.355 N 
ATOM     17  H   UNL     1      -2.878  -0.435  -1.040  0.00  0.00    +0.166 HD
BRANCH  14  18
ATOM     18  N   UNL     1      -5.772  -2.373  -3.837  0.00  0.00    -0.357 N 
ATOM     19  H   UNL     1      -5.867  -3.239  -4.263  0.00  0.00    +0.142 HD
ATOM     20  H   UNL     1      -6.430  -1.679  -3.995  0.00  0.00    +0.142 HD
ENDBRANCH  14  18
ENDBRANCH  10  12
TORSDOF 2
