REMARK  Name = ZINC13566209
REMARK  8 active torsions:
REMARK  status: ('A' for Active; 'I' for Inactive)
REMARK    1  A    between atoms: C_1  and  C_2
REMARK    2  A    between atoms: C_2  and  C_4
REMARK    3  A    between atoms: C_4  and  N_5
REMARK    4  A    between atoms: C_14  and  S_15
REMARK    5  A    between atoms: S_15  and  C_16
REMARK    6  A    between atoms: C_16  and  C_17
REMARK    7  A    between atoms: N_19  and  C_20
REMARK    8  A    between atoms: C_25  and  O_26
REMARK                            x       y       z     vdW  Elec       q    Type
REMARK                         _______ _______ _______ _____ _____    ______ ____
ROOT
ATOM      1  N   UNL     1      -0.474  -0.523   8.883  0.00  0.00    -0.283 N 
ATOM      2  C   UNL     1      -0.562   0.294   9.948  0.00  0.00    +0.264 A 
ATOM      3  O   UNL     1      -0.644  -0.165  11.075  0.00  0.00    -0.267 OA
ATOM      4  C   UNL     1      -0.562   1.710   9.740  0.00  0.00    +0.076 A 
ATOM      5  C   UNL     1      -0.653   2.774  10.742  0.00  0.00    -0.023 A 
ATOM      6  C   UNL     1      -0.632   4.044  10.289  0.00  0.00    -0.004 A 
ATOM      7  S   UNL     1      -0.495   3.903   8.528  0.00  0.00    -0.073 S 
ATOM      8  C   UNL     1      -0.464   2.132   8.404  0.00  0.00    +0.117 A 
ATOM      9  N   UNL     1      -0.375   1.273   7.396  0.00  0.00    -0.216 NA
ATOM     10  C   UNL     1      -0.376  -0.027   7.615  0.00  0.00    +0.173 A 
ATOM     11  C   UNL     1      -0.710   5.299  11.104  0.00  0.00    +0.043 C 
ATOM     12  C   UNL     1      -1.190   4.932  12.515  0.00  0.00    +0.005 C 
ATOM     13  C   UNL     1      -0.375   3.736  13.016  0.00  0.00    +0.005 C 
ATOM     14  C   UNL     1      -0.764   2.480  12.235  0.00  0.00    +0.037 C 
ENDROOT
BRANCH   1  15
ATOM     15  C   UNL     1      -0.478  -1.974   9.088  0.00  0.00    +0.157 C 
BRANCH  15  17
ATOM     16  C   UNL     1       1.787  -2.777   8.070  0.00  0.00    +0.040 C 
ATOM     17  C   UNL     1       0.937  -2.459   9.273  0.00  0.00    -0.060 C 
ATOM     18  C   UNL     1       1.428  -2.604  10.479  0.00  0.00    +0.009 C 
ENDBRANCH  15  17
ENDBRANCH   1  15
BRANCH  10  19
ATOM     19  S   UNL     1      -0.257  -1.138   6.254  0.00  0.00    -0.078 S 
BRANCH  19  20
ATOM     20  C   UNL     1      -0.166   0.046   4.888  0.00  0.00    +0.173 C 
BRANCH  20  21
ATOM     21  C   UNL     1      -0.055  -0.699   3.583  0.00  0.00    +0.228 C 
ATOM     22  O   UNL     1      -0.040  -1.912   3.577  0.00  0.00    -0.275 OA
ATOM     23  N   UNL     1       0.026  -0.018   2.423  0.00  0.00    -0.282 N 
ATOM     24  H   UNL     1       0.095   0.949   2.432  0.00  0.00    +0.155 HD
BRANCH  23  25
ATOM     25  C   UNL     1       0.012  -0.708   1.203  0.00  0.00    +0.075 A 
ATOM     26  C   UNL     1      -0.580  -1.960   1.119  0.00  0.00    +0.027 A 
ATOM     27  C   UNL     1      -0.592  -2.638  -0.085  0.00  0.00    +0.002 A 
ATOM     28  C   UNL     1      -0.017  -2.072  -1.208  0.00  0.00    +0.004 A 
ATOM     29  C   UNL     1       0.571  -0.823  -1.133  0.00  0.00    +0.047 A 
ATOM     30  C   UNL     1       0.592  -0.139   0.072  0.00  0.00    +0.138 A 
BRANCH  30  31
ATOM     31  O   UNL     1       1.173   1.089   0.148  0.00  0.00    -0.505 OA
ATOM     32  H   UNL     1       2.113   1.065   0.376  0.00  0.00    +0.292 HD
ENDBRANCH  30  31
ENDBRANCH  23  25
ENDBRANCH  20  21
ENDBRANCH  19  20
ENDBRANCH  10  19
TORSDOF 7
