REMARK  Name = ZINC21055550
REMARK  6 active torsions:
REMARK  status: ('A' for Active; 'I' for Inactive)
REMARK    1  A    between atoms: C_1  and  C_2
REMARK    2  A    between atoms: C_4  and  C_12
REMARK    3  A    between atoms: C_6  and  N_9
REMARK    4  A    between atoms: C_7  and  C_8
REMARK    5  A    between atoms: C_12  and  C_14
REMARK    6  A    between atoms: C_12  and  N_22
REMARK                            x       y       z     vdW  Elec       q    Type
REMARK                         _______ _______ _______ _____ _____    ______ ____
ROOT
ATOM      1  C   UNL     1      -2.468   0.908  -0.084  0.00  0.00    -0.012 C 
ENDROOT
BRANCH   1   5
ATOM      2  C   UNL     1       2.523   1.123   0.212  0.00  0.00    +0.044 C 
ATOM      3  C   UNL     1       1.191   1.819   0.110  0.00  0.00    -0.045 A 
ATOM      4  C   UNL     1       0.025   1.078   0.068  0.00  0.00    +0.006 A 
ATOM      5  C   UNL     1      -1.197   1.716  -0.032  0.00  0.00    -0.055 A 
ATOM      6  C   UNL     1      -1.253   3.097  -0.079  0.00  0.00    +0.035 A 
ATOM      7  C   UNL     1      -0.087   3.838  -0.037  0.00  0.00    +0.130 A 
ATOM      8  C   UNL     1       1.135   3.199   0.057  0.00  0.00    -0.017 A 
ATOM      9  C   UNL     1       2.406   4.007   0.103  0.00  0.00    +0.046 C 
BRANCH   7  10
ATOM     10  N   UNL     1      -0.148   5.316  -0.092  0.00  0.00    +0.057 N 
ATOM     11  O   UNL     1      -1.047   5.911   0.475  0.00  0.00    -0.126 OA
ATOM     12  O   UNL     1       0.702   5.938  -0.704  0.00  0.00    -0.126 OA
ENDBRANCH   7  10
ENDBRANCH   1   5
BRANCH   1  13
ATOM     13  C   UNL     1      -3.111   0.896   1.278  0.00  0.00    -0.039 A 
ATOM     14  C   UNL     1      -4.168   1.745   1.551  0.00  0.00    +0.006 A 
ATOM     15  C   UNL     1      -4.759   1.734   2.800  0.00  0.00    +0.038 A 
ATOM     16  C   UNL     1      -4.293   0.873   3.780  0.00  0.00    +0.125 A 
ATOM     17  C   UNL     1      -3.235   0.023   3.506  0.00  0.00    +0.058 A 
ATOM     18  C   UNL     1      -2.648   0.031   2.254  0.00  0.00    +0.046 A 
ATOM     19 CL   UNL     1      -1.326  -1.040   1.908  0.00  0.00    -0.083 Cl
ATOM     20  F   UNL     1      -4.870   0.863   5.001  0.00  0.00    -0.205 F 
ENDBRANCH   1  13
BRANCH   1  21
ATOM     21  N   UNL     1      -3.391   1.509  -1.056  0.00  0.00    +0.385 N 
ATOM     22  H   UNL     1      -4.318   0.919  -1.094  0.00  0.00    -0.089 HD
ATOM     23  H   UNL     1      -2.921   1.518  -2.051  0.00  0.00    -0.089 HD
ATOM     24  H   UNL     1      -3.624   2.540  -0.752  0.00  0.00    -0.089 HD
ENDBRANCH   1  21
TORSDOF 4
