REMARK  Name = ZINC34682073
REMARK  8 active torsions:
REMARK  status: ('A' for Active; 'I' for Inactive)
REMARK    1  A    between atoms: C_1  and  C_2
REMARK    2  A    between atoms: C_2  and  O_3
REMARK    3  A    between atoms: O_3  and  C_4
REMARK    4  A    between atoms: C_9  and  N_10
REMARK    5  A    between atoms: N_13  and  C_14
REMARK    6  A    between atoms: N_23  and  C_26
REMARK    7  A    between atoms: C_26  and  C_27
REMARK    8  A    between atoms: C_30  and  N_33
REMARK                            x       y       z     vdW  Elec       q    Type
REMARK                         _______ _______ _______ _____ _____    ______ ____
ROOT
ATOM      1  C   UNL     1       3.723  -1.631   6.597  0.00  0.00    +0.051 A 
ATOM      2  C   UNL     1       3.842  -3.011   6.758  0.00  0.00    +0.028 A 
ATOM      3  C   UNL     1       4.511  -3.489   7.870  0.00  0.00    +0.043 A 
ATOM      4  C   UNL     1       5.039  -2.584   8.785  0.00  0.00    +0.099 A 
ATOM      5  N   UNL     1       4.906  -1.280   8.600  0.00  0.00    -0.348 N 
ATOM      6  C   UNL     1       4.279  -0.789   7.547  0.00  0.00    +0.107 A 
ATOM      7  N   UNL     1       5.714  -3.055   9.908  0.00  0.00    -0.314 N 
ATOM      8  C   UNL     1       6.176  -2.130  10.954  0.00  0.00    +0.122 C 
ATOM      9  C   UNL     1       7.658  -2.404  11.226  0.00  0.00    +0.103 C 
ATOM     10  N   UNL     1       7.841  -3.829  11.533  0.00  0.00    -0.295 NA
ATOM     11  C   UNL     1       7.474  -4.672  10.387  0.00  0.00    +0.103 C 
ATOM     12  C   UNL     1       5.978  -4.491  10.083  0.00  0.00    +0.122 C 
ATOM     13  H   UNL     1       5.284  -0.669   9.252  0.00  0.00    +0.167 HD
ENDROOT
BRANCH   1  17
ATOM     14  N   UNL     1       1.538  -1.367   3.729  0.00  0.00    -0.266 N 
ATOM     15  C   UNL     1       2.100  -1.826   4.864  0.00  0.00    +0.308 C 
ATOM     16  O   UNL     1       1.749  -2.894   5.329  0.00  0.00    -0.252 OA
ATOM     17  N   UNL     1       3.053  -1.102   5.485  0.00  0.00    -0.268 N 
ATOM     18  H   UNL     1       1.875  -0.559   3.313  0.00  0.00    +0.156 HD
ATOM     19  H   UNL     1       3.274  -0.215   5.162  0.00  0.00    +0.156 HD
BRANCH  14  25
ATOM     20  C   UNL     1       0.206  -1.931   1.787  0.00  0.00    +0.142 A 
ATOM     21  C   UNL     1      -0.853  -2.620   1.219  0.00  0.00    +0.047 A 
ATOM     22  C   UNL     1      -1.653  -3.428   2.005  0.00  0.00    +0.004 A 
ATOM     23  C   UNL     1      -1.401  -3.551   3.359  0.00  0.00    +0.002 A 
ATOM     24  C   UNL     1      -0.346  -2.866   3.933  0.00  0.00    +0.027 A 
ATOM     25  C   UNL     1       0.465  -2.058   3.150  0.00  0.00    +0.077 A 
BRANCH  20  26
ATOM     26  O   UNL     1       0.995  -1.137   1.015  0.00  0.00    -0.490 OA
BRANCH  26  28
ATOM     27  C   UNL     1       1.660  -0.121  -1.075  0.00  0.00    +0.048 C 
ATOM     28  C   UNL     1       0.670  -1.054  -0.374  0.00  0.00    +0.226 C 
ENDBRANCH  26  28
ENDBRANCH  20  26
ENDBRANCH  14  25
ENDBRANCH   1  17
BRANCH  10  29
ATOM     29  C   UNL     1       9.217  -4.102  11.968  0.00  0.00    +0.119 C 
BRANCH  29  30
ATOM     30  C   UNL     1       9.305  -5.508  12.504  0.00  0.00    -0.033 A 
ATOM     31  C   UNL     1       9.073  -5.752  13.845  0.00  0.00    +0.007 A 
ATOM     32  C   UNL     1       9.154  -7.041  14.337  0.00  0.00    +0.033 A 
ATOM     33  C   UNL     1       9.466  -8.087  13.488  0.00  0.00    +0.126 A 
ATOM     34  C   UNL     1       9.697  -7.843  12.147  0.00  0.00    +0.033 A 
ATOM     35  C   UNL     1       9.612  -6.554  11.654  0.00  0.00    +0.007 A 
BRANCH  33  36
ATOM     36  N   UNL     1       9.553  -9.467  14.015  0.00  0.00    +0.056 N 
ATOM     37  O   UNL     1       9.352  -9.680  15.188  0.00  0.00    -0.126 OA
ATOM     38  O   UNL     1       9.826 -10.381  13.272  0.00  0.00    -0.126 OA
ENDBRANCH  33  36
ENDBRANCH  29  30
ENDBRANCH  10  29
TORSDOF 7
