REMARK  Name = ZINC51418952
REMARK  6 active torsions:
REMARK  status: ('A' for Active; 'I' for Inactive)
REMARK    1  A    between atoms: C_1  and  N_2
REMARK    2  A    between atoms: C_13  and  C_15
REMARK    3  A    between atoms: C_15  and  C_16
REMARK    4  A    between atoms: C_16  and  C_17
REMARK    5  A    between atoms: N_19  and  C_20
REMARK    6  A    between atoms: C_20  and  C_24
REMARK                            x       y       z     vdW  Elec       q    Type
REMARK                         _______ _______ _______ _____ _____    ______ ____
ROOT
ATOM      1  C   UNL     1      -5.232  -0.600   1.240  0.00  0.00    +0.103 C 
ENDROOT
BRANCH   1   2
ATOM      2  C   UNL     1      -6.739  -0.614   1.243  0.00  0.00    +0.214 C 
ATOM      3  O   UNL     1      -7.341  -1.244   0.399  0.00  0.00    -0.276 OA
ATOM      4  N   UNL     1      -7.418   0.073   2.183  0.00  0.00    -0.306 N 
ATOM      5  H   UNL     1      -6.939   0.514   2.902  0.00  0.00    +0.150 HD
BRANCH   4   6
ATOM      6  C   UNL     1      -8.879   0.153   2.119  0.00  0.00    +0.060 C 
ATOM      7  C   UNL     1      -9.534   0.539   3.456  0.00  0.00    +0.030 C 
ATOM      8  C   UNL     1      -9.577  -0.964   3.779  0.00  0.00    +0.005 C 
ATOM      9  C   UNL     1      -9.578  -1.210   2.261  0.00  0.00    +0.030 C 
BRANCH   6  10
ATOM     10  C   UNL     1      -9.370   0.964   0.948  0.00  0.00    -0.024 A 
ATOM     11  C   UNL     1     -10.698   0.896   0.569  0.00  0.00    +0.008 A 
ATOM     12  C   UNL     1     -11.150   1.640  -0.504  0.00  0.00    +0.038 A 
ATOM     13  C   UNL     1     -10.272   2.454  -1.200  0.00  0.00    +0.123 A 
ATOM     14  C   UNL     1      -8.943   2.521  -0.820  0.00  0.00    +0.038 A 
ATOM     15  C   UNL     1      -8.494   1.780   0.257  0.00  0.00    +0.008 A 
ATOM     16  F   UNL     1     -10.712   3.181  -2.250  0.00  0.00    -0.205 F 
ENDBRANCH   6  10
ENDBRANCH   4   6
ENDBRANCH   1   2
BRANCH   1  17
ATOM     17  C   UNL     1      -4.716  -1.451   0.078  0.00  0.00    +0.083 C 
BRANCH  17  30
ATOM     18  C   UNL     1      -0.026   1.484  -0.005  0.00  0.00    +0.155 C 
ATOM     19  N   UNL     1       0.009   0.019   0.032  0.00  0.00    -0.280 N 
ATOM     20  C   UNL     1      -1.175  -0.701   0.052  0.00  0.00    +0.168 A 
ATOM     21  C   UNL     1      -1.115  -2.088   0.087  0.00  0.00    +0.149 A 
ATOM     22  C   UNL     1       0.146  -2.722   0.101  0.00  0.00    +0.280 A 
ATOM     23  O   UNL     1       0.224  -3.937   0.131  0.00  0.00    -0.265 OA
ATOM     24  N   UNL     1       1.263  -1.966   0.079  0.00  0.00    -0.273 N 
ATOM     25  H   UNL     1       2.132  -2.398   0.088  0.00  0.00    +0.173 HD
ATOM     26  C   UNL     1       1.191  -0.625   0.040  0.00  0.00    +0.331 A 
ATOM     27  O   UNL     1       2.219   0.024   0.016  0.00  0.00    -0.246 OA
ATOM     28  N   UNL     1      -2.423  -2.530   0.101  0.00  0.00    -0.336 N 
ATOM     29  H   UNL     1      -2.720  -3.454   0.126  0.00  0.00    +0.167 HD
ATOM     30  C   UNL     1      -3.209  -1.437   0.075  0.00  0.00    +0.110 A 
ATOM     31  N   UNL     1      -2.466  -0.360   0.046  0.00  0.00    -0.214 NA
ENDBRANCH  17  30
ENDBRANCH   1  17
TORSDOF 5
