REMARK  Name = ZINC08835900
REMARK  11 active torsions:
REMARK  status: ('A' for Active; 'I' for Inactive)
REMARK    1  A    between atoms: C_1  and  C_2
REMARK    2  A    between atoms: C_2  and  C_3
REMARK    3  A    between atoms: C_3  and  C_4
REMARK    4  A    between atoms: C_3  and  C_5
REMARK    5  A    between atoms: C_3  and  C_6
REMARK    6  A    between atoms: C_17  and  N_26
REMARK    7  A    between atoms: N_26  and  S_27
REMARK    8  A    between atoms: S_27  and  C_30
REMARK    9  A    between atoms: C_33  and  C_36
REMARK   10  A    between atoms: C_36  and  C_37
REMARK   11  A    between atoms: C_36  and  C_38
REMARK                            x       y       z     vdW  Elec       q    Type
REMARK                         _______ _______ _______ _____ _____    ______ ____
ROOT
ATOM      1  C   UNL     1      -3.211   7.325  -2.364  0.00  0.00    -0.004 C 
ATOM      2  C   UNL     1      -4.492   7.063  -1.580  0.00  0.00    +0.008 C 
ATOM      3  C   UNL     1      -4.593   5.598  -1.120  0.00  0.00    +0.045 C 
ATOM      4  C   UNL     1      -3.353   5.304  -0.308  0.00  0.00    +0.181 C 
ATOM      5  C   UNL     1      -2.143   5.404  -1.285  0.00  0.00    +0.064 C 
ATOM      6  C   UNL     1      -1.962   6.881  -1.578  0.00  0.00    +0.016 C 
ATOM      7  C   UNL     1      -1.093   4.721  -0.459  0.00  0.00    +0.003 A 
ATOM      8  C   UNL     1       0.293   4.794  -0.425  0.00  0.00    +0.032 A 
ATOM      9  C   UNL     1       1.026   4.019   0.446  0.00  0.00    +0.056 A 
ATOM     10  C   UNL     1       0.353   3.143   1.325  0.00  0.00    +0.008 A 
ATOM     11  C   UNL     1       1.063   2.338   2.230  0.00  0.00    +0.010 A 
ATOM     12  C   UNL     1       0.386   1.503   3.065  0.00  0.00    +0.001 A 
ATOM     13  C   UNL     1      -1.006   1.436   3.035  0.00  0.00    +0.001 A 
ATOM     14  C   UNL     1      -1.726   2.202   2.172  0.00  0.00    +0.012 A 
ATOM     15  C   UNL     1      -1.060   3.077   1.295  0.00  0.00    +0.026 A 
ATOM     16  C   UNL     1      -1.784   3.885   0.393  0.00  0.00    +0.132 A 
ATOM     17  O   UNL     1      -3.146   4.005   0.218  0.00  0.00    -0.487 OA
ENDROOT
BRANCH   1  18
ATOM     18  C   UNL     1      -3.267   6.556  -3.685  0.00  0.00    -0.032 C 
ATOM     19  C   UNL     1      -1.890   5.961  -3.988  0.00  0.00    +0.011 C 
ATOM     20  C   UNL     1      -4.296   5.429  -3.575  0.00  0.00    +0.011 C 
BRANCH  18  22
ATOM     21  C   UNL     1      -3.727   6.737  -6.134  0.00  0.00    +0.004 C 
ATOM     22  C   UNL     1      -3.671   7.507  -4.813  0.00  0.00    +0.003 C 
ENDBRANCH  18  22
ENDBRANCH   1  18
BRANCH   9  23
ATOM     23  N   UNL     1       2.420   4.103   0.464  0.00  0.00    -0.216 N 
ATOM     24  H   UNL     1       2.952   3.309   0.630  0.00  0.00    +0.174 HD
BRANCH  23  25
ATOM     25  S   UNL     1       3.166   5.557   0.193  0.00  0.00    +0.072 S 
ATOM     26  O   UNL     1       4.555   5.346   0.404  0.00  0.00    -0.150 OA
ATOM     27  O   UNL     1       2.648   6.056  -1.032  0.00  0.00    -0.150 OA
BRANCH  25  28
ATOM     28  C   UNL     1       2.627   6.662   1.455  0.00  0.00    +0.109 A 
ATOM     29  C   UNL     1       1.502   7.441   1.258  0.00  0.00    +0.029 A 
ATOM     30  C   UNL     1       1.077   8.304   2.250  0.00  0.00    +0.006 A 
ATOM     31  C   UNL     1       1.782   8.396   3.436  0.00  0.00    -0.045 A 
ATOM     32  C   UNL     1       2.909   7.620   3.631  0.00  0.00    +0.006 A 
ATOM     33  C   UNL     1       3.332   6.753   2.641  0.00  0.00    +0.029 A 
BRANCH  31  34
ATOM     34  C   UNL     1       1.321   9.341   4.515  0.00  0.00    +0.013 C 
ATOM     35  C   UNL     1       1.320  10.772   3.973  0.00  0.00    +0.012 C 
ATOM     36  C   UNL     1      -0.094   8.962   4.955  0.00  0.00    +0.012 C 
ENDBRANCH  31  34
ENDBRANCH  25  28
ENDBRANCH  23  25
ENDBRANCH   9  23
TORSDOF 6
