REMARK  Name = ZINC63350756
REMARK  8 active torsions:
REMARK  status: ('A' for Active; 'I' for Inactive)
REMARK    1  A    between atoms: C_1  and  C_2
REMARK    2  A    between atoms: C_2  and  C_3
REMARK    3  A    between atoms: C_12  and  O_14
REMARK    4  A    between atoms: O_14  and  C_15
REMARK    5  A    between atoms: C_15  and  C_16
REMARK    6  A    between atoms: C_31  and  C_33
REMARK    7  A    between atoms: C_33  and  O_35
REMARK    8  A    between atoms: O_35  and  C_36
REMARK                            x       y       z     vdW  Elec       q    Type
REMARK                         _______ _______ _______ _____ _____    ______ ____
ROOT
ATOM      1  C   UNL     1      -6.184  -1.783   6.062  0.00  0.00    +0.254 C 
ATOM      2  O   UNL     1      -5.534  -1.460   7.033  0.00  0.00    -0.272 OA
ATOM      3  N   UNL     1      -7.444  -2.237   6.214  0.00  0.00    -0.283 N 
ATOM      4  C   UNL     1      -8.224  -2.631   5.031  0.00  0.00    +0.137 C 
ATOM      5  C   UNL     1      -9.480  -1.755   4.982  0.00  0.00    +0.124 C 
ATOM      6  C   UNL     1     -10.098  -1.801   6.374  0.00  0.00    -0.035 C 
ATOM      7  C   UNL     1     -11.348  -2.219   6.215  0.00  0.00    -0.001 A 
ATOM      8  C   UNL     1     -12.450  -2.396   7.175  0.00  0.00    +0.010 A 
ATOM      9  C   UNL     1     -13.620  -2.863   6.664  0.00  0.00    +0.001 A 
ATOM     10  C   UNL     1     -13.802  -3.167   5.311  0.00  0.00    +0.002 A 
ATOM     11  C   UNL     1     -12.845  -3.030   4.359  0.00  0.00    +0.026 A 
ATOM     12  C   UNL     1     -11.571  -2.543   4.774  0.00  0.00    +0.043 A 
ATOM     13  N   UNL     1     -10.485  -2.294   4.064  0.00  0.00    -0.376 N 
ATOM     14  C   UNL     1      -9.309  -1.486   7.621  0.00  0.00    +0.067 C 
ATOM     15  C   UNL     1      -8.022  -2.338   7.558  0.00  0.00    +0.189 C 
ATOM     16  H   UNL     1     -10.364  -2.441   3.113  0.00  0.00    +0.160 HD
ENDROOT
BRANCH  15  17
ATOM     17  C   UNL     1      -8.352  -3.777   7.856  0.00  0.00    +0.328 C 
ATOM     18  O   UNL     1      -8.477  -4.569   6.952  0.00  0.00    -0.249 OA
BRANCH  17  19
ATOM     19  O   UNL     1      -8.508  -4.181   9.127  0.00  0.00    -0.467 OA
ATOM     20  C   UNL     1      -8.820  -5.560   9.336  0.00  0.00    +0.280 C 
ENDBRANCH  17  19
ENDBRANCH  15  17
BRANCH   1  21
ATOM     21  C   UNL     1      -5.583  -1.676   4.684  0.00  0.00    +0.324 C 
BRANCH  21  22
ATOM     22  O   UNL     1      -4.249  -1.173   4.784  0.00  0.00    -0.481 OA
BRANCH  22  32
ATOM     23  C   UNL     1      -1.412  -0.526   0.013  0.00  0.00    -0.030 A 
ATOM     24  C   UNL     1      -2.040  -0.862  -1.144  0.00  0.00    +0.096 A 
ATOM     25  C   UNL     1      -3.363  -1.348  -1.108  0.00  0.00    +0.337 A 
ATOM     26  O   UNL     1      -3.915  -1.645  -2.152  0.00  0.00    -0.245 OA
ATOM     27  O   UNL     1      -4.030  -1.492   0.048  0.00  0.00    -0.422 OA
ATOM     28  C   UNL     1      -3.463  -1.176   1.233  0.00  0.00    +0.143 A 
ATOM     29  C   UNL     1      -2.143  -0.690   1.271  0.00  0.00    +0.022 A 
ATOM     30  C   UNL     1      -1.550  -0.367   2.496  0.00  0.00    +0.035 A 
ATOM     31  C   UNL     1      -2.255  -0.530   3.655  0.00  0.00    +0.083 A 
ATOM     32  C   UNL     1      -3.562  -1.016   3.624  0.00  0.00    +0.143 A 
ATOM     33  C   UNL     1      -4.167  -1.331   2.418  0.00  0.00    +0.094 A 
ATOM     34 CL   UNL     1      -1.520  -0.129   5.175  0.00  0.00    -0.080 Cl
BRANCH  23  36
ATOM     35  C   UNL     1      -0.019   1.526   0.010  0.00  0.00    +0.009 C 
ATOM     36  C   UNL     1       0.002  -0.004   0.002  0.00  0.00    +0.033 C 
ENDBRANCH  23  36
ENDBRANCH  22  32
ENDBRANCH  21  22
ENDBRANCH   1  21
TORSDOF 6
