REMARK  Name = ZINC67590888
REMARK  3 active torsions:
REMARK  status: ('A' for Active; 'I' for Inactive)
REMARK    1  A    between atoms: C_1  and  C_2
REMARK    2  A    between atoms: C_7  and  C_10
REMARK    3  A    between atoms: N_18  and  C_19
REMARK                            x       y       z     vdW  Elec       q    Type
REMARK                         _______ _______ _______ _____ _____    ______ ____
ROOT
ATOM      1  C   UNL     1      -0.017   1.526   0.006  0.00  0.00    +0.039 C 
ATOM      2  C   UNL     1       0.003  -0.004  -0.002  0.00  0.00    +0.133 C 
ATOM      3  C   UNL     1      -1.434  -0.536   0.014  0.00  0.00    +0.140 C 
ATOM      4  N   UNL     1      -1.388  -1.995   0.195  0.00  0.00    -0.280 N 
ATOM      5  C   UNL     1      -0.575  -2.530   1.299  0.00  0.00    +0.145 C 
ATOM      6  C   UNL     1       0.821  -1.901   1.220  0.00  0.00    +0.166 C 
ATOM      7  O   UNL     1       0.695  -0.479   1.156  0.00  0.00    -0.366 OA
ATOM      8  C   UNL     1      -2.069  -2.818  -0.627  0.00  0.00    +0.303 C 
ATOM      9  O   UNL     1      -2.807  -2.356  -1.475  0.00  0.00    -0.253 OA
ATOM     10  N   UNL     1      -1.933  -4.154  -0.507  0.00  0.00    -0.292 N 
ATOM     11  H   UNL     1      -1.404  -4.525   0.216  0.00  0.00    +0.151 HD
ENDROOT
BRANCH  10  12
ATOM     12  C   UNL     1      -2.585  -5.045  -1.469  0.00  0.00    +0.105 C 
ATOM     13  C   UNL     1      -2.801  -6.441  -0.846  0.00  0.00    +0.032 C 
ATOM     14  C   UNL     1      -1.527  -7.198  -1.279  0.00  0.00    +0.037 C 
ATOM     15  C   UNL     1      -1.076  -6.517  -2.553  0.00  0.00    -0.042 A 
ATOM     16  C   UNL     1      -1.685  -5.278  -2.664  0.00  0.00    -0.024 A 
ATOM     17  C   UNL     1      -1.420  -4.472  -3.758  0.00  0.00    +0.006 A 
ATOM     18  C   UNL     1      -0.550  -4.899  -4.742  0.00  0.00    +0.000 A 
ATOM     19  C   UNL     1       0.060  -6.135  -4.634  0.00  0.00    +0.000 A 
ATOM     20  C   UNL     1      -0.203  -6.945  -3.539  0.00  0.00    +0.004 A 
ENDBRANCH  10  12
BRANCH   6  21
ATOM     21  C   UNL     1       1.614  -2.282   2.443  0.00  0.00    -0.017 A 
ATOM     22  C   UNL     1       1.412  -1.612   3.635  0.00  0.00    +0.006 A 
ATOM     23  C   UNL     1       2.140  -1.961   4.757  0.00  0.00    +0.000 A 
ATOM     24  C   UNL     1       3.070  -2.982   4.688  0.00  0.00    +0.000 A 
ATOM     25  C   UNL     1       3.271  -3.653   3.496  0.00  0.00    +0.000 A 
ATOM     26  C   UNL     1       2.541  -3.306   2.375  0.00  0.00    +0.006 A 
ENDBRANCH   6  21
TORSDOF 2
