REMARK  Name = ZINC36304106
REMARK  14 active torsions:
REMARK  status: ('A' for Active; 'I' for Inactive)
REMARK    1  A    between atoms: C_1  and  C_2
REMARK    2  A    between atoms: C_3  and  C_22
REMARK    3  A    between atoms: C_4  and  O_13
REMARK    4  A    between atoms: N_5  and  C_7
REMARK    5  A    between atoms: O_13  and  C_14
REMARK    6  A    between atoms: C_22  and  N_23
REMARK    7  A    between atoms: N_23  and  C_24
REMARK    8  A    between atoms: N_23  and  C_35
REMARK    9  A    between atoms: C_24  and  C_25
REMARK   10  A    between atoms: C_25  and  C_27
REMARK   11  A    between atoms: C_25  and  O_34
REMARK   12  A    between atoms: C_27  and  C_28
REMARK   13  A    between atoms: C_35  and  C_36
REMARK   14  A    between atoms: C_35  and  C_37
REMARK                            x       y       z     vdW  Elec       q    Type
REMARK                         _______ _______ _______ _____ _____    ______ ____
ROOT
ATOM      1  C   UNL     1       2.816   2.486  -0.954  0.00  0.00    +0.068 C 
ATOM      2  C   UNL     1       1.996   1.443  -0.239  0.00  0.00    +0.065 A 
ATOM      3  C   UNL     1       1.138   0.521  -0.845  0.00  0.00    +0.021 A 
ATOM      4  C   UNL     1       0.586  -0.243   0.136  0.00  0.00    +0.225 A 
ATOM      5  N   UNL     1       1.087   0.192   1.323  0.00  0.00    -0.200 N 
ATOM      6  N   UNL     1       1.971   1.245   1.054  0.00  0.00    -0.168 NA
ENDROOT
BRANCH   5   7
ATOM      7  C   UNL     1       0.778  -0.325   2.589  0.00  0.00    +0.069 A 
ATOM      8  C   UNL     1      -0.533  -0.656   2.904  0.00  0.00    +0.028 A 
ATOM      9  C   UNL     1      -0.834  -1.166   4.152  0.00  0.00    +0.002 A 
ATOM     10  C   UNL     1       0.169  -1.347   5.087  0.00  0.00    +0.000 A 
ATOM     11  C   UNL     1       1.476  -1.018   4.776  0.00  0.00    +0.002 A 
ATOM     12  C   UNL     1       1.784  -0.513   3.528  0.00  0.00    +0.028 A 
ENDBRANCH   5   7
BRANCH   4  13
ATOM     13  O   UNL     1      -0.302  -1.255  -0.039  0.00  0.00    -0.435 OA
BRANCH  13  14
ATOM     14  C   UNL     1      -1.622  -0.938  -0.120  0.00  0.00    +0.166 A 
ATOM     15  C   UNL     1      -2.032   0.376   0.047  0.00  0.00    +0.052 A 
ATOM     16  C   UNL     1      -3.374   0.696  -0.036  0.00  0.00    +0.042 A 
ATOM     17  C   UNL     1      -4.309  -0.294  -0.285  0.00  0.00    +0.126 A 
ATOM     18  C   UNL     1      -3.903  -1.606  -0.453  0.00  0.00    +0.080 A 
ATOM     19  C   UNL     1      -2.560  -1.930  -0.376  0.00  0.00    +0.168 A 
ATOM     20  F   UNL     1      -2.163  -3.210  -0.545  0.00  0.00    -0.202 F 
ATOM     21  F   UNL     1      -5.621   0.022  -0.365  0.00  0.00    -0.205 F 
ENDBRANCH  13  14
ENDBRANCH   4  13
BRANCH   3  22
ATOM     22  C   UNL     1       0.871   0.395  -2.323  0.00  0.00    -0.035 C 
BRANCH  22  23
ATOM     23  N   UNL     1       2.124   0.080  -3.021  0.00  0.00    +0.386 N 
ATOM     24  H   UNL     1       2.840   0.732  -2.739  0.00  0.00    -0.081 HD
BRANCH  23  25
ATOM     25  C   UNL     1       2.544  -1.286  -2.681  0.00  0.00    -0.074 C 
ATOM     26  C   UNL     1       2.933  -1.347  -1.203  0.00  0.00    -0.014 C 
ATOM     27  C   UNL     1       1.390  -2.255  -2.945  0.00  0.00    -0.014 C 
ENDBRANCH  23  25
BRANCH  23  28
ATOM     28  C   UNL     1       1.915   0.181  -4.472  0.00  0.00    -0.046 C 
BRANCH  28  29
ATOM     29  C   UNL     1       3.253   0.006  -5.194  0.00  0.00    +0.102 C 
BRANCH  29  30
ATOM     30  O   UNL     1       4.151   1.042  -4.790  0.00  0.00    -0.393 OA
ATOM     31  H   UNL     1       3.835   1.935  -4.987  0.00  0.00    +0.210 HD
ENDBRANCH  29  30
BRANCH  29  32
ATOM     32  C   UNL     1       3.031   0.084  -6.705  0.00  0.00    +0.064 C 
BRANCH  32  33
ATOM     33  C   UNL     1       4.325  -0.210  -7.419  0.00  0.00    -0.045 A 
ATOM     34  C   UNL     1       5.197   0.820  -7.722  0.00  0.00    +0.004 A 
ATOM     35  C   UNL     1       6.384   0.550  -8.376  0.00  0.00    +0.000 A 
ATOM     36  C   UNL     1       6.700  -0.749  -8.728  0.00  0.00    +0.000 A 
ATOM     37  C   UNL     1       5.829  -1.778  -8.424  0.00  0.00    +0.000 A 
ATOM     38  C   UNL     1       4.644  -1.510  -7.766  0.00  0.00    +0.004 A 
ENDBRANCH  32  33
ENDBRANCH  29  32
ENDBRANCH  28  29
ENDBRANCH  23  28
ENDBRANCH  22  23
ENDBRANCH   3  22
TORSDOF 11
