REMARK  Name = ZINC09508993
REMARK  10 active torsions:
REMARK  status: ('A' for Active; 'I' for Inactive)
REMARK    1  A    between atoms: C_1  and  C_2
REMARK    2  A    between atoms: C_2  and  N_3
REMARK    3  A    between atoms: C_4  and  C_29
REMARK    4  A    between atoms: C_7  and  S_8
REMARK    5  A    between atoms: S_8  and  C_9
REMARK    6  A    between atoms: C_9  and  C_11
REMARK    7  A    between atoms: C_9  and  C_12
REMARK    8  A    between atoms: C_24  and  C_28
REMARK    9  A    between atoms: C_34  and  O_35
REMARK   10  A    between atoms: O_35  and  C_36
REMARK                            x       y       z     vdW  Elec       q    Type
REMARK                         _______ _______ _______ _____ _____    ______ ____
ROOT
ATOM      1  C   UNL     1       1.555  -6.934  -0.489  0.00  0.00    +0.117 C 
ATOM      2  C   UNL     1       0.600  -6.701  -1.662  0.00  0.00    +0.027 C 
ENDROOT
BRANCH   1   3
ATOM      3  C   UNL     1       2.169  -8.305  -0.606  0.00  0.00    +0.124 A 
ATOM      4  N   UNL     1       1.608  -9.346   0.061  0.00  0.00    -0.309 N 
ATOM      5  H   UNL     1       0.820  -9.193   0.604  0.00  0.00    +0.170 HD
ATOM      6  C   UNL     1       2.124 -10.587  -0.016  0.00  0.00    +0.260 A 
ATOM      7  O   UNL     1       1.609 -11.511   0.588  0.00  0.00    -0.267 OA
ATOM      8  C   UNL     1       3.291 -10.803  -0.822  0.00  0.00    +0.075 A 
ATOM      9  C   UNL     1       4.016 -12.051  -1.052  0.00  0.00    -0.023 A 
ATOM     10  C   UNL     1       5.096 -11.991  -1.860  0.00  0.00    -0.004 A 
ATOM     11  S   UNL     1       5.206 -10.293  -2.354  0.00  0.00    -0.073 S 
ATOM     12  C   UNL     1       3.799  -9.667  -1.472  0.00  0.00    +0.116 A 
ATOM     13  N   UNL     1       3.229  -8.471  -1.351  0.00  0.00    -0.225 NA
ATOM     14  C   UNL     1       6.001 -13.120  -2.250  0.00  0.00    +0.046 C 
ATOM     15  C   UNL     1       5.742 -14.299  -1.302  0.00  0.00    -0.009 C 
ATOM     16  C   UNL     1       4.231 -14.522  -1.196  0.00  0.00    +0.008 C 
ATOM     17  C   UNL     1       3.589 -13.372  -0.419  0.00  0.00    +0.037 C 
ATOM     18  C   UNL     1       6.410 -15.561  -1.852  0.00  0.00    +0.008 C 
ENDBRANCH   1   3
BRANCH   1  19
ATOM     19  S   UNL     1       2.862  -5.682  -0.517  0.00  0.00    -0.075 S 
BRANCH  19  24
ATOM     20  N   UNL     1       2.376  -2.953  -0.138  0.00  0.00    -0.302 N 
ATOM     21  C   UNL     1       1.274  -2.167   0.106  0.00  0.00    +0.168 A 
ATOM     22  N   UNL     1       0.233  -2.966   0.152  0.00  0.00    -0.128 NA
ATOM     23  N   UNL     1       0.604  -4.181  -0.040  0.00  0.00    -0.122 NA
ATOM     24  C   UNL     1       1.905  -4.233  -0.220  0.00  0.00    +0.193 A 
BRANCH  21  25
ATOM     25  C   UNL     1       1.262  -0.700   0.279  0.00  0.00    +0.061 A 
ATOM     26  C   UNL     1       1.933   0.119  -0.631  0.00  0.00    +0.015 A 
ATOM     27  C   UNL     1       1.919   1.488  -0.464  0.00  0.00    +0.001 A 
ATOM     28  C   UNL     1       1.242   2.054   0.603  0.00  0.00    +0.004 A 
ATOM     29  C   UNL     1       0.575   1.254   1.511  0.00  0.00    +0.046 A 
ATOM     30  C   UNL     1       0.579  -0.123   1.357  0.00  0.00    +0.131 A 
BRANCH  30  31
ATOM     31  O   UNL     1      -0.076  -0.911   2.249  0.00  0.00    -0.494 OA
ATOM     32  C   UNL     1      -0.750  -0.253   3.323  0.00  0.00    +0.277 C 
ENDBRANCH  30  31
ENDBRANCH  21  25
BRANCH  20  34
ATOM     33  C   UNL     1       4.433  -2.481   1.098  0.00  0.00    +0.027 C 
ATOM     34  C   UNL     1       3.765  -2.510  -0.279  0.00  0.00    +0.122 C 
ENDBRANCH  20  34
ENDBRANCH  19  24
ENDBRANCH   1  19
TORSDOF 6
