REMARK  Name = ZINC63141874
REMARK  10 active torsions:
REMARK  status: ('A' for Active; 'I' for Inactive)
REMARK    1  A    between atoms: C_1  and  C_2
REMARK    2  A    between atoms: C_2  and  O_3
REMARK    3  A    between atoms: O_3  and  C_4
REMARK    4  A    between atoms: C_7  and  C_12
REMARK    5  A    between atoms: C_9  and  O_10
REMARK    6  A    between atoms: O_10  and  C_11
REMARK    7  A    between atoms: N_31  and  C_34
REMARK    8  A    between atoms: C_34  and  C_35
REMARK    9  A    between atoms: C_40  and  O_41
REMARK   10  A    between atoms: O_41  and  C_42
REMARK                            x       y       z     vdW  Elec       q    Type
REMARK                         _______ _______ _______ _____ _____    ______ ____
ROOT
ATOM      1  C   UNL     1      -1.996  -6.097  -0.011  0.00  0.00    +0.134 C 
ATOM      2  C   UNL     1      -1.917  -6.622  -1.447  0.00  0.00    +0.131 C 
ATOM      3  C   UNL     1      -1.826  -8.140  -1.354  0.00  0.00    -0.034 C 
ATOM      4  C   UNL     1      -2.826  -8.621  -2.083  0.00  0.00    -0.001 A 
ATOM      5  C   UNL     1      -3.210  -9.999  -2.431  0.00  0.00    +0.010 A 
ATOM      6  C   UNL     1      -4.320 -10.134  -3.204  0.00  0.00    +0.001 A 
ATOM      7  C   UNL     1      -5.078  -9.051  -3.658  0.00  0.00    +0.002 A 
ATOM      8  C   UNL     1      -4.795  -7.751  -3.391  0.00  0.00    +0.026 A 
ATOM      9  C   UNL     1      -3.647  -7.480  -2.591  0.00  0.00    +0.043 A 
ATOM     10  N   UNL     1      -3.134  -6.327  -2.206  0.00  0.00    -0.375 N 
ATOM     11  C   UNL     1      -0.799  -8.837  -0.495  0.00  0.00    +0.065 C 
ATOM     12  C   UNL     1      -0.875  -8.184   0.897  0.00  0.00    +0.167 C 
ATOM     13  N   UNL     1      -0.906  -6.731   0.762  0.00  0.00    -0.279 N 
ATOM     14  C   UNL     1       0.020  -5.935   1.310  0.00  0.00    +0.234 C 
ATOM     15  O   UNL     1      -0.083  -4.741   1.123  0.00  0.00    -0.274 OA
ATOM     16  C   UNL     1       1.169  -6.412   2.135  0.00  0.00    +0.204 C 
ATOM     17  N   UNL     1       1.172  -7.857   2.290  0.00  0.00    -0.287 N 
ATOM     18  C   UNL     1       0.264  -8.659   1.738  0.00  0.00    +0.237 C 
ATOM     19  O   UNL     1       0.366  -9.852   1.934  0.00  0.00    -0.274 OA
ATOM     20  H   UNL     1      -3.491  -5.443  -2.383  0.00  0.00    +0.160 HD
ENDROOT
BRANCH   1  24
ATOM     21  C   UNL     1      -1.501  -1.849   0.002  0.00  0.00    +0.162 A 
ATOM     22  C   UNL     1      -0.849  -2.622  -0.945  0.00  0.00    +0.050 A 
ATOM     23  C   UNL     1      -1.011  -3.995  -0.947  0.00  0.00    +0.009 A 
ATOM     24  C   UNL     1      -1.823  -4.600  -0.005  0.00  0.00    -0.021 A 
ATOM     25  C   UNL     1      -2.477  -3.834   0.943  0.00  0.00    +0.055 A 
ATOM     26  C   UNL     1      -2.314  -2.458   0.953  0.00  0.00    +0.162 A 
BRANCH  26  27
ATOM     27  O   UNL     1      -2.951  -1.703   1.888  0.00  0.00    -0.491 OA
ATOM     28  C   UNL     1      -3.769  -2.396   2.833  0.00  0.00    +0.277 C 
ENDBRANCH  26  27
BRANCH  21  29
ATOM     29  O   UNL     1      -1.343  -0.498   0.005  0.00  0.00    -0.489 OA
BRANCH  29  31
ATOM     30  C   UNL     1      -0.439   1.578  -0.840  0.00  0.00    +0.048 C 
ATOM     31  C   UNL     1      -0.494   0.058  -1.002  0.00  0.00    +0.226 C 
ENDBRANCH  29  31
ENDBRANCH  21  29
ENDBRANCH   1  24
BRANCH  17  32
ATOM     32  C   UNL     1       2.235  -8.464   3.095  0.00  0.00    +0.147 C 
BRANCH  32  33
ATOM     33  C   UNL     1       1.790  -8.550   4.532  0.00  0.00    +0.011 A 
ATOM     34  C   UNL     1       2.218  -7.606   5.446  0.00  0.00    +0.009 A 
ATOM     35  C   UNL     1       1.811  -7.685   6.764  0.00  0.00    +0.001 A 
ATOM     36  C   UNL     1       0.974  -8.707   7.172  0.00  0.00    +0.004 A 
ATOM     37  C   UNL     1       0.543  -9.653   6.263  0.00  0.00    +0.046 A 
ATOM     38  C   UNL     1       0.946  -9.573   4.937  0.00  0.00    +0.125 A 
BRANCH  38  39
ATOM     39  O   UNL     1       0.519 -10.499   4.039  0.00  0.00    -0.495 OA
ATOM     40  C   UNL     1      -0.349 -11.525   4.527  0.00  0.00    +0.277 C 
ENDBRANCH  38  39
ENDBRANCH  32  33
ENDBRANCH  17  32
TORSDOF 7
