REMARK  Name = ZINC47144879
REMARK  10 active torsions:
REMARK  status: ('A' for Active; 'I' for Inactive)
REMARK    1  A    between atoms: C_1  and  C_2
REMARK    2  A    between atoms: C_2  and  O_3
REMARK    3  A    between atoms: O_3  and  C_4
REMARK    4  A    between atoms: C_4  and  C_6
REMARK    5  A    between atoms: C_6  and  N_7
REMARK    6  A    between atoms: C_25  and  C_35
REMARK    7  A    between atoms: C_38  and  C_41
REMARK    8  A    between atoms: C_41  and  C_42
REMARK    9  A    between atoms: C_41  and  C_43
REMARK   10  A    between atoms: C_41  and  C_44
REMARK                            x       y       z     vdW  Elec       q    Type
REMARK                         _______ _______ _______ _____ _____    ______ ____
ROOT
ATOM      1  N   UNL     1       1.626  -3.773   2.417  0.00  0.00    -0.231 N 
ATOM      2  C   UNL     1       0.652  -4.566   2.875  0.00  0.00    +0.226 C 
ATOM      3  O   UNL     1      -0.373  -4.186   3.399  0.00  0.00    -0.275 OA
ATOM      4  C   UNL     1       1.026  -6.014   2.636  0.00  0.00    +0.091 C 
ATOM      5  C   UNL     1       1.489  -6.595   4.029  0.00  0.00    +0.007 C 
ATOM      6  C   UNL     1       2.504  -7.669   3.475  0.00  0.00    +0.010 C 
ATOM      7  C   UNL     1       3.435  -6.648   2.701  0.00  0.00    +0.015 C 
ATOM      8  C   UNL     1       2.364  -5.902   1.845  0.00  0.00    +0.092 C 
ATOM      9  C   UNL     1       2.644  -4.420   1.838  0.00  0.00    +0.226 C 
ATOM     10  O   UNL     1       3.638  -3.897   1.381  0.00  0.00    -0.275 OA
ATOM     11  C   UNL     1       3.805  -5.777   3.921  0.00  0.00    +0.061 C 
ATOM     12  C   UNL     1       2.386  -5.460   4.515  0.00  0.00    +0.019 C 
ATOM     13  C   UNL     1       2.444  -4.995   5.926  0.00  0.00    +0.063 C 
ATOM     14  C   UNL     1       3.272  -3.736   5.970  0.00  0.00    +0.032 A 
ATOM     15  C   UNL     1       4.141  -3.246   5.059  0.00  0.00    +0.087 A 
ATOM     16  N   UNL     1       4.724  -2.050   5.400  0.00  0.00    -0.311 N 
ATOM     17  H   UNL     1       5.351  -1.627   4.794  0.00  0.00    +0.170 HD
ATOM     18  C   UNL     1       4.425  -1.466   6.576  0.00  0.00    +0.289 A 
ATOM     19  O   UNL     1       4.852  -0.419   7.030  0.00  0.00    -0.260 OA
ATOM     20  S   UNL     1       3.319  -2.529   7.268  0.00  0.00    -0.030 S 
ATOM     21  S   UNL     1       4.552  -4.180   3.509  0.00  0.00    -0.103 S 
ENDROOT
BRANCH  13  22
ATOM     22  C   UNL     1       3.083  -6.054   6.786  0.00  0.00    -0.039 A 
ATOM     23  C   UNL     1       4.460  -6.171   6.831  0.00  0.00    +0.004 A 
ATOM     24  C   UNL     1       5.045  -7.143   7.620  0.00  0.00    +0.004 A 
ATOM     25  C   UNL     1       4.255  -7.999   8.364  0.00  0.00    -0.042 A 
ATOM     26  C   UNL     1       2.878  -7.882   8.320  0.00  0.00    +0.004 A 
ATOM     27  C   UNL     1       2.292  -6.907   7.535  0.00  0.00    +0.004 A 
BRANCH  25  28
ATOM     28  C   UNL     1       4.894  -9.059   9.224  0.00  0.00    -0.013 C 
ATOM     29  C   UNL     1       5.800  -8.396  10.263  0.00  0.00    +0.015 C 
ATOM     30  C   UNL     1       3.804  -9.863   9.936  0.00  0.00    +0.015 C 
ATOM     31  C   UNL     1       5.725  -9.995   8.345  0.00  0.00    +0.015 C 
ENDBRANCH  25  28
ENDBRANCH  13  22
BRANCH   1  32
ATOM     32  C   UNL     1       1.580  -2.313   2.536  0.00  0.00    +0.236 C 
BRANCH  32  33
ATOM     33  C   UNL     1       0.902  -1.732   1.322  0.00  0.00    +0.325 C 
ATOM     34  O   UNL     1       0.499  -2.462   0.448  0.00  0.00    -0.249 OA
BRANCH  33  35
ATOM     35  O   UNL     1       0.746  -0.403   1.212  0.00  0.00    -0.464 OA
BRANCH  35  37
ATOM     36  C   UNL     1       0.009   1.605   0.087  0.00  0.00    +0.048 C 
ATOM     37  C   UNL     1       0.095   0.078   0.034  0.00  0.00    +0.229 C 
ENDBRANCH  35  37
ENDBRANCH  33  35
ENDBRANCH  32  33
ENDBRANCH   1  32
TORSDOF 6
