REMARK  Name = ZINC33276529
REMARK  5 active torsions:
REMARK  status: ('A' for Active; 'I' for Inactive)
REMARK    1  A    between atoms: C_1  and  C_2
REMARK    2  A    between atoms: C_5  and  C_21
REMARK    3  A    between atoms: C_7  and  S_8
REMARK    4  A    between atoms: S_8  and  N_11
REMARK    5  A    between atoms: C_22  and  C_33
REMARK                            x       y       z     vdW  Elec       q    Type
REMARK                         _______ _______ _______ _____ _____    ______ ____
ROOT
ATOM      1  C   UNL     1       3.799  -6.160   0.126  0.00  0.00    +0.046 C 
ATOM      2  C   UNL     1       2.813  -5.041   0.341  0.00  0.00    -0.024 A 
ATOM      3  C   UNL     1       2.510  -4.179  -0.699  0.00  0.00    +0.006 A 
ATOM      4  C   UNL     1       1.609  -3.152  -0.507  0.00  0.00    +0.009 A 
ATOM      5  C   UNL     1       1.004  -2.983   0.738  0.00  0.00    -0.011 A 
ATOM      6  C   UNL     1       1.317  -3.851   1.783  0.00  0.00    +0.037 A 
ATOM      7  C   UNL     1       2.216  -4.878   1.578  0.00  0.00    +0.112 A 
ENDROOT
BRANCH   5   8
ATOM      8  C   UNL     1       0.035  -1.881   0.950  0.00  0.00    +0.045 A 
ATOM      9  C   UNL     1      -1.337  -2.021   1.234  0.00  0.00    +0.070 A 
ATOM     10  N   UNL     1      -1.851  -0.834   1.372  0.00  0.00    -0.167 NA
ATOM     11  N   UNL     1      -0.834   0.130   1.225  0.00  0.00    -0.185 N 
ATOM     12  C   UNL     1       0.314  -0.520   0.904  0.00  0.00    +0.139 A 
ATOM     13  N   UNL     1       1.542  -0.019   0.520  0.00  0.00    -0.270 N 
ATOM     14  C   UNL     1       2.079   1.136   0.964  0.00  0.00    +0.219 C 
ATOM     15  O   UNL     1       3.160   1.500   0.553  0.00  0.00    -0.275 OA
ATOM     16  C   UNL     1       1.340   1.964   1.962  0.00  0.00    +0.105 C 
ATOM     17  C   UNL     1       0.025   2.454   1.415  0.00  0.00    +0.110 C 
ATOM     18  C   UNL     1      -1.053   1.448   1.416  0.00  0.00    +0.250 C 
ATOM     19  O   UNL     1      -2.188   1.823   1.591  0.00  0.00    -0.271 OA
ATOM     20  C   UNL     1      -2.083  -3.325   1.357  0.00  0.00    +0.068 C 
ATOM     21  H   UNL     1       2.160  -0.574  -0.202  0.00  0.00    +0.156 HD
ENDBRANCH   5   8
BRANCH   7  22
ATOM     22  S   UNL     1       2.608  -5.979   2.896  0.00  0.00    +0.075 S 
ATOM     23  O   UNL     1       1.888  -5.524   4.033  0.00  0.00    -0.150 OA
ATOM     24  O   UNL     1       2.465  -7.296   2.381  0.00  0.00    -0.150 OA
BRANCH  22  25
ATOM     25  N   UNL     1       4.215  -5.778   3.241  0.00  0.00    -0.203 N 
ATOM     26  C   UNL     1       5.216  -6.713   2.709  0.00  0.00    +0.132 C 
ATOM     27  C   UNL     1       6.185  -7.062   3.840  0.00  0.00    +0.025 C 
ATOM     28  C   UNL     1       6.913  -5.793   4.281  0.00  0.00    +0.038 C 
ATOM     29  C   UNL     1       5.926  -4.692   4.568  0.00  0.00    -0.025 A 
ATOM     30  C   UNL     1       4.641  -4.718   4.049  0.00  0.00    +0.054 A 
ATOM     31  C   UNL     1       3.756  -3.683   4.330  0.00  0.00    +0.025 A 
ATOM     32  C   UNL     1       4.156  -2.629   5.127  0.00  0.00    +0.002 A 
ATOM     33  C   UNL     1       5.438  -2.605   5.647  0.00  0.00    +0.000 A 
ATOM     34  C   UNL     1       6.319  -3.633   5.369  0.00  0.00    +0.005 A 
ENDBRANCH  22  25
ENDBRANCH   7  22
TORSDOF 3
