REMARK  Name = ZINC63704866
REMARK  8 active torsions:
REMARK  status: ('A' for Active; 'I' for Inactive)
REMARK    1  A    between atoms: C_1  and  C_2
REMARK    2  A    between atoms: C_7  and  N_12
REMARK    3  A    between atoms: C_9  and  C_11
REMARK    4  A    between atoms: C_13  and  C_15
REMARK    5  A    between atoms: C_26  and  C_31
REMARK    6  A    between atoms: N_33  and  C_34
REMARK    7  A    between atoms: C_34  and  C_35
REMARK    8  A    between atoms: C_34  and  C_36
REMARK                            x       y       z     vdW  Elec       q    Type
REMARK                         _______ _______ _______ _____ _____    ______ ____
ROOT
ATOM      1  C   UNL     1       2.772  -4.231   3.605  0.00  0.00    +0.039 A 
ATOM      2  C   UNL     1       2.834  -3.433   4.753  0.00  0.00    +0.014 A 
ATOM      3  C   UNL     1       3.492  -3.872   5.868  0.00  0.00    +0.016 A 
ATOM      4  C   UNL     1       4.103  -5.125   5.856  0.00  0.00    +0.065 A 
ATOM      5  C   UNL     1       4.048  -5.931   4.716  0.00  0.00    +0.062 A 
ATOM      6  C   UNL     1       3.375  -5.486   3.586  0.00  0.00    +0.040 A 
ATOM      7  N   UNL     1       4.670  -7.196   4.710  0.00  0.00    -0.284 N 
ATOM      8  C   UNL     1       5.311  -7.605   5.822  0.00  0.00    +0.142 A 
ATOM      9  N   UNL     1       5.379  -6.865   6.916  0.00  0.00    -0.193 NA
ATOM     10  C   UNL     1       4.827  -5.651   7.029  0.00  0.00    +0.281 A 
ATOM     11  O   UNL     1       4.918  -5.007   8.059  0.00  0.00    -0.265 OA
ATOM     12  C   UNL     1       5.959  -8.994   5.730  0.00  0.00    +0.205 C 
ATOM     13  S   UNL     1       5.509  -9.461   4.014  0.00  0.00    -0.079 S 
ATOM     14  C   UNL     1       4.614  -7.984   3.592  0.00  0.00    +0.128 C 
ATOM     15  S   UNL     1       3.846  -7.623   2.105  0.00  0.00    -0.025 S 
ENDROOT
BRANCH   1  17
ATOM     16  N   UNL     1       1.471  -2.526   2.420  0.00  0.00    -0.308 N 
ATOM     17  C   UNL     1       2.056  -3.740   2.406  0.00  0.00    +0.244 C 
ATOM     18  O   UNL     1       1.996  -4.432   1.409  0.00  0.00    -0.270 OA
ATOM     19  H   UNL     1       1.520  -1.974   3.216  0.00  0.00    +0.149 HD
BRANCH  16  25
ATOM     20  C   UNL     1      -0.019   1.526   0.010  0.00  0.00    +0.008 C 
ATOM     21  C   UNL     1       0.002  -0.004   0.002  0.00  0.00    -0.009 C 
ATOM     22  C   UNL     1      -1.433  -0.534   0.013  0.00  0.00    +0.003 C 
ATOM     23  C   UNL     1      -1.413  -2.063   0.004  0.00  0.00    +0.002 C 
ATOM     24  C   UNL     1      -0.673  -2.570   1.244  0.00  0.00    +0.022 C 
ATOM     25  C   UNL     1       0.763  -2.041   1.233  0.00  0.00    +0.076 C 
ATOM     26  C   UNL     1       0.742  -0.511   1.242  0.00  0.00    +0.009 C 
ATOM     27  C   UNL     1       0.026  -0.018   2.500  0.00  0.00    +0.009 C 
ENDBRANCH  16  25
ENDBRANCH   1  17
BRANCH  12  28
ATOM     28  C   UNL     1       7.454  -8.910   5.899  0.00  0.00    +0.234 C 
ATOM     29  O   UNL     1       8.049  -7.914   5.546  0.00  0.00    -0.274 OA
ATOM     30  N   UNL     1       8.130  -9.942   6.443  0.00  0.00    -0.312 N 
ATOM     31  H   UNL     1       7.654 -10.738   6.725  0.00  0.00    +0.149 HD
BRANCH  30  32
ATOM     32  C   UNL     1       9.583  -9.860   6.607  0.00  0.00    +0.067 C 
ATOM     33  C   UNL     1       9.909  -9.146   7.920  0.00  0.00    +0.027 C 
ATOM     34  C   UNL     1      10.173 -11.271   6.634  0.00  0.00    +0.027 C 
ENDBRANCH  30  32
ENDBRANCH  12  28
TORSDOF 4
