REMARK  Name = ZINC13216183
REMARK  11 active torsions:
REMARK  status: ('A' for Active; 'I' for Inactive)
REMARK    1  A    between atoms: C_1  and  C_2
REMARK    2  A    between atoms: C_2  and  O_3
REMARK    3  A    between atoms: O_3  and  C_4
REMARK    4  A    between atoms: C_6  and  C_12
REMARK    5  A    between atoms: C_9  and  O_10
REMARK    6  A    between atoms: O_10  and  C_11
REMARK    7  A    between atoms: C_14  and  C_30
REMARK    8  A    between atoms: N_18  and  C_19
REMARK    9  A    between atoms: C_21  and  C_26
REMARK   10  A    between atoms: C_24  and  C_25
REMARK   11  A    between atoms: C_30  and  C_32
REMARK                            x       y       z     vdW  Elec       q    Type
REMARK                         _______ _______ _______ _____ _____    ______ ____
ROOT
ATOM      1  C   UNL     1       0.337  -5.000   0.077  0.00  0.00    +0.150 C 
ATOM      2  C   UNL     1       0.970  -5.347  -1.250  0.00  0.00    +0.080 C 
ATOM      3  C   UNL     1       1.086  -6.695  -1.287  0.00  0.00    +0.250 C 
ATOM      4  C   UNL     1       0.555  -7.263  -0.033  0.00  0.00    +0.292 C 
ATOM      5  O   UNL     1       0.520  -8.447   0.237  0.00  0.00    -0.266 OA
ATOM      6  N   UNL     1       0.116  -6.275   0.771  0.00  0.00    -0.253 N 
ATOM      7  O   UNL     1       1.606  -7.409  -2.312  0.00  0.00    -0.282 OA
ENDROOT
BRANCH   6   8
ATOM      8  C   UNL     1      -0.451  -6.434   2.039  0.00  0.00    +0.041 A 
ATOM      9  C   UNL     1      -1.821  -6.599   2.170  0.00  0.00    +0.039 A 
ATOM     10  C   UNL     1      -2.382  -6.758   3.439  0.00  0.00    +0.065 A 
ATOM     11  C   UNL     1      -1.557  -6.748   4.567  0.00  0.00    +0.015 A 
ATOM     12  C   UNL     1      -0.195  -6.583   4.425  0.00  0.00    +0.006 A 
ATOM     13  C   UNL     1       0.360  -6.432   3.168  0.00  0.00    -0.029 A 
ATOM     14  C   UNL     1       1.850  -6.258   3.021  0.00  0.00    +0.045 C 
BRANCH  10  15
ATOM     15  C   UNL     1      -3.839  -6.934   3.588  0.00  0.00    +0.387 C 
ATOM     16  O   UNL     1      -4.558  -6.941   2.599  0.00  0.00    -0.241 OA
ATOM     17  O   UNL     1      -4.328  -7.072   4.700  0.00  0.00    -0.241 OA
ENDBRANCH  10  15
ENDBRANCH   6   8
BRANCH   1  20
ATOM     18  C   UNL     1      -3.167  -4.242  -1.115  0.00  0.00    +0.162 A 
ATOM     19  C   UNL     1      -1.958  -4.890  -0.911  0.00  0.00    +0.055 A 
ATOM     20  C   UNL     1      -0.976  -4.294  -0.142  0.00  0.00    -0.018 A 
ATOM     21  C   UNL     1      -1.195  -3.053   0.425  0.00  0.00    +0.009 A 
ATOM     22  C   UNL     1      -2.398  -2.402   0.227  0.00  0.00    +0.050 A 
ATOM     23  C   UNL     1      -3.385  -2.990  -0.547  0.00  0.00    +0.162 A 
BRANCH  23  24
ATOM     24  O   UNL     1      -4.567  -2.348  -0.749  0.00  0.00    -0.491 OA
ATOM     25  C   UNL     1      -4.721  -1.066  -0.136  0.00  0.00    +0.277 C 
ENDBRANCH  23  24
BRANCH  18  26
ATOM     26  O   UNL     1      -4.134  -4.826  -1.871  0.00  0.00    -0.489 OA
BRANCH  26  28
ATOM     27  C   UNL     1      -5.124  -6.687  -3.053  0.00  0.00    +0.048 C 
ATOM     28  C   UNL     1      -3.884  -6.156  -2.330  0.00  0.00    +0.226 C 
ENDBRANCH  26  28
ENDBRANCH  18  26
ENDBRANCH   1  20
BRANCH   2  29
ATOM     29  C   UNL     1       1.378  -4.405  -2.298  0.00  0.00    +0.230 C 
ATOM     30  O   UNL     1       1.763  -4.822  -3.377  0.00  0.00    -0.283 OA
BRANCH  29  31
ATOM     31  C   UNL     1       1.323  -2.961  -2.048  0.00  0.00    +0.175 A 
ATOM     32  C   UNL     1       1.562  -1.967  -2.972  0.00  0.00    +0.053 A 
ATOM     33  C   UNL     1       1.399  -0.748  -2.298  0.00  0.00    +0.042 A 
ATOM     34  C   UNL     1       1.075  -1.039  -1.018  0.00  0.00    +0.196 A 
ATOM     35  O   UNL     1       1.025  -2.369  -0.873  0.00  0.00    -0.460 OA
ENDBRANCH  29  31
ENDBRANCH   2  29
TORSDOF 8
