REMARK  Name = ZINC35928350
REMARK  5 active torsions:
REMARK  status: ('A' for Active; 'I' for Inactive)
REMARK    1  A    between atoms: C_1  and  S_2
REMARK    2  A    between atoms: S_2  and  C_5
REMARK    3  A    between atoms: C_7  and  C_23
REMARK    4  A    between atoms: C_9  and  N_22
REMARK    5  A    between atoms: N_10  and  C_14
REMARK                            x       y       z     vdW  Elec       q    Type
REMARK                         _______ _______ _______ _____ _____    ______ ____
ROOT
ATOM      1  C   UNL     1       0.802  -0.388  -1.437  0.00  0.00    +0.273 A 
ATOM      2  N   UNL     1       0.073  -0.467  -2.538  0.00  0.00    -0.211 NA
ATOM      3  C   UNL     1       0.620  -0.561  -3.745  0.00  0.00    +0.091 A 
ATOM      4  C   UNL     1       2.030  -0.575  -3.837  0.00  0.00    +0.086 A 
ATOM      5  C   UNL     1       2.961  -0.656  -4.865  0.00  0.00    +0.131 A 
ATOM      6  N   UNL     1       4.186  -0.620  -4.306  0.00  0.00    -0.216 N 
ATOM      7  N   UNL     1       4.072  -0.515  -2.915  0.00  0.00    -0.144 NA
ATOM      8  C   UNL     1       2.800  -0.484  -2.583  0.00  0.00    +0.189 A 
ATOM      9  N   UNL     1       2.112  -0.388  -1.429  0.00  0.00    -0.190 NA
ENDROOT
BRANCH   6  10
ATOM     10  C   UNL     1       5.394  -0.679  -5.012  0.00  0.00    +0.069 A 
ATOM     11  C   UNL     1       5.492  -1.453  -6.161  0.00  0.00    +0.029 A 
ATOM     12  C   UNL     1       6.684  -1.510  -6.855  0.00  0.00    +0.023 A 
ATOM     13  C   UNL     1       7.782  -0.797  -6.407  0.00  0.00    +0.059 A 
ATOM     14  C   UNL     1       7.688  -0.025  -5.262  0.00  0.00    +0.061 A 
ATOM     15  C   UNL     1       6.495   0.040  -4.567  0.00  0.00    +0.049 A 
ATOM     16 CL   UNL     1       9.068   0.868  -4.702  0.00  0.00    -0.082 Cl
ATOM     17 CL   UNL     1       9.279  -0.871  -7.283  0.00  0.00    -0.082 Cl
ENDBRANCH   6  10
BRANCH   3  18
ATOM     18  C   UNL     1      -0.222  -0.648  -4.957  0.00  0.00    +0.036 A 
ATOM     19  C   UNL     1      -0.094  -1.736  -5.823  0.00  0.00    +0.013 A 
ATOM     20  C   UNL     1      -0.882  -1.812  -6.952  0.00  0.00    +0.001 A 
ATOM     21  C   UNL     1      -1.800  -0.813  -7.229  0.00  0.00    +0.003 A 
ATOM     22  C   UNL     1      -1.934   0.267  -6.377  0.00  0.00    +0.039 A 
ATOM     23  C   UNL     1      -1.155   0.354  -5.239  0.00  0.00    +0.133 A 
ATOM     24  F   UNL     1      -1.290   1.407  -4.403  0.00  0.00    -0.205 F 
ENDBRANCH   3  18
BRANCH   1  26
ATOM     25  C   UNL     1      -0.257   1.512   0.381  0.00  0.00    +0.204 C 
ATOM     26  S   UNL     1      -0.037  -0.267   0.108  0.00  0.00    +0.029 S 
ATOM     27  O   UNL     1       0.876  -0.799   1.058  0.00  0.00    -0.167 OA
ATOM     28  O   UNL     1      -1.296  -0.888  -0.114  0.00  0.00    -0.167 OA
ENDBRANCH   1  26
BRANCH   5  29
ATOM     29  N   UNL     1       2.682  -0.757  -6.215  0.00  0.00    -0.342 N 
ATOM     30  H   UNL     1       1.762  -0.820  -6.517  0.00  0.00    +0.144 HD
ATOM     31  H   UNL     1       3.405  -0.765  -6.861  0.00  0.00    +0.144 HD
ENDBRANCH   5  29
TORSDOF 4
