REMARK  Name = ZINC38550666
REMARK  5 active torsions:
REMARK  status: ('A' for Active; 'I' for Inactive)
REMARK    1  A    between atoms: N_7  and  C_8
REMARK    2  A    between atoms: C_8  and  C_10
REMARK    3  A    between atoms: C_8  and  C_19
REMARK    4  A    between atoms: C_23  and  N_24
REMARK    5  A    between atoms: C_25  and  C_27
REMARK                            x       y       z     vdW  Elec       q    Type
REMARK                         _______ _______ _______ _____ _____    ______ ____
ROOT
ATOM      1  C   UNL     1      -0.031  -2.686  -0.141  0.00  0.00    +0.135 C 
ENDROOT
BRANCH   1   8
ATOM      2  C   UNL     1       3.486  -3.662  -2.214  0.00  0.00    +0.005 A 
ATOM      3  C   UNL     1       4.473  -2.695  -2.350  0.00  0.00    +0.018 A 
ATOM      4  C   UNL     1       4.291  -1.457  -1.768  0.00  0.00    +0.084 A 
ATOM      5  N   UNL     1       3.195  -1.184  -1.086  0.00  0.00    -0.350 N 
ATOM      6  C   UNL     1       2.231  -2.079  -0.934  0.00  0.00    +0.097 A 
ATOM      7  C   UNL     1       2.348  -3.347  -1.494  0.00  0.00    +0.041 A 
ATOM      8  N   UNL     1       1.093  -1.749  -0.208  0.00  0.00    -0.320 N 
ATOM      9  H   UNL     1       1.043  -0.898   0.255  0.00  0.00    +0.148 HD
ATOM     10  H   UNL     1       3.092  -0.306  -0.687  0.00  0.00    +0.166 HD
ENDBRANCH   1   8
BRANCH   1  11
ATOM     11  C   UNL     1      -0.920  -2.324   1.021  0.00  0.00    -0.019 A 
ATOM     12  C   UNL     1      -1.089  -0.997   1.372  0.00  0.00    +0.009 A 
ATOM     13  C   UNL     1      -1.903  -0.659   2.436  0.00  0.00    +0.050 A 
ATOM     14  C   UNL     1      -2.552  -1.650   3.155  0.00  0.00    +0.166 A 
ATOM     15  C   UNL     1      -2.381  -2.986   2.802  0.00  0.00    +0.167 A 
ATOM     16  C   UNL     1      -1.568  -3.317   1.730  0.00  0.00    +0.055 A 
ATOM     17  O   UNL     1      -3.117  -3.760   3.653  0.00  0.00    -0.453 OA
ATOM     18  C   UNL     1      -3.413  -2.916   4.781  0.00  0.00    +0.466 C 
ATOM     19  O   UNL     1      -3.394  -1.587   4.227  0.00  0.00    -0.453 OA
ENDBRANCH   1  11
BRANCH   1  20
ATOM     20  C   UNL     1      -0.823  -2.613  -1.421  0.00  0.00    +0.009 A 
ATOM     21  C   UNL     1      -1.280  -3.783  -2.029  0.00  0.00    -0.030 A 
ATOM     22  C   UNL     1      -1.986  -3.636  -3.181  0.00  0.00    -0.005 A 
ATOM     23  S   UNL     1      -2.028  -1.881  -3.434  0.00  0.00    -0.078 S 
ATOM     24  C   UNL     1      -1.099  -1.407  -1.984  0.00  0.00    +0.078 A 
ATOM     25  C   UNL     1      -2.583  -4.713  -4.028  0.00  0.00    +0.043 C 
ATOM     26  C   UNL     1      -1.971  -6.056  -3.604  0.00  0.00    +0.005 C 
ATOM     27  C   UNL     1      -2.016  -6.156  -2.076  0.00  0.00    +0.005 C 
ATOM     28  C   UNL     1      -1.019  -5.175  -1.459  0.00  0.00    +0.036 C 
BRANCH  24  29
ATOM     29  N   UNL     1      -0.746  -0.129  -1.543  0.00  0.00    -0.273 N 
ATOM     30  C   UNL     1      -1.218   0.959  -2.184  0.00  0.00    +0.284 C 
ATOM     31  O   UNL     1      -2.014   0.830  -3.096  0.00  0.00    -0.266 OA
ATOM     32  H   UNL     1      -0.162  -0.025  -0.776  0.00  0.00    +0.156 HD
BRANCH  30  33
ATOM     33  C   UNL     1      -0.773   2.297  -1.782  0.00  0.00    +0.189 A 
ATOM     34  C   UNL     1      -1.235   3.480  -2.284  0.00  0.00    +0.054 A 
ATOM     35  C   UNL     1      -0.538   4.500  -1.618  0.00  0.00    +0.042 A 
ATOM     36  C   UNL     1       0.308   3.902  -0.750  0.00  0.00    +0.196 A 
ATOM     37  O   UNL     1       0.160   2.575  -0.849  0.00  0.00    -0.458 OA
ENDBRANCH  30  33
ENDBRANCH  24  29
ENDBRANCH   1  20
TORSDOF 5
