REMARK  Name = ZINC05223879
REMARK  10 active torsions:
REMARK  status: ('A' for Active; 'I' for Inactive)
REMARK    1  A    between atoms: C_1  and  C_2
REMARK    2  A    between atoms: C_2  and  O_4
REMARK    3  A    between atoms: O_4  and  C_5
REMARK    4  A    between atoms: C_5  and  C_6
REMARK    5  A    between atoms: CA_7  and  C_30
REMARK    6  A    between atoms: CA_11  and  N_15
REMARK    7  A    between atoms: C_16  and  C_18
REMARK    8  A    between atoms: C_18  and  C_22
REMARK    9  A    between atoms: N_19  and  O_20
REMARK   10  A    between atoms: O_20  and  C_21
REMARK                            x       y       z     vdW  Elec       q    Type
REMARK                         _______ _______ _______ _____ _____    ______ ____
ROOT
ATOM      1  C   UNL     1      -1.069   1.371  -1.230  0.00  0.00    +0.006 C 
ATOM      2  CA  UNL     1      -2.251   1.968  -1.214  0.00  0.00    +0.130 C 
ATOM      3  N   UNL     1      -2.761   2.559  -2.381  0.00  0.00    -0.249 N 
ATOM      4  C   UNL     1      -2.342   2.256  -3.787  0.00  0.00    +0.169 C 
ATOM      5  CA  UNL     1      -3.017   3.575  -4.146  0.00  0.00    +0.191 C 
ATOM      6  C   UNL     1      -3.552   3.591  -2.724  0.00  0.00    +0.244 C 
ATOM      7  O   UNL     1      -4.368   4.266  -2.133  0.00  0.00    -0.273 OA
ATOM      8  S   UNL     1      -0.518   2.292  -3.765  0.00  0.00    -0.131 S 
ATOM      9  C   UNL     1      -0.151   1.159  -2.389  0.00  0.00    +0.107 C 
ENDROOT
BRANCH   5  10
ATOM     10  N   UNL     1      -4.061   3.443  -5.165  0.00  0.00    -0.296 N 
ATOM     11  C   UNL     1      -4.386   4.499  -5.937  0.00  0.00    +0.268 C 
ATOM     12  O   UNL     1      -3.746   5.529  -5.859  0.00  0.00    -0.268 OA
ATOM     13  H   UNL     1      -4.518   2.596  -5.285  0.00  0.00    +0.150 HD
BRANCH  11  14
ATOM     14  C   UNL     1      -5.525   4.404  -6.881  0.00  0.00    +0.190 C 
ATOM     15  N   UNL     1      -5.764   5.378  -7.713  0.00  0.00    -0.078 NA
BRANCH  14  16
ATOM     16  C   UNL     1      -6.389   3.204  -6.879  0.00  0.00    +0.107 A 
ATOM     17  C   UNL     1      -7.369   3.053  -7.824  0.00  0.00    +0.078 A 
ATOM     18  S   UNL     1      -8.059   1.476  -7.340  0.00  0.00    -0.060 S 
ATOM     19  C   UNL     1      -6.985   1.178  -5.943  0.00  0.00    +0.156 A 
ATOM     20  N   UNL     1      -6.219   2.252  -5.962  0.00  0.00    -0.223 NA
ATOM     21  N   UNL     1      -6.959   0.100  -5.074  0.00  0.00    -0.338 N 
ATOM     22  H   UNL     1      -7.589  -0.629  -5.187  0.00  0.00    +0.144 HD
ATOM     23  H   UNL     1      -6.311   0.074  -4.353  0.00  0.00    +0.144 HD
ENDBRANCH  14  16
BRANCH  15  24
ATOM     24  O   UNL     1      -4.875   6.477  -7.791  0.00  0.00    -0.396 OA
ATOM     25  C   UNL     1      -5.261   7.470  -8.744  0.00  0.00    +0.313 C 
ENDBRANCH  15  24
ENDBRANCH  11  14
ENDBRANCH   5  10
BRANCH   2  26
ATOM     26  C   UNL     1      -3.031   2.018   0.036  0.00  0.00    +0.401 C 
ATOM     27  O   UNL     1      -4.160   2.468   0.030  0.00  0.00    -0.239 OA
ATOM     28  OXT UNL     1      -2.493   1.564   1.185  0.00  0.00    -0.239 OA
ENDBRANCH   2  26
BRANCH   1  29
ATOM     29  C   UNL     1      -0.590   0.829   0.092  0.00  0.00    +0.266 C 
BRANCH  29  30
ATOM     30  O   UNL     1       0.663   0.122  -0.099  0.00  0.00    -0.460 OA
BRANCH  30  32
ATOM     31  C   UNL     1       2.527  -1.171   0.875  0.00  0.00    +0.136 C 
ATOM     32  C   UNL     1       1.175  -0.512   0.967  0.00  0.00    +0.304 C 
ATOM     33  O   UNL     1       0.551  -0.555   2.001  0.00  0.00    -0.251 OA
ENDBRANCH  30  32
ENDBRANCH  29  30
ENDBRANCH   1  29
TORSDOF 8
