REMARK  Name = ZINC39661752
REMARK  8 active torsions:
REMARK  status: ('A' for Active; 'I' for Inactive)
REMARK    1  A    between atoms: C_3  and  O_37
REMARK    2  A    between atoms: C_4  and  O_36
REMARK    3  A    between atoms: C_6  and  C_7
REMARK    4  A    between atoms: C_7  and  C_8
REMARK    5  A    between atoms: C_8  and  N_9
REMARK    6  A    between atoms: C_10  and  C_12
REMARK    7  A    between atoms: C_23  and  C_25
REMARK    8  A    between atoms: C_28  and  C_32
REMARK                            x       y       z     vdW  Elec       q    Type
REMARK                         _______ _______ _______ _____ _____    ______ ____
ROOT
ATOM      1  C   UNL     1      -4.291  -3.213  -2.723  0.00  0.00    +0.100 C 
ATOM      2  C   UNL     1      -4.388  -4.592  -2.032  0.00  0.00    +0.121 C 
ATOM      3  N   UNL     1      -5.337  -5.364  -2.869  0.00  0.00    -0.296 N 
ATOM      4  C   UNL     1      -4.993  -4.984  -4.261  0.00  0.00    +0.115 C 
ATOM      5  C   UNL     1      -4.688  -3.475  -4.185  0.00  0.00    -0.004 C 
ATOM      6  C   UNL     1      -3.532  -3.124  -5.117  0.00  0.00    -0.010 C 
ATOM      7  C   UNL     1      -3.970  -3.337  -6.569  0.00  0.00    -0.082 C 
ATOM      8  N   UNL     1      -5.134  -2.492  -6.860  0.00  0.00    +0.379 N 
ATOM      9  C   UNL     1      -6.270  -2.898  -6.024  0.00  0.00    -0.082 C 
ATOM     10  C   UNL     1      -5.929  -2.666  -4.549  0.00  0.00    -0.010 C 
ATOM     11  C   UNL     1      -6.295  -6.218  -2.459  0.00  0.00    +0.247 C 
ATOM     12  O   UNL     1      -6.543  -6.329  -1.274  0.00  0.00    -0.270 OA
ATOM     13  H   UNL     1      -4.905  -1.528  -6.668  0.00  0.00    -0.086 HD
ATOM     14  H   UNL     1      -5.383  -2.588  -7.833  0.00  0.00    -0.086 HD
ENDROOT
BRANCH  11  15
ATOM     15  C   UNL     1      -7.045  -7.019  -3.449  0.00  0.00    +0.040 A 
ATOM     16  C   UNL     1      -6.514  -7.237  -4.722  0.00  0.00    +0.014 A 
ATOM     17  C   UNL     1      -7.218  -7.985  -5.642  0.00  0.00    +0.016 A 
ATOM     18  C   UNL     1      -8.449  -8.521  -5.307  0.00  0.00    +0.090 A 
ATOM     19  C   UNL     1      -8.983  -8.309  -4.047  0.00  0.00    +0.136 A 
ATOM     20  C   UNL     1      -8.285  -7.565  -3.114  0.00  0.00    +0.052 A 
ATOM     21  F   UNL     1     -10.186  -8.834  -3.727  0.00  0.00    -0.205 F 
BRANCH  18  22
ATOM     22  C   UNL     1      -9.212  -9.337  -6.318  0.00  0.00    +0.420 C 
ATOM     23  F   UNL     1      -8.478  -9.412  -7.507  0.00  0.00    -0.166 F 
ATOM     24  F   UNL     1      -9.418 -10.627  -5.816  0.00  0.00    -0.166 F 
ATOM     25  F   UNL     1     -10.448  -8.732  -6.570  0.00  0.00    -0.166 F 
ENDBRANCH  18  22
ENDBRANCH  11  15
BRANCH   1  27
ATOM     26  N   UNL     1      -2.658  -1.359  -2.609  0.00  0.00    -0.315 N 
ATOM     27  C   UNL     1      -2.880  -2.688  -2.648  0.00  0.00    +0.218 C 
ATOM     28  O   UNL     1      -1.946  -3.460  -2.623  0.00  0.00    -0.275 OA
ATOM     29  H   UNL     1      -3.405  -0.741  -2.628  0.00  0.00    +0.149 HD
BRANCH  26  30
ATOM     30  C   UNL     1      -1.287  -0.848  -2.536  0.00  0.00    +0.109 C 
BRANCH  30  31
ATOM     31  C   UNL     1      -1.314   0.682  -2.503  0.00  0.00    +0.054 C 
BRANCH  31  37
ATOM     32  C   UNL     1       0.795   1.474  -3.591  0.00  0.00    +0.007 A 
ATOM     33  C   UNL     1       2.090   1.957  -3.527  0.00  0.00    +0.049 A 
ATOM     34  C   UNL     1       2.689   2.174  -2.297  0.00  0.00    +0.158 A 
ATOM     35  C   UNL     1       1.985   1.905  -1.127  0.00  0.00    +0.158 A 
ATOM     36  C   UNL     1       0.688   1.422  -1.197  0.00  0.00    +0.052 A 
ATOM     37  C   UNL     1       0.097   1.208  -2.429  0.00  0.00    -0.042 A 
BRANCH  35  38
ATOM     38  O   UNL     1       2.568   2.116   0.083  0.00  0.00    -0.503 OA
ATOM     39  H   UNL     1       2.429   3.005   0.438  0.00  0.00    +0.292 HD
ENDBRANCH  35  38
BRANCH  34  40
ATOM     40  O   UNL     1       3.962   2.648  -2.233  0.00  0.00    -0.503 OA
ATOM     41  H   UNL     1       4.021   3.613  -2.210  0.00  0.00    +0.292 HD
ENDBRANCH  34  40
ENDBRANCH  31  37
ENDBRANCH  30  31
ENDBRANCH  26  30
ENDBRANCH   1  27
TORSDOF 8
