REMARK  Name = ZINC64156692
REMARK  7 active torsions:
REMARK  status: ('A' for Active; 'I' for Inactive)
REMARK    1  A    between atoms: C_1  and  C_2
REMARK    2  A    between atoms: N_10  and  C_13
REMARK    3  A    between atoms: C_13  and  C_14
REMARK    4  A    between atoms: N_16  and  C_17
REMARK    5  A    between atoms: C_17  and  C_18
REMARK    6  A    between atoms: C_18  and  C_20
REMARK    7  A    between atoms: C_18  and  C_25
REMARK                            x       y       z     vdW  Elec       q    Type
REMARK                         _______ _______ _______ _____ _____    ______ ____
ROOT
ATOM      1  C   UNL     1      -1.326  -3.001   5.360  0.00  0.00    +0.233 C 
ATOM      2  O   UNL     1      -2.260  -2.658   4.665  0.00  0.00    -0.274 OA
ATOM      3  N   UNL     1      -1.553  -3.602   6.545  0.00  0.00    -0.313 N 
ATOM      4  H   UNL     1      -0.806  -3.876   7.100  0.00  0.00    +0.149 HD
ENDROOT
BRANCH   1   5
ATOM      5  C   UNL     1       0.087  -2.754   4.898  0.00  0.00    +0.221 C 
BRANCH   5  15
ATOM      6  C   UNL     1      -0.018   1.503   0.010  0.00  0.00    +0.046 C 
ATOM      7  C   UNL     1       0.002  -0.004   0.002  0.00  0.00    -0.024 A 
ATOM      8  C   UNL     1       0.006  -0.689  -1.192  0.00  0.00    +0.005 A 
ATOM      9  C   UNL     1       0.025  -2.078  -1.216  0.00  0.00    +0.001 A 
ATOM     10  C   UNL     1       0.040  -2.798  -0.042  0.00  0.00    +0.015 A 
ATOM     11  C   UNL     1       0.037  -2.124   1.177  0.00  0.00    +0.065 A 
ATOM     12  C   UNL     1       0.023  -0.712   1.205  0.00  0.00    +0.081 A 
ATOM     13  N   UNL     1       0.025  -0.077   2.404  0.00  0.00    -0.237 NA
ATOM     14  C   UNL     1       0.045  -0.736   3.523  0.00  0.00    +0.203 A 
ATOM     15  N   UNL     1       0.065  -2.093   3.591  0.00  0.00    -0.290 N 
ATOM     16  C   UNL     1       0.053  -2.840   2.462  0.00  0.00    +0.262 A 
ATOM     17  O   UNL     1       0.069  -4.056   2.508  0.00  0.00    -0.267 OA
ENDBRANCH   5  15
ENDBRANCH   1   5
BRANCH   3  18
ATOM     18  C   UNL     1      -2.926  -3.842   6.994  0.00  0.00    +0.117 C 
BRANCH  18  19
ATOM     19  C   UNL     1      -2.904  -4.532   8.359  0.00  0.00    +0.071 C 
BRANCH  19  20
ATOM     20  C   UNL     1      -4.312  -4.668   8.876  0.00  0.00    -0.032 C 
ATOM     21  C   UNL     1      -4.813  -4.145  10.019  0.00  0.00    -0.000 A 
ATOM     22  C   UNL     1      -4.219  -3.325  11.081  0.00  0.00    +0.010 A 
ATOM     23  C   UNL     1      -4.989  -2.947  12.126  0.00  0.00    +0.001 A 
ATOM     24  C   UNL     1      -6.338  -3.317  12.220  0.00  0.00    +0.002 A 
ATOM     25  C   UNL     1      -6.955  -4.068  11.283  0.00  0.00    +0.026 A 
ATOM     26  C   UNL     1      -6.239  -4.522  10.141  0.00  0.00    +0.043 A 
ATOM     27  N   UNL     1      -6.606  -5.250   9.114  0.00  0.00    -0.380 N 
ATOM     28  C   UNL     1      -5.454  -5.412   8.220  0.00  0.00    +0.145 C 
ATOM     29  H   UNL     1      -7.492  -5.617   8.968  0.00  0.00    +0.160 HD
ENDBRANCH  19  20
BRANCH  19  30
ATOM     30  C   UNL     1      -2.285  -5.899   8.220  0.00  0.00    -0.002 A 
ATOM     31  C   UNL     1      -1.183  -6.403   8.828  0.00  0.00    +0.012 A 
ATOM     32  C   UNL     1      -0.796  -7.699   8.546  0.00  0.00    +0.008 A 
ATOM     33  C   UNL     1      -1.530  -8.430   7.672  0.00  0.00    +0.045 A 
ATOM     34  S   UNL     1      -2.818  -7.278   7.220  0.00  0.00    -0.101 S 
ENDBRANCH  19  30
ENDBRANCH  18  19
ENDBRANCH   3  18
TORSDOF 6
