REMARK  Name = ZINC01144223
REMARK  11 active torsions:
REMARK  status: ('A' for Active; 'I' for Inactive)
REMARK    1  A    between atoms: C_1  and  C_2
REMARK    2  A    between atoms: C_5  and  C_8
REMARK    3  A    between atoms: C_8  and  N_9
REMARK    4  A    between atoms: N_9  and  C_10
REMARK    5  A    between atoms: N_9  and  S_22
REMARK    6  A    between atoms: C_10  and  C_11
REMARK    7  A    between atoms: N_13  and  C_14
REMARK    8  A    between atoms: C_16  and  C_21
REMARK    9  A    between atoms: C_18  and  C_20
REMARK   10  A    between atoms: S_22  and  C_25
REMARK   11  A    between atoms: C_28  and  C_31
REMARK                            x       y       z     vdW  Elec       q    Type
REMARK                         _______ _______ _______ _____ _____    ______ ____
ROOT
ATOM      1  N   UNL     1       1.348  -2.591  -1.430  0.00  0.00    -0.163 NA
ENDROOT
BRANCH   1   2
ATOM      2  S   UNL     1      -0.034  -2.891  -2.292  0.00  0.00    +0.062 S 
ATOM      3  O   UNL     1       0.295  -3.885  -3.253  0.00  0.00    -0.153 OA
ATOM      4  O   UNL     1      -1.075  -3.064  -1.341  0.00  0.00    -0.153 OA
BRANCH   2   5
ATOM      5  C   UNL     1      -0.413  -1.425  -3.194  0.00  0.00    +0.106 A 
ATOM      6  C   UNL     1      -1.137  -0.412  -2.593  0.00  0.00    +0.029 A 
ATOM      7  C   UNL     1      -1.432   0.739  -3.299  0.00  0.00    +0.005 A 
ATOM      8  C   UNL     1      -1.010   0.874  -4.609  0.00  0.00    -0.050 A 
ATOM      9  C   UNL     1      -0.290  -0.141  -5.211  0.00  0.00    +0.005 A 
ATOM     10  C   UNL     1       0.008  -1.291  -4.503  0.00  0.00    +0.029 A 
ATOM     11  C   UNL     1      -1.335   2.127  -5.380  0.00  0.00    +0.044 C 
ENDBRANCH   2   5
ENDBRANCH   1   2
BRANCH   1  12
ATOM     12  C   UNL     1       1.261  -2.158  -0.033  0.00  0.00    +0.145 C 
BRANCH  12  17
ATOM     13  C   UNL     1       1.905  -6.728   3.444  0.00  0.00    +0.044 C 
ATOM     14  C   UNL     1       1.737  -5.536   2.538  0.00  0.00    -0.050 A 
ATOM     15  C   UNL     1       2.825  -4.737   2.237  0.00  0.00    +0.003 A 
ATOM     16  C   UNL     1       2.671  -3.644   1.406  0.00  0.00    +0.005 A 
ATOM     17  C   UNL     1       1.429  -3.350   0.874  0.00  0.00    -0.032 A 
ATOM     18  C   UNL     1       0.342  -4.149   1.174  0.00  0.00    +0.005 A 
ATOM     19  C   UNL     1       0.496  -5.242   2.005  0.00  0.00    +0.003 A 
ENDBRANCH  12  17
ENDBRANCH   1  12
BRANCH   1  20
ATOM     20  C   UNL     1       2.658  -2.759  -2.064  0.00  0.00    +0.205 C 
BRANCH  20  21
ATOM     21  C   UNL     1       3.193  -4.133  -1.756  0.00  0.00    +0.233 C 
ATOM     22  O   UNL     1       2.544  -4.898  -1.073  0.00  0.00    -0.274 OA
ATOM     23  N   UNL     1       4.393  -4.514  -2.238  0.00  0.00    -0.284 N 
ATOM     24  H   UNL     1       4.883  -3.928  -2.836  0.00  0.00    +0.155 HD
BRANCH  23  25
ATOM     25  C   UNL     1       4.931  -5.753  -1.877  0.00  0.00    +0.034 A 
ATOM     26  C   UNL     1       6.302  -5.893  -1.703  0.00  0.00    +0.026 A 
ATOM     27  C   UNL     1       6.830  -7.116  -1.341  0.00  0.00    -0.048 A 
ATOM     28  C   UNL     1       5.997  -8.205  -1.162  0.00  0.00    +0.006 A 
ATOM     29  C   UNL     1       4.632  -8.071  -1.339  0.00  0.00    -0.048 A 
ATOM     30  C   UNL     1       4.097  -6.848  -1.696  0.00  0.00    +0.026 A 
ATOM     31  C   UNL     1       3.727  -9.260  -1.142  0.00  0.00    +0.044 C 
ATOM     32  C   UNL     1       8.317  -7.267  -1.147  0.00  0.00    +0.044 C 
ENDBRANCH  23  25
ENDBRANCH  20  21
ENDBRANCH   1  20
TORSDOF 7
