REMARK  Name = ZINC32929265
REMARK  6 active torsions:
REMARK  status: ('A' for Active; 'I' for Inactive)
REMARK    1  A    between atoms: C_8  and  C_27
REMARK    2  A    between atoms: N_9  and  C_10
REMARK    3  A    between atoms: C_10  and  C_11
REMARK    4  A    between atoms: N_13  and  N_14
REMARK    5  A    between atoms: C_15  and  C_16
REMARK    6  A    between atoms: C_20  and  N_23
REMARK                            x       y       z     vdW  Elec       q    Type
REMARK                         _______ _______ _______ _____ _____    ______ ____
ROOT
ATOM      1  C   UNL     1       3.448   2.925   0.188  0.00  0.00    +0.221 C 
ENDROOT
BRANCH   1  10
ATOM      2  C   UNL     1       5.220  -1.946   1.157  0.00  0.00    +0.002 A 
ATOM      3  C   UNL     1       5.895  -0.755   1.387  0.00  0.00    +0.002 A 
ATOM      4  C   UNL     1       5.305   0.453   1.082  0.00  0.00    +0.028 A 
ATOM      5  C   UNL     1       4.025   0.478   0.544  0.00  0.00    +0.070 A 
ATOM      6  C   UNL     1       3.341  -0.729   0.312  0.00  0.00    +0.090 A 
ATOM      7  C   UNL     1       3.961  -1.943   0.628  0.00  0.00    +0.030 A 
ATOM      8  N   UNL     1       2.133  -0.410  -0.211  0.00  0.00    -0.226 NA
ATOM      9  C   UNL     1       2.029   0.892  -0.315  0.00  0.00    +0.168 A 
ATOM     10  N   UNL     1       3.175   1.487   0.140  0.00  0.00    -0.313 N 
BRANCH   9  11
ATOM     11  C   UNL     1       0.851   1.611  -0.849  0.00  0.00    +0.190 A 
ATOM     12  C   UNL     1      -0.419   1.054  -1.370  0.00  0.00    +0.191 A 
ATOM     13  N   UNL     1      -1.090   2.132  -1.699  0.00  0.00    -0.033 NA
ATOM     14  O   UNL     1      -0.423   3.111  -1.460  0.00  0.00    -0.240 OA
ATOM     15  N   UNL     1       0.670   2.908  -0.986  0.00  0.00    -0.044 NA
ATOM     16  N   UNL     1      -0.803  -0.276  -1.480  0.00  0.00    -0.339 N 
ATOM     17  H   UNL     1      -1.790  -0.531  -1.893  0.00  0.00    +0.144 HD
ATOM     18  H   UNL     1      -0.120  -1.075  -1.155  0.00  0.00    +0.144 HD
ENDBRANCH   9  11
ENDBRANCH   1  10
BRANCH   1  19
ATOM     19  C   UNL     1       2.992   3.479   1.514  0.00  0.00    +0.252 C 
ATOM     20  O   UNL     1       2.488   2.744   2.337  0.00  0.00    -0.272 OA
ATOM     21  N   UNL     1       3.143   4.790   1.784  0.00  0.00    -0.206 N 
ATOM     22  H   UNL     1       3.600   5.457   1.038  0.00  0.00    +0.177 HD
BRANCH  21  23
ATOM     23  N   UNL     1       2.719   5.305   3.016  0.00  0.00    -0.188 NA
ATOM     24  C   UNL     1       2.766   6.583   3.236  0.00  0.00    +0.142 C 
BRANCH  24  25
ATOM     25  C   UNL     1       3.017   7.514   2.121  0.00  0.00    +0.045 A 
ATOM     26  C   UNL     1       2.681   7.152   0.815  0.00  0.00    +0.028 A 
ATOM     27  C   UNL     1       2.919   8.028  -0.224  0.00  0.00    +0.021 A 
ATOM     28  C   UNL     1       3.489   9.266   0.023  0.00  0.00    +0.052 A 
ATOM     29  C   UNL     1       3.825   9.636   1.312  0.00  0.00    +0.174 A 
ATOM     30  C   UNL     1       3.588   8.770   2.367  0.00  0.00    +0.218 A 
ATOM     31  O   UNL     1       3.913   9.135   3.635  0.00  0.00    -0.285 OA
ATOM     32 BR   UNL     1       2.465   7.537  -1.993  0.00  0.00    -0.050 Br
BRANCH  29  33
ATOM     33  N   UNL     1       4.433  10.961   1.566  0.00  0.00    +0.060 N 
ATOM     34  O   UNL     1       4.638  11.725   0.639  0.00  0.00    -0.126 OA
ATOM     35  O   UNL     1       4.730  11.288   2.701  0.00  0.00    -0.126 OA
ENDBRANCH  29  33
ENDBRANCH  24  25
ENDBRANCH  21  23
ENDBRANCH   1  19
TORSDOF 6
