REMARK  Name = ZINC21894233
REMARK  8 active torsions:
REMARK  status: ('A' for Active; 'I' for Inactive)
REMARK    1  A    between atoms: C_1  and  C_2
REMARK    2  A    between atoms: C_2  and  O_3
REMARK    3  A    between atoms: O_3  and  C_4
REMARK    4  A    between atoms: C_4  and  C_6
REMARK    5  A    between atoms: C_6  and  C_7
REMARK    6  A    between atoms: C_10  and  N_13
REMARK    7  A    between atoms: C_29  and  C_31
REMARK    8  A    between atoms: C_36  and  C_37
REMARK                            x       y       z     vdW  Elec       q    Type
REMARK                         _______ _______ _______ _____ _____    ______ ____
ROOT
ATOM      1  N   UNL     1      -1.442   1.318  -3.443  0.00  0.00    -0.269 N 
ATOM      2  C   UNL     1      -1.320   0.751  -2.227  0.00  0.00    +0.308 C 
ATOM      3  O   UNL     1      -1.251  -0.459  -2.124  0.00  0.00    -0.252 OA
ATOM      4  N   UNL     1      -1.276   1.524  -1.124  0.00  0.00    -0.268 N 
ATOM      5  C   UNL     1      -1.319   0.932   0.228  0.00  0.00    +0.147 C 
ATOM      6  C   UNL     1      -2.200   1.718   1.160  0.00  0.00    -0.006 A 
ATOM      7  C   UNL     1      -3.434   1.239   1.543  0.00  0.00    +0.007 A 
ATOM      8  C   UNL     1      -4.197   1.947   2.455  0.00  0.00    +0.000 A 
ATOM      9  C   UNL     1      -3.721   3.131   2.989  0.00  0.00    +0.002 A 
ATOM     10  C   UNL     1      -2.495   3.628   2.590  0.00  0.00    +0.026 A 
ATOM     11  C   UNL     1      -1.743   2.936   1.655  0.00  0.00    +0.051 A 
ATOM     12  N   UNL     1      -0.530   3.454   1.178  0.00  0.00    -0.318 N 
ATOM     13  C   UNL     1       0.514   3.975   1.871  0.00  0.00    +0.091 A 
ATOM     14  C   UNL     1       1.466   4.335   0.982  0.00  0.00    +0.020 A 
ATOM     15  C   UNL     1       0.983   4.023  -0.307  0.00  0.00    +0.025 A 
ATOM     16  C   UNL     1      -0.238   3.489  -0.158  0.00  0.00    +0.049 A 
ATOM     17  C   UNL     1      -1.181   2.993  -1.224  0.00  0.00    +0.156 C 
ATOM     18  H   UNL     1      -1.387   2.412  -3.548  0.00  0.00    +0.156 HD
ENDROOT
BRANCH  17  19
ATOM     19  C   UNL     1      -2.544   3.602  -1.018  0.00  0.00    -0.018 A 
ATOM     20  C   UNL     1      -3.594   2.816  -0.582  0.00  0.00    +0.006 A 
ATOM     21  C   UNL     1      -4.844   3.376  -0.393  0.00  0.00    +0.000 A 
ATOM     22  C   UNL     1      -5.043   4.721  -0.639  0.00  0.00    +0.000 A 
ATOM     23  C   UNL     1      -3.993   5.507  -1.074  0.00  0.00    +0.004 A 
ATOM     24  C   UNL     1      -2.742   4.949  -1.259  0.00  0.00    -0.045 A 
ATOM     25  C   UNL     1      -1.596   5.807  -1.728  0.00  0.00    +0.044 C 
ENDBRANCH  17  19
BRANCH   1  29
ATOM     26  C   UNL     1      -2.026  -1.069  -6.807  0.00  0.00    -0.037 A 
ATOM     27  C   UNL     1      -2.617   0.179  -6.736  0.00  0.00    +0.006 A 
ATOM     28  C   UNL     1      -2.425   0.972  -5.622  0.00  0.00    +0.023 A 
ATOM     29  C   UNL     1      -1.638   0.516  -4.573  0.00  0.00    +0.035 A 
ATOM     30  C   UNL     1      -1.042  -0.736  -4.650  0.00  0.00    +0.023 A 
ATOM     31  C   UNL     1      -1.242  -1.527  -5.764  0.00  0.00    +0.006 A 
BRANCH  26  32
ATOM     32  C   UNL     1      -2.238  -1.933  -8.024  0.00  0.00    +0.155 C 
BRANCH  32  33
ATOM     33  C   UNL     1      -1.162  -1.644  -9.039  0.00  0.00    +0.311 C 
ATOM     34  O   UNL     1      -0.311  -0.820  -8.799  0.00  0.00    -0.250 OA
BRANCH  33  35
ATOM     35  O   UNL     1      -1.149  -2.300 -10.209  0.00  0.00    -0.465 OA
BRANCH  35  37
ATOM     36  C   UNL     1      -0.234  -2.814 -12.407  0.00  0.00    +0.048 C 
ATOM     37  C   UNL     1      -0.084  -1.970 -11.139  0.00  0.00    +0.229 C 
ENDBRANCH  35  37
ENDBRANCH  33  35
ENDBRANCH  32  33
ENDBRANCH  26  32
ENDBRANCH   1  29
TORSDOF 6
