REMARK  Name = ZINC35842878
REMARK  3 active torsions:
REMARK  status: ('A' for Active; 'I' for Inactive)
REMARK    1  A    between atoms: C_6  and  C_7
REMARK    2  A    between atoms: C_19  and  N_22
REMARK    3  A    between atoms: N_25  and  C_26
REMARK                            x       y       z     vdW  Elec       q    Type
REMARK                         _______ _______ _______ _____ _____    ______ ____
ROOT
ATOM      1  C   UNL     1      -1.186  -0.735   0.071  0.00  0.00    +0.247 C 
ATOM      2  O   UNL     1      -0.142  -0.142  -0.117  0.00  0.00    -0.270 OA
ATOM      3  N   UNL     1      -1.189  -2.078   0.176  0.00  0.00    -0.296 N 
ATOM      4  C   UNL     1      -2.485  -2.751   0.270  0.00  0.00    +0.109 C 
ATOM      5  C   UNL     1      -2.858  -3.246  -1.113  0.00  0.00    +0.038 C 
ATOM      6  C   UNL     1      -2.251  -4.629  -1.365  0.00  0.00    +0.108 C 
ATOM      7  N   UNL     1      -0.874  -4.742  -0.861  0.00  0.00    -0.315 N 
ATOM      8  C   UNL     1       0.126  -3.704  -1.034  0.00  0.00    +0.125 C 
ATOM      9  C   UNL     1       0.067  -2.744   0.181  0.00  0.00    +0.127 C 
ATOM     10  C   UNL     1      -0.512  -5.904  -0.183  0.00  0.00    +0.099 A 
ATOM     11  C   UNL     1       0.737  -5.984   0.424  0.00  0.00    +0.043 A 
ATOM     12  C   UNL     1       1.087  -7.141   1.094  0.00  0.00    +0.028 A 
ATOM     13  C   UNL     1       0.169  -8.189   1.135  0.00  0.00    +0.051 A 
ATOM     14  C   UNL     1      -1.058  -8.038   0.506  0.00  0.00    +0.107 A 
ATOM     15  N   UNL     1      -1.361  -6.917  -0.120  0.00  0.00    -0.348 N 
ATOM     16  H   UNL     1      -2.228  -6.834  -0.548  0.00  0.00    +0.167 HD
ENDROOT
BRANCH   1  22
ATOM     17  C   UNL     1      -2.548   1.101   1.061  0.00  0.00    +0.016 A 
ATOM     18  C   UNL     1      -3.732   1.800   1.162  0.00  0.00    +0.039 A 
ATOM     19  C   UNL     1      -4.826   1.429   0.396  0.00  0.00    +0.123 A 
ATOM     20  C   UNL     1      -4.737   0.355  -0.475  0.00  0.00    +0.039 A 
ATOM     21  C   UNL     1      -3.558  -0.351  -0.585  0.00  0.00    +0.016 A 
ATOM     22  C   UNL     1      -2.453   0.018   0.184  0.00  0.00    +0.037 A 
ATOM     23  F   UNL     1      -5.984   2.118   0.500  0.00  0.00    -0.205 F 
ENDBRANCH   1  22
BRANCH  13  24
ATOM     24  N   UNL     1       0.481  -9.382   1.802  0.00  0.00    -0.268 N 
ATOM     25  C   UNL     1       1.334  -9.366   2.846  0.00  0.00    +0.308 C 
ATOM     26  O   UNL     1       1.762  -8.308   3.266  0.00  0.00    -0.252 OA
ATOM     27  N   UNL     1       1.714 -10.523   3.423  0.00  0.00    -0.269 N 
ATOM     28  H   UNL     1       0.084 -10.218   1.514  0.00  0.00    +0.156 HD
ATOM     29  H   UNL     1       1.430 -11.370   3.045  0.00  0.00    +0.156 HD
BRANCH  27  30
ATOM     30  C   UNL     1       2.518 -10.503   4.570  0.00  0.00    +0.038 A 
ATOM     31  C   UNL     1       3.464 -11.499   4.773  0.00  0.00    +0.026 A 
ATOM     32  C   UNL     1       4.257 -11.478   5.904  0.00  0.00    +0.043 A 
ATOM     33  C   UNL     1       4.109 -10.465   6.836  0.00  0.00    +0.159 A 
ATOM     34  C   UNL     1       3.165  -9.469   6.636  0.00  0.00    +0.160 A 
ATOM     35  C   UNL     1       2.373  -9.484   5.502  0.00  0.00    +0.064 A 
ATOM     36  F   UNL     1       3.022  -8.481   7.547  0.00  0.00    -0.202 F 
ATOM     37  F   UNL     1       4.886 -10.446   7.941  0.00  0.00    -0.202 F 
ENDBRANCH  27  30
ENDBRANCH  13  24
TORSDOF 3
