REMARK  Name = ZINC25384186
REMARK  8 active torsions:
REMARK  status: ('A' for Active; 'I' for Inactive)
REMARK    1  A    between atoms: C_5  and  N_7
REMARK    2  A    between atoms: N_7  and  S_8
REMARK    3  A    between atoms: S_8  and  C_11
REMARK    4  A    between atoms: C_15  and  C_17
REMARK    5  A    between atoms: N_19  and  C_20
REMARK    6  A    between atoms: C_20  and  C_21
REMARK    7  A    between atoms: C_21  and  C_23
REMARK    8  A    between atoms: C_21  and  N_28
REMARK                            x       y       z     vdW  Elec       q    Type
REMARK                         _______ _______ _______ _____ _____    ______ ____
ROOT
ATOM      1  C   UNL     1       4.513   3.640   3.554  0.00  0.00    +0.109 A 
ATOM      2  C   UNL     1       4.162   4.628   4.458  0.00  0.00    +0.029 A 
ATOM      3  C   UNL     1       3.909   4.307   5.779  0.00  0.00    +0.003 A 
ATOM      4  C   UNL     1       4.015   3.000   6.207  0.00  0.00    +0.013 A 
ATOM      5  C   UNL     1       4.373   2.000   5.303  0.00  0.00    +0.039 A 
ATOM      6  C   UNL     1       4.622   2.329   3.969  0.00  0.00    +0.041 A 
ENDROOT
BRANCH   5   7
ATOM      7  C   UNL     1       4.490   0.597   5.754  0.00  0.00    +0.244 C 
ATOM      8  O   UNL     1       4.803  -0.272   4.964  0.00  0.00    -0.270 OA
ATOM      9  N   UNL     1       4.249   0.281   7.042  0.00  0.00    -0.313 N 
ATOM     10  H   UNL     1       3.966   1.068   7.758  0.00  0.00    +0.149 HD
BRANCH   9  11
ATOM     11  C   UNL     1       4.364  -1.109   7.490  0.00  0.00    +0.094 C 
BRANCH  11  12
ATOM     12  C   UNL     1       3.882  -1.220   8.938  0.00  0.00    -0.013 C 
BRANCH  12  13
ATOM     13  N   UNL     1       2.450  -0.900   9.003  0.00  0.00    +0.386 N 
ATOM     14  C   UNL     1       1.888  -1.242  10.334  0.00  0.00    -0.078 C 
ATOM     15  C   UNL     1       0.597  -0.389  10.405  0.00  0.00    -0.020 C 
ATOM     16  C   UNL     1       1.014   0.927   9.708  0.00  0.00    -0.020 C 
ATOM     17  C   UNL     1       2.223   0.552   8.831  0.00  0.00    -0.078 C 
ATOM     18  H   UNL     1       1.976  -1.480   8.197  0.00  0.00    -0.081 HD
ENDBRANCH  12  13
BRANCH  12  19
ATOM     19  C   UNL     1       4.106  -2.625   9.435  0.00  0.00    -0.022 A 
ATOM     20  C   UNL     1       5.037  -3.084  10.306  0.00  0.00    +0.009 A 
ATOM     21  C   UNL     1       5.055  -4.430  10.621  0.00  0.00    +0.008 A 
ATOM     22  C   UNL     1       4.140  -5.251  10.050  0.00  0.00    +0.045 A 
ATOM     23  S   UNL     1       3.207  -4.115   9.036  0.00  0.00    -0.103 S 
ENDBRANCH  12  19
ENDBRANCH  11  12
ENDBRANCH   9  11
ENDBRANCH   5   7
BRANCH   1  24
ATOM     24  S   UNL     1       4.827   4.059   1.872  0.00  0.00    +0.072 S 
ATOM     25  O   UNL     1       5.673   3.043   1.351  0.00  0.00    -0.150 OA
ATOM     26  O   UNL     1       5.188   5.433   1.856  0.00  0.00    -0.150 OA
BRANCH  24  27
ATOM     27  N   UNL     1       3.388   3.939   1.060  0.00  0.00    -0.213 N 
ATOM     28  H   UNL     1       3.288   3.235   0.221  0.00  0.00    +0.174 HD
BRANCH  27  33
ATOM     29  C   UNL     1       1.435   6.807   2.275  0.00  0.00    +0.002 A 
ATOM     30  C   UNL     1       0.150   6.302   2.198  0.00  0.00    +0.003 A 
ATOM     31  C   UNL     1      -0.064   5.015   1.740  0.00  0.00    +0.040 A 
ATOM     32  C   UNL     1       1.008   4.226   1.366  0.00  0.00    +0.146 A 
ATOM     33  C   UNL     1       2.301   4.732   1.442  0.00  0.00    +0.083 A 
ATOM     34  C   UNL     1       2.511   6.026   1.898  0.00  0.00    +0.027 A 
ATOM     35  F   UNL     1       0.799   2.967   0.923  0.00  0.00    -0.204 F 
ENDBRANCH  27  33
ENDBRANCH  24  27
ENDBRANCH   1  24
TORSDOF 8
