REMARK  Name = ZINC03303373
REMARK  10 active torsions:
REMARK  status: ('A' for Active; 'I' for Inactive)
REMARK    1  A    between atoms: C_1  and  C_2
REMARK    2  A    between atoms: C_5  and  N_19
REMARK    3  A    between atoms: C_6  and  S_8
REMARK    4  A    between atoms: S_8  and  N_11
REMARK    5  A    between atoms: N_11  and  C_12
REMARK    6  A    between atoms: N_19  and  C_20
REMARK    7  A    between atoms: C_20  and  N_22
REMARK    8  A    between atoms: N_22  and  C_23
REMARK    9  A    between atoms: C_26  and  O_29
REMARK   10  A    between atoms: O_29  and  C_30
REMARK                            x       y       z     vdW  Elec       q    Type
REMARK                         _______ _______ _______ _____ _____    ______ ____
ROOT
ATOM      1  C   UNL     1       7.284  -7.596   0.132  0.00  0.00    +0.044 C 
ATOM      2  C   UNL     1       6.089  -6.689  -0.004  0.00  0.00    -0.048 A 
ATOM      3  C   UNL     1       6.268  -5.320  -0.090  0.00  0.00    +0.005 A 
ATOM      4  C   UNL     1       5.174  -4.486  -0.215  0.00  0.00    +0.025 A 
ATOM      5  C   UNL     1       3.894  -5.023  -0.254  0.00  0.00    +0.060 A 
ATOM      6  C   UNL     1       3.717  -6.397  -0.162  0.00  0.00    +0.130 A 
ATOM      7  C   UNL     1       4.816  -7.226  -0.043  0.00  0.00    +0.034 A 
ENDROOT
BRANCH   6   8
ATOM      8  S   UNL     1       2.095  -7.083  -0.204  0.00  0.00    +0.074 S 
ATOM      9  O   UNL     1       2.248  -8.494  -0.140  0.00  0.00    -0.150 OA
ATOM     10  O   UNL     1       1.323  -6.357   0.742  0.00  0.00    -0.150 OA
BRANCH   8  11
ATOM     11  N   UNL     1       1.458  -6.743  -1.695  0.00  0.00    -0.216 N 
ATOM     12  H   UNL     1       0.704  -6.138  -1.774  0.00  0.00    +0.174 HD
BRANCH  11  13
ATOM     13  C   UNL     1       2.007  -7.327  -2.839  0.00  0.00    +0.048 A 
ATOM     14  C   UNL     1       3.385  -7.350  -3.016  0.00  0.00    +0.025 A 
ATOM     15  C   UNL     1       3.925  -7.932  -4.146  0.00  0.00    +0.017 A 
ATOM     16  C   UNL     1       3.095  -8.484  -5.105  0.00  0.00    +0.018 A 
ATOM     17  C   UNL     1       1.722  -8.459  -4.934  0.00  0.00    +0.017 A 
ATOM     18  C   UNL     1       1.177  -7.882  -3.804  0.00  0.00    +0.025 A 
ATOM     19 BR   UNL     1       3.839  -9.275  -6.654  0.00  0.00    -0.050 Br
ENDBRANCH  11  13
ENDBRANCH   8  11
ENDBRANCH   6   8
BRANCH   5  20
ATOM     20  N   UNL     1       2.784  -4.181  -0.380  0.00  0.00    -0.295 N 
ATOM     21  H   UNL     1       2.082  -4.396  -1.014  0.00  0.00    +0.154 HD
BRANCH  20  22
ATOM     22  C   UNL     1       2.691  -3.070   0.378  0.00  0.00    +0.139 C 
ATOM     23  S   UNL     1       3.983  -2.629   1.411  0.00  0.00    -0.018 S 
BRANCH  22  24
ATOM     24  N   UNL     1       1.581  -2.308   0.324  0.00  0.00    -0.297 N 
ATOM     25  H   UNL     1       0.824  -2.592  -0.212  0.00  0.00    +0.154 HD
BRANCH  24  26
ATOM     26  C   UNL     1       1.521  -1.106   1.040  0.00  0.00    +0.033 A 
ATOM     27  C   UNL     1       1.020   0.039   0.435  0.00  0.00    +0.027 A 
ATOM     28  C   UNL     1       0.961   1.224   1.143  0.00  0.00    +0.047 A 
ATOM     29  C   UNL     1       1.402   1.270   2.457  0.00  0.00    +0.127 A 
ATOM     30  C   UNL     1       1.902   0.126   3.062  0.00  0.00    +0.047 A 
ATOM     31  C   UNL     1       1.962  -1.059   2.356  0.00  0.00    +0.027 A 
BRANCH  29  32
ATOM     32  O   UNL     1       1.344   2.437   3.153  0.00  0.00    -0.434 OA
BRANCH  32  33
ATOM     33  C   UNL     1       1.814   2.412   4.502  0.00  0.00    +0.541 C 
ATOM     34  F   UNL     1       1.060   1.495   5.242  0.00  0.00    -0.166 F 
ATOM     35  F   UNL     1       3.160   2.031   4.519  0.00  0.00    -0.166 F 
ENDBRANCH  32  33
ENDBRANCH  29  32
ENDBRANCH  24  26
ENDBRANCH  22  24
ENDBRANCH  20  22
ENDBRANCH   5  20
TORSDOF 9
