REMARK  Name = ZINC11211194
REMARK  8 active torsions:
REMARK  status: ('A' for Active; 'I' for Inactive)
REMARK    1  A    between atoms: C_1  and  C_2
REMARK    2  A    between atoms: C_2  and  C_4
REMARK    3  A    between atoms: C_2  and  O_11
REMARK    4  A    between atoms: N_9  and  C_10
REMARK    5  A    between atoms: O_11  and  C_12
REMARK    6  A    between atoms: C_12  and  C_14
REMARK    7  A    between atoms: C_18  and  S_20
REMARK    8  A    between atoms: S_20  and  N_23
REMARK                            x       y       z     vdW  Elec       q    Type
REMARK                         _______ _______ _______ _____ _____    ______ ____
ROOT
ATOM      1  C   UNL     1       2.844  -1.116   2.057  0.00  0.00    +0.061 A 
ATOM      2  C   UNL     1       2.170  -1.313   3.264  0.00  0.00    +0.016 A 
ATOM      3  C   UNL     1       2.866  -1.725   4.380  0.00  0.00    +0.023 A 
ATOM      4  C   UNL     1       4.232  -1.944   4.306  0.00  0.00    +0.068 A 
ATOM      5  C   UNL     1       4.907  -1.750   3.112  0.00  0.00    +0.128 A 
ATOM      6  C   UNL     1       4.221  -1.343   1.987  0.00  0.00    +0.045 A 
ATOM      7 CL   UNL     1       5.103  -2.462   5.716  0.00  0.00    -0.082 Cl
ENDROOT
BRANCH   5   8
ATOM      8  S   UNL     1       6.644  -2.030   3.028  0.00  0.00    +0.076 S 
ATOM      9  O   UNL     1       6.888  -3.267   3.683  0.00  0.00    -0.150 OA
ATOM     10  O   UNL     1       7.029  -1.793   1.681  0.00  0.00    -0.150 OA
BRANCH   8  11
ATOM     11  N   UNL     1       7.374  -0.858   3.942  0.00  0.00    -0.202 N 
ATOM     12  C   UNL     1       7.822  -1.031   5.327  0.00  0.00    +0.136 C 
ATOM     13  C   UNL     1       8.426   0.325   5.727  0.00  0.00    +0.058 C 
ATOM     14  C   UNL     1       8.268   1.189   4.496  0.00  0.00    -0.023 A 
ATOM     15  C   UNL     1       7.658   0.436   3.504  0.00  0.00    +0.054 A 
ATOM     16  C   UNL     1       7.410   1.025   2.262  0.00  0.00    +0.025 A 
ATOM     17  C   UNL     1       7.773   2.334   2.029  0.00  0.00    +0.002 A 
ATOM     18  C   UNL     1       8.385   3.075   3.023  0.00  0.00    +0.000 A 
ATOM     19  C   UNL     1       8.625   2.502   4.259  0.00  0.00    +0.005 A 
ENDBRANCH   8  11
ENDBRANCH   5   8
BRANCH   1  20
ATOM     20  C   UNL     1       2.104  -0.674   0.858  0.00  0.00    +0.340 C 
ATOM     21  O   UNL     1       2.693  -0.508  -0.192  0.00  0.00    -0.245 OA
BRANCH  20  22
ATOM     22  O   UNL     1       0.777  -0.456   0.928  0.00  0.00    -0.449 OA
BRANCH  22  24
ATOM     23  C   UNL     1       0.138   1.498  -0.343  0.00  0.00    +0.062 C 
ATOM     24  C   UNL     1       0.125  -0.030  -0.271  0.00  0.00    +0.259 C 
BRANCH  24  25
ATOM     25  C   UNL     1      -1.300  -0.521  -0.269  0.00  0.00    +0.261 C 
ATOM     26  O   UNL     1      -1.743  -1.092   0.704  0.00  0.00    -0.271 OA
ATOM     27  N   UNL     1      -2.081  -0.325  -1.349  0.00  0.00    -0.237 N 
ATOM     28  C   UNL     1      -3.355  -0.764  -1.348  0.00  0.00    +0.306 C 
ATOM     29  O   UNL     1      -3.800  -1.336  -0.372  0.00  0.00    -0.252 OA
ATOM     30  N   UNL     1      -4.137  -0.568  -2.428  0.00  0.00    -0.302 N 
ATOM     31  C   UNL     1      -5.522  -1.045  -2.427  0.00  0.00    +0.129 C 
ATOM     32  H   UNL     1      -1.726   0.133  -2.128  0.00  0.00    +0.159 HD
ATOM     33  H   UNL     1      -3.782  -0.110  -3.207  0.00  0.00    +0.150 HD
ENDBRANCH  24  25
ENDBRANCH  22  24
ENDBRANCH  20  22
ENDBRANCH   1  20
TORSDOF 6
