REMARK  Name = ZINC09246261
REMARK  13 active torsions:
REMARK  status: ('A' for Active; 'I' for Inactive)
REMARK    1  A    between atoms: C_1  and  C_2
REMARK    2  A    between atoms: C_2  and  O_3
REMARK    3  A    between atoms: O_3  and  C_4
REMARK    4  A    between atoms: C_13  and  C_20
REMARK    5  A    between atoms: C_14  and  C_16
REMARK    6  A    between atoms: C_16  and  O_18
REMARK    7  A    between atoms: O_18  and  C_19
REMARK    8  A    between atoms: C_20  and  O_22
REMARK    9  A    between atoms: O_22  and  C_23
REMARK   10  A    between atoms: C_26  and  C_33
REMARK   11  A    between atoms: C_26  and  C_34
REMARK   12  A    between atoms: C_28  and  C_30
REMARK   13  A    between atoms: C_31  and  C_32
REMARK                            x       y       z     vdW  Elec       q    Type
REMARK                         _______ _______ _______ _____ _____    ______ ____
ROOT
ATOM      1  C   UNL     1       3.353   4.687   1.151  0.00  0.00    +0.121 A 
ATOM      2  C   UNL     1       2.238   5.423   0.773  0.00  0.00    +0.047 A 
ATOM      3  C   UNL     1       0.972   4.871   0.862  0.00  0.00    +0.028 A 
ATOM      4  C   UNL     1       0.816   3.579   1.328  0.00  0.00    +0.045 A 
ATOM      5  C   UNL     1       1.939   2.833   1.714  0.00  0.00    +0.009 A 
ATOM      6  C   UNL     1       3.208   3.391   1.623  0.00  0.00    +0.056 A 
ATOM      7  C   UNL     1       1.740   1.453   2.215  0.00  0.00    +0.017 C 
ATOM      8  C   UNL     1       2.764   0.790   2.903  0.00  0.00    +0.059 C 
ATOM      9  S   UNL     1       4.326   1.424   3.465  0.00  0.00    -0.073 S 
ATOM     10  C   UNL     1       5.127   0.069   4.255  0.00  0.00    +0.118 C 
ATOM     11  C   UNL     1       4.399  -1.077   4.236  0.00  0.00    +0.118 C 
ATOM     12  S   UNL     1       2.841  -0.905   3.433  0.00  0.00    -0.073 S 
ATOM     13  C   UNL     1       0.510   0.823   1.990  0.00  0.00    +0.029 C 
ATOM     14  S   UNL     1       0.240  -0.762   2.578  0.00  0.00    -0.054 S 
ATOM     15  C   UNL     1      -0.577   1.538   1.229  0.00  0.00    +0.069 C 
ATOM     16  N   UNL     1      -0.451   2.987   1.425  0.00  0.00    -0.257 N 
ATOM     17  C   UNL     1      -1.538   3.738   1.693  0.00  0.00    +0.244 C 
ATOM     18  O   UNL     1      -2.636   3.219   1.750  0.00  0.00    -0.270 OA
ATOM     19  C   UNL     1      -0.454   1.214  -0.261  0.00  0.00    +0.037 C 
ATOM     20  C   UNL     1      -1.944   1.075   1.739  0.00  0.00    +0.037 C 
ENDROOT
BRANCH  17  21
ATOM     21  C   UNL     1      -1.395   5.184   1.916  0.00  0.00    +0.063 C 
ATOM     22  C   UNL     1      -2.477   5.948   2.038  0.00  0.00    -0.025 C 
ATOM     23  C   UNL     1      -2.331   7.431   2.267  0.00  0.00    +0.035 C 
ENDBRANCH  17  21
BRANCH  11  24
ATOM     24  C   UNL     1       4.866  -2.341   4.829  0.00  0.00    +0.347 C 
ATOM     25  O   UNL     1       5.909  -2.371   5.452  0.00  0.00    -0.244 OA
BRANCH  24  26
ATOM     26  O   UNL     1       4.137  -3.465   4.682  0.00  0.00    -0.464 OA
ATOM     27  C   UNL     1       4.658  -4.675   5.294  0.00  0.00    +0.280 C 
ENDBRANCH  24  26
ENDBRANCH  11  24
BRANCH  10  28
ATOM     28  C   UNL     1       6.461   0.167   4.872  0.00  0.00    +0.347 C 
ATOM     29  O   UNL     1       7.452  -0.106   4.224  0.00  0.00    -0.244 OA
BRANCH  28  30
ATOM     30  O   UNL     1       6.583   0.560   6.156  0.00  0.00    -0.464 OA
ATOM     31  C   UNL     1       7.928   0.634   6.698  0.00  0.00    +0.280 C 
ENDBRANCH  28  30
ENDBRANCH  10  28
BRANCH   1  32
ATOM     32  O   UNL     1       4.592   5.240   1.059  0.00  0.00    -0.492 OA
BRANCH  32  34
ATOM     33  C   UNL     1       6.133   7.026   0.534  0.00  0.00    +0.048 C 
ATOM     34  C   UNL     1       4.670   6.579   0.566  0.00  0.00    +0.225 C 
ENDBRANCH  32  34
ENDBRANCH   1  32
TORSDOF 7
