REMARK  Name = ZINC22573823
REMARK  11 active torsions:
REMARK  status: ('A' for Active; 'I' for Inactive)
REMARK    1  A    between atoms: C_1  and  C_2
REMARK    2  A    between atoms: C_3  and  C_31
REMARK    3  A    between atoms: C_4  and  C_21
REMARK    4  A    between atoms: C_10  and  C_11
REMARK    5  A    between atoms: C_15  and  O_17
REMARK    6  A    between atoms: C_26  and  O_27
REMARK    7  A    between atoms: O_27  and  C_28
REMARK    8  A    between atoms: C_28  and  C_29
REMARK    9  A    between atoms: C_28  and  C_30
REMARK   10  A    between atoms: C_31  and  O_33
REMARK   11  A    between atoms: O_33  and  C_34
REMARK                            x       y       z     vdW  Elec       q    Type
REMARK                         _______ _______ _______ _____ _____    ______ ____
ROOT
ATOM      1  C   UNL     1      -4.901  -0.099   4.210  0.00  0.00    +0.066 C 
ATOM      2  C   UNL     1      -5.244  -0.204   2.747  0.00  0.00    +0.053 C 
ATOM      3  C   UNL     1      -4.331   0.186   1.807  0.00  0.00    +0.085 C 
ATOM      4  C   UNL     1      -4.714   0.066   0.350  0.00  0.00    +0.165 C 
ATOM      5  N   UNL     1      -6.069  -0.474   0.046  0.00  0.00    -0.275 N 
ATOM      6  C   UNL     1      -6.588  -0.654  -1.176  0.00  0.00    +0.268 A 
ATOM      7  O   UNL     1      -5.952  -0.374  -2.175  0.00  0.00    -0.266 OA
ATOM      8  C   UNL     1      -7.950  -1.201  -1.273  0.00  0.00    +0.081 A 
ATOM      9  C   UNL     1      -8.693  -1.475  -2.375  0.00  0.00    +0.028 C 
ATOM     10  S   UNL     1      -8.361  -1.407   0.453  0.00  0.00    -0.046 S 
ATOM     11  C   UNL     1      -6.832  -0.806   1.142  0.00  0.00    +0.178 A 
ATOM     12  N   UNL     1      -6.430  -0.673   2.381  0.00  0.00    -0.228 NA
ENDROOT
BRANCH   9  13
ATOM     13  C   UNL     1      -9.987  -2.160  -2.238  0.00  0.00    -0.020 A 
ATOM     14  C   UNL     1     -10.963  -2.024  -3.232  0.00  0.00    +0.008 A 
ATOM     15  C   UNL     1     -12.175  -2.668  -3.098  0.00  0.00    +0.004 A 
ATOM     16  C   UNL     1     -12.429  -3.450  -1.985  0.00  0.00    +0.045 A 
ATOM     17  C   UNL     1     -11.468  -3.591  -0.993  0.00  0.00    +0.117 A 
ATOM     18  C   UNL     1     -10.245  -2.955  -1.117  0.00  0.00    +0.053 A 
BRANCH  17  19
ATOM     19  O   UNL     1     -11.725  -4.361   0.097  0.00  0.00    -0.507 OA
ATOM     20  H   UNL     1     -10.964  -4.473   0.883  0.00  0.00    +0.292 HD
ENDBRANCH  17  19
ENDBRANCH   9  13
BRANCH   4  21
ATOM     21  C   UNL     1      -4.610   1.435  -0.271  0.00  0.00    +0.022 A 
ATOM     22  C   UNL     1      -3.598   1.711  -1.170  0.00  0.00    +0.009 A 
ATOM     23  C   UNL     1      -3.502   2.966  -1.740  0.00  0.00    +0.001 A 
ATOM     24  C   UNL     1      -4.419   3.949  -1.415  0.00  0.00    +0.004 A 
ATOM     25  C   UNL     1      -5.436   3.676  -0.521  0.00  0.00    +0.046 A 
ATOM     26  C   UNL     1      -5.531   2.418   0.058  0.00  0.00    +0.126 A 
BRANCH  26  27
ATOM     27  O   UNL     1      -6.528   2.149   0.941  0.00  0.00    -0.489 OA
BRANCH  27  28
ATOM     28  C   UNL     1      -7.477   3.189   1.186  0.00  0.00    +0.167 C 
ATOM     29  C   UNL     1      -6.962   4.096   2.306  0.00  0.00    +0.051 C 
ATOM     30  C   UNL     1      -8.814   2.573   1.603  0.00  0.00    +0.051 C 
ENDBRANCH  27  28
ENDBRANCH  26  27
ENDBRANCH   4  21
BRANCH   3  31
ATOM     31  C   UNL     1      -3.074   0.685   2.185  0.00  0.00    +0.339 C 
ATOM     32  O   UNL     1      -2.831   0.900   3.359  0.00  0.00    -0.245 OA
BRANCH  31  33
ATOM     33  O   UNL     1      -2.133   0.927   1.246  0.00  0.00    -0.465 OA
ATOM     34  C   UNL     1      -0.841   1.325   1.709  0.00  0.00    +0.280 C 
ENDBRANCH  31  33
ENDBRANCH   3  31
TORSDOF 7
