REMARK  Name = ZINC32748091
REMARK  10 active torsions:
REMARK  status: ('A' for Active; 'I' for Inactive)
REMARK    1  A    between atoms: C_1  and  C_2
REMARK    2  A    between atoms: C_2  and  C_3
REMARK    3  A    between atoms: C_3  and  C_27
REMARK    4  A    between atoms: N_6  and  N_10
REMARK    5  A    between atoms: C_11  and  C_13
REMARK    6  A    between atoms: C_13  and  C_14
REMARK    7  A    between atoms: C_20  and  C_24
REMARK    8  A    between atoms: C_21  and  C_23
REMARK    9  A    between atoms: C_24  and  C_25
REMARK   10  A    between atoms: C_24  and  C_26
REMARK                            x       y       z     vdW  Elec       q    Type
REMARK                         _______ _______ _______ _____ _____    ______ ____
ROOT
ATOM      1  N   UNL     1      -3.273   3.079   1.267  0.00  0.00    -0.223 N 
ATOM      2  C   UNL     1      -2.127   2.374   1.189  0.00  0.00    +0.234 C 
ATOM      3  O   UNL     1      -1.690   1.816   2.173  0.00  0.00    -0.274 OA
ATOM      4  H   UNL     1      -3.670   3.585   0.375  0.00  0.00    +0.174 HD
ENDROOT
BRANCH   1   8
ATOM      5  C   UNL     1      -4.831   3.902   4.465  0.00  0.00    +0.139 C 
ATOM      6  C   UNL     1      -3.971   4.263   3.270  0.00  0.00    +0.268 C 
ATOM      7  O   UNL     1      -3.411   5.318   3.063  0.00  0.00    -0.271 OA
ATOM      8  N   UNL     1      -3.959   3.167   2.485  0.00  0.00    -0.137 N 
ATOM      9  C   UNL     1      -4.689   2.176   3.011  0.00  0.00    +0.327 C 
ATOM     10  O   UNL     1      -4.832   1.091   2.484  0.00  0.00    -0.251 OA
ATOM     11  N   UNL     1      -5.242   2.515   4.189  0.00  0.00    -0.280 N 
ATOM     12  H   UNL     1      -5.884   1.979   4.904  0.00  0.00    +0.152 HD
BRANCH   5  13
ATOM     13  C   UNL     1      -6.034   4.806   4.545  0.00  0.00    -0.015 A 
ATOM     14  C   UNL     1      -5.971   5.977   5.277  0.00  0.00    +0.006 A 
ATOM     15  C   UNL     1      -7.073   6.808   5.347  0.00  0.00    +0.000 A 
ATOM     16  C   UNL     1      -8.241   6.464   4.693  0.00  0.00    +0.000 A 
ATOM     17  C   UNL     1      -8.306   5.290   3.966  0.00  0.00    +0.000 A 
ATOM     18  C   UNL     1      -7.202   4.461   3.892  0.00  0.00    +0.006 A 
ENDBRANCH   5  13
BRANCH   5  20
ATOM     19  C   UNL     1      -2.831   3.013   5.671  0.00  0.00    +0.007 C 
ATOM     20  C   UNL     1      -4.015   3.978   5.758  0.00  0.00    +0.037 C 
ENDBRANCH   5  20
ENDBRANCH   1   8
BRANCH   2  21
ATOM     21  C   UNL     1      -1.389   2.279  -0.122  0.00  0.00    +0.136 C 
BRANCH  21  22
ATOM     22  C   UNL     1      -0.150   1.441   0.059  0.00  0.00    +0.007 A 
ATOM     23  C   UNL     1       1.090   1.883   0.309  0.00  0.00    +0.200 A 
ATOM     24  O   UNL     1       1.941   0.846   0.403  0.00  0.00    -0.463 OA
ATOM     25  C   UNL     1       1.296  -0.324   0.218  0.00  0.00    +0.135 A 
ATOM     26  C   UNL     1      -0.057  -0.022  -0.010  0.00  0.00    +0.024 A 
ATOM     27  C   UNL     1      -0.975  -1.047  -0.236  0.00  0.00    +0.016 A 
ATOM     28  C   UNL     1      -0.546  -2.356  -0.236  0.00  0.00    -0.041 A 
ATOM     29  C   UNL     1       0.790  -2.655  -0.011  0.00  0.00    -0.044 A 
ATOM     30  C   UNL     1       1.707  -1.650   0.214  0.00  0.00    +0.050 A 
ATOM     31  C   UNL     1       1.243  -4.092  -0.013  0.00  0.00    +0.044 C 
BRANCH  28  32
ATOM     32  C   UNL     1      -1.533  -3.469  -0.480  0.00  0.00    +0.013 C 
ATOM     33  C   UNL     1      -2.536  -3.523   0.674  0.00  0.00    +0.012 C 
ATOM     34  C   UNL     1      -2.278  -3.211  -1.791  0.00  0.00    +0.012 C 
ENDBRANCH  28  32
ENDBRANCH  21  22
ENDBRANCH   2  21
TORSDOF 6
