REMARK  Name = ZINC64342636
REMARK  4 active torsions:
REMARK  status: ('A' for Active; 'I' for Inactive)
REMARK    1  A    between atoms: C_1  and  C_2
REMARK    2  A    between atoms: C_8  and  C_10
REMARK    3  A    between atoms: C_13  and  N_16
REMARK    4  A    between atoms: C_17  and  C_19
REMARK                            x       y       z     vdW  Elec       q    Type
REMARK                         _______ _______ _______ _____ _____    ______ ____
ROOT
ATOM      1  C   UNL     1       2.525  -2.650  -0.009  0.00  0.00    +0.017 A 
ATOM      2  C   UNL     1       2.605  -4.036   0.157  0.00  0.00    +0.013 A 
ATOM      3  C   UNL     1       3.833  -4.659   0.142  0.00  0.00    +0.024 A 
ATOM      4  C   UNL     1       4.992  -3.912  -0.039  0.00  0.00    +0.034 A 
ATOM      5  C   UNL     1       4.916  -2.533  -0.204  0.00  0.00    +0.024 A 
ATOM      6  C   UNL     1       3.692  -1.903  -0.195  0.00  0.00    +0.013 A 
ENDROOT
BRANCH   1  14
ATOM      7  C   UNL     1      -0.045   1.468  -0.338  0.00  0.00    +0.066 C 
ATOM      8  C   UNL     1      -0.014  -0.026  -0.149  0.00  0.00    +0.046 A 
ATOM      9  C   UNL     1      -1.178  -0.715   0.030  0.00  0.00    +0.093 A 
ATOM     10  C   UNL     1      -1.123  -2.111   0.205  0.00  0.00    +0.252 A 
ATOM     11  O   UNL     1      -2.145  -2.758   0.367  0.00  0.00    -0.268 OA
ATOM     12  N   UNL     1       0.082  -2.720   0.190  0.00  0.00    -0.307 N 
ATOM     13  H   UNL     1       0.144  -3.681   0.308  0.00  0.00    +0.170 HD
ATOM     14  C   UNL     1       1.212  -1.978   0.007  0.00  0.00    +0.141 A 
ATOM     15  N   UNL     1       1.150  -0.673  -0.161  0.00  0.00    -0.234 NA
ENDBRANCH   1  14
BRANCH   4  16
ATOM     16  N   UNL     1       6.234  -4.547  -0.054  0.00  0.00    -0.282 N 
ATOM     17  C   UNL     1       6.349  -5.791  -0.560  0.00  0.00    +0.258 C 
ATOM     18  O   UNL     1       5.394  -6.321  -1.088  0.00  0.00    -0.271 OA
ATOM     19  H   UNL     1       7.015  -4.094   0.299  0.00  0.00    +0.155 HD
BRANCH  17  20
ATOM     20  C   UNL     1       7.662  -6.524  -0.469  0.00  0.00    +0.263 C 
ATOM     21  C   UNL     1       7.965  -6.927   0.994  0.00  0.00    +0.093 C 
ATOM     22  C   UNL     1       7.391  -8.329   1.058  0.00  0.00    -0.000 A 
ATOM     23  C   UNL     1       7.077  -9.152   2.116  0.00  0.00    +0.027 A 
ATOM     24  C   UNL     1       6.546 -10.409   1.881  0.00  0.00    +0.041 A 
ATOM     25  C   UNL     1       6.335 -10.833   0.581  0.00  0.00    +0.023 A 
ATOM     26  C   UNL     1       6.652 -10.011  -0.480  0.00  0.00    +0.047 A 
ATOM     27  C   UNL     1       7.189  -8.746  -0.252  0.00  0.00    +0.125 A 
ATOM     28  O   UNL     1       7.586  -7.793  -1.139  0.00  0.00    -0.479 OA
ATOM     29 CL   UNL     1       6.149 -11.451   3.212  0.00  0.00    -0.084 Cl
ENDBRANCH  17  20
ENDBRANCH   4  16
TORSDOF 3
