REMARK  Name = ZINC39451381
REMARK  1 active torsions:
REMARK  status: ('A' for Active; 'I' for Inactive)
REMARK    1  A    between atoms: C_2  and  O_20
REMARK                            x       y       z     vdW  Elec       q    Type
REMARK                         _______ _______ _______ _____ _____    ______ ____
ROOT
ATOM      1  C   UNL     1      -0.017   1.390   0.010  0.00  0.00    +0.062 A 
ATOM      2  C   UNL     1       1.202   2.058   0.002  0.00  0.00    +0.136 A 
ATOM      3  C   UNL     1       2.386   1.324  -0.013  0.00  0.00    +0.156 A 
ATOM      4  N   UNL     1       2.378   0.009  -0.020  0.00  0.00    -0.249 NA
ATOM      5  C   UNL     1       1.243  -0.678  -0.012  0.00  0.00    +0.099 A 
ATOM      6  C   UNL     1       0.002  -0.004   0.002  0.00  0.00    +0.071 A 
ATOM      7  C   UNL     1      -1.237  -0.795   0.008  0.00  0.00    +0.271 A 
ATOM      8  O   UNL     1      -2.317  -0.233   0.022  0.00  0.00    -0.266 OA
ATOM      9  N   UNL     1      -1.178  -2.139  -0.002  0.00  0.00    -0.237 N 
ATOM     10  C   UNL     1       0.029  -2.826  -0.018  0.00  0.00    +0.122 A 
ATOM     11  C   UNL     1       1.234  -2.147  -0.018  0.00  0.00    +0.083 A 
ATOM     12  N   UNL     1       2.423  -2.852  -0.019  0.00  0.00    -0.328 N 
ATOM     13  C   UNL     1       2.431  -4.205   0.557  0.00  0.00    +0.146 C 
ATOM     14  C   UNL     1       1.310  -5.015  -0.105  0.00  0.00    +0.115 C 
ATOM     15  C   UNL     1       0.021  -4.239  -0.030  0.00  0.00    +0.185 C 
ATOM     16  O   UNL     1      -1.037  -4.834   0.022  0.00  0.00    -0.290 OA
ATOM     17 BR   UNL     1       2.120  -4.103   2.496  0.00  0.00    -0.067 Br
ATOM     18 BR   UNL     1      -2.757  -3.104   0.006  0.00  0.00    +0.058 Br
ATOM     19  H   UNL     1       3.231  -2.464  -0.390  0.00  0.00    +0.147 HD
ENDROOT
BRANCH   2  20
ATOM     20  O   UNL     1       1.238   3.415   0.008  0.00  0.00    -0.505 OA
ATOM     21  H   UNL     1       1.257   3.804   0.893  0.00  0.00    +0.292 HD
ENDBRANCH   2  20
TORSDOF 1
