REMARK  Name = ZINC04325733
REMARK  10 active torsions:
REMARK  status: ('A' for Active; 'I' for Inactive)
REMARK    1  A    between atoms: C_1  and  C_2
REMARK    2  A    between atoms: C_2  and  C_3
REMARK    3  A    between atoms: C_3  and  O_4
REMARK    4  A    between atoms: O_4  and  C_5
REMARK    5  A    between atoms: C_8  and  N_11
REMARK    6  A    between atoms: C_16  and  C_30
REMARK    7  A    between atoms: N_18  and  C_24
REMARK    8  A    between atoms: C_33  and  O_38
REMARK    9  A    between atoms: C_34  and  O_36
REMARK   10  A    between atoms: O_36  and  C_37
REMARK                            x       y       z     vdW  Elec       q    Type
REMARK                         _______ _______ _______ _____ _____    ______ ____
ROOT
ATOM      1  N   UNL     1       3.299  -4.440   5.465  0.00  0.00    -0.208 N 
ATOM      2  C   UNL     1       3.408  -5.802   5.589  0.00  0.00    +0.235 C 
ATOM      3  O   UNL     1       3.186  -6.641   4.742  0.00  0.00    -0.274 OA
ATOM      4  C   UNL     1       3.843  -6.018   6.947  0.00  0.00    +0.145 C 
ATOM      5  C   UNL     1       4.518  -7.038   7.766  0.00  0.00    +0.157 C 
ATOM      6  N   UNL     1       5.076  -6.224   8.893  0.00  0.00    -0.244 N 
ATOM      7  O   UNL     1       4.773  -4.837   8.622  0.00  0.00    -0.257 OA
ATOM      8  C   UNL     1       4.781  -4.767   7.184  0.00  0.00    +0.249 C 
ATOM      9  C   UNL     1       3.891  -3.768   6.496  0.00  0.00    +0.259 C 
ATOM     10  O   UNL     1       3.731  -2.605   6.797  0.00  0.00    -0.272 OA
ENDROOT
BRANCH   1  14
ATOM     11  C   UNL     1       1.385  -2.554   2.273  0.00  0.00    +0.121 A 
ATOM     12  C   UNL     1       1.961  -1.796   3.283  0.00  0.00    +0.047 A 
ATOM     13  C   UNL     1       2.595  -2.420   4.339  0.00  0.00    +0.027 A 
ATOM     14  C   UNL     1       2.655  -3.806   4.392  0.00  0.00    +0.044 A 
ATOM     15  C   UNL     1       2.079  -4.564   3.382  0.00  0.00    +0.027 A 
ATOM     16  C   UNL     1       1.441  -3.939   2.328  0.00  0.00    +0.047 A 
BRANCH  11  17
ATOM     17  O   UNL     1       0.761  -1.940   1.234  0.00  0.00    -0.492 OA
BRANCH  17  18
ATOM     18  C   UNL     1       0.742  -0.511   1.242  0.00  0.00    +0.229 C 
BRANCH  18  20
ATOM     19  C   UNL     1      -0.019   1.526   0.010  0.00  0.00    +0.007 C 
ATOM     20  C   UNL     1       0.002  -0.004   0.002  0.00  0.00    +0.038 C 
ENDBRANCH  18  20
ENDBRANCH  17  18
ENDBRANCH  11  17
ENDBRANCH   1  14
BRANCH   6  21
ATOM     21  C   UNL     1       5.763  -6.716  10.005  0.00  0.00    +0.065 A 
ATOM     22  C   UNL     1       5.989  -8.080  10.136  0.00  0.00    +0.028 A 
ATOM     23  C   UNL     1       6.670  -8.563  11.236  0.00  0.00    +0.002 A 
ATOM     24  C   UNL     1       7.126  -7.691  12.207  0.00  0.00    +0.000 A 
ATOM     25  C   UNL     1       6.903  -6.332  12.080  0.00  0.00    +0.002 A 
ATOM     26  C   UNL     1       6.228  -5.841  10.980  0.00  0.00    +0.028 A 
ENDBRANCH   6  21
BRANCH   5  27
ATOM     27  C   UNL     1       3.530  -8.057   8.273  0.00  0.00    -0.018 A 
ATOM     28  C   UNL     1       2.739  -7.766   9.369  0.00  0.00    +0.009 A 
ATOM     29  C   UNL     1       1.832  -8.698   9.838  0.00  0.00    +0.049 A 
ATOM     30  C   UNL     1       1.714  -9.927   9.208  0.00  0.00    +0.158 A 
ATOM     31  C   UNL     1       2.509 -10.220   8.105  0.00  0.00    +0.162 A 
ATOM     32  C   UNL     1       3.413  -9.279   7.637  0.00  0.00    +0.055 A 
BRANCH  31  33
ATOM     33  O   UNL     1       2.397 -11.424   7.484  0.00  0.00    -0.491 OA
ATOM     34  C   UNL     1       3.245 -11.655   6.358  0.00  0.00    +0.277 C 
ENDBRANCH  31  33
BRANCH  30  35
ATOM     35  O   UNL     1       0.822 -10.845   9.668  0.00  0.00    -0.503 OA
ATOM     36  H   UNL     1      -0.055 -10.777   9.267  0.00  0.00    +0.292 HD
ENDBRANCH  30  35
ENDBRANCH   5  27
TORSDOF 8
