REMARK  Name = ZINC36019130
REMARK  8 active torsions:
REMARK  status: ('A' for Active; 'I' for Inactive)
REMARK    1  A    between atoms: C_1  and  C_2
REMARK    2  A    between atoms: C_2  and  C_4
REMARK    3  A    between atoms: C_2  and  N_19
REMARK    4  A    between atoms: N_6  and  N_7
REMARK    5  A    between atoms: C_8  and  C_9
REMARK    6  A    between atoms: C_11  and  N_16
REMARK    7  A    between atoms: C_14  and  O_15
REMARK    8  A    between atoms: N_19  and  C_20
REMARK                            x       y       z     vdW  Elec       q    Type
REMARK                         _______ _______ _______ _____ _____    ______ ____
ROOT
ATOM      1  C   UNL     1       0.731  -0.503   1.223  0.00  0.00    +0.252 C 
ATOM      2  O   UNL     1       0.159  -1.213   2.023  0.00  0.00    -0.272 OA
ATOM      3  N   UNL     1       2.019  -0.161   1.426  0.00  0.00    -0.205 N 
ATOM      4  H   UNL     1       2.476   0.406   0.786  0.00  0.00    +0.177 HD
ENDROOT
BRANCH   1   6
ATOM      5  C   UNL     1      -0.019   1.526   0.010  0.00  0.00    +0.038 C 
ATOM      6  C   UNL     1       0.002  -0.004   0.002  0.00  0.00    +0.155 C 
BRANCH   6   7
ATOM      7  N   UNL     1      -1.372  -0.511   0.012  0.00  0.00    -0.333 N 
ATOM      8  H   UNL     1      -1.794  -0.752   0.852  0.00  0.00    +0.147 HD
BRANCH   7   9
ATOM      9  C   UNL     1      -2.074  -0.647  -1.184  0.00  0.00    +0.035 A 
ATOM     10  C   UNL     1      -1.478  -0.312  -2.381  0.00  0.00    +0.023 A 
ATOM     11  C   UNL     1      -2.170  -0.444  -3.581  0.00  0.00    +0.002 A 
ATOM     12  C   UNL     1      -3.450  -0.907  -3.607  0.00  0.00    +0.008 A 
ATOM     13  C   UNL     1      -4.094  -1.260  -2.409  0.00  0.00    -0.016 A 
ATOM     14  C   UNL     1      -3.398  -1.135  -1.181  0.00  0.00    +0.003 A 
ATOM     15  C   UNL     1      -4.040  -1.493   0.015  0.00  0.00    +0.010 A 
ATOM     16  C   UNL     1      -5.319  -1.959  -0.021  0.00  0.00    +0.001 A 
ATOM     17  C   UNL     1      -6.002  -2.088  -1.228  0.00  0.00    +0.001 A 
ATOM     18  C   UNL     1      -5.415  -1.740  -2.406  0.00  0.00    +0.008 A 
ENDBRANCH   7   9
ENDBRANCH   6   7
ENDBRANCH   1   6
BRANCH   3  19
ATOM     19  N   UNL     1       2.696  -0.625   2.561  0.00  0.00    -0.188 NA
ATOM     20  C   UNL     1       3.937  -0.296   2.756  0.00  0.00    +0.142 C 
BRANCH  20  21
ATOM     21  C   UNL     1       4.649  -0.784   3.950  0.00  0.00    +0.038 A 
ATOM     22  C   UNL     1       5.982  -0.427   4.167  0.00  0.00    +0.045 A 
ATOM     23  C   UNL     1       6.643  -0.887   5.287  0.00  0.00    +0.127 A 
ATOM     24  C   UNL     1       5.991  -1.702   6.197  0.00  0.00    +0.036 A 
ATOM     25  C   UNL     1       4.673  -2.062   5.993  0.00  0.00    +0.048 A 
ATOM     26  C   UNL     1       3.992  -1.604   4.877  0.00  0.00    +0.126 A 
BRANCH  23  27
ATOM     27  N   UNL     1       8.056  -0.509   5.516  0.00  0.00    +0.056 N 
ATOM     28  O   UNL     1       8.627   0.202   4.722  0.00  0.00    -0.126 OA
ATOM     29  O   UNL     1       8.638  -0.911   6.496  0.00  0.00    -0.126 OA
ENDBRANCH  23  27
BRANCH  26  30
ATOM     30  O   UNL     1       2.694  -1.953   4.679  0.00  0.00    -0.506 OA
ATOM     31  H   UNL     1       2.579  -2.769   4.174  0.00  0.00    +0.292 HD
ENDBRANCH  26  30
ENDBRANCH  20  21
ENDBRANCH   3  19
TORSDOF 7
