REMARK  Name = ZINC39931031
REMARK  5 active torsions:
REMARK  status: ('A' for Active; 'I' for Inactive)
REMARK    1  A    between atoms: C_1  and  C_2
REMARK    2  A    between atoms: C_5  and  C_8
REMARK    3  A    between atoms: C_8  and  C_10
REMARK    4  A    between atoms: N_27  and  C_33
REMARK    5  A    between atoms: C_33  and  C_34
REMARK                            x       y       z     vdW  Elec       q    Type
REMARK                         _______ _______ _______ _____ _____    ______ ____
ROOT
ATOM      1  C   UNL     1       0.406  -5.065   1.292  0.00  0.00    +0.105 C 
ATOM      2  C   UNL     1       0.043  -6.544   1.054  0.00  0.00    +0.125 C 
ATOM      3  C   UNL     1       0.296  -7.363   2.314  0.00  0.00    +0.161 C 
ATOM      4  N   UNL     1       1.669  -7.286   2.802  0.00  0.00    -0.274 NA
ATOM      5  C   UNL     1       2.014  -5.918   3.205  0.00  0.00    +0.178 C 
ATOM      6  C   UNL     1       1.738  -5.049   1.997  0.00  0.00    -0.013 C 
ATOM      7  C   UNL     1       2.858  -4.380   1.763  0.00  0.00    +0.001 A 
ATOM      8  C   UNL     1       3.184  -3.317   0.798  0.00  0.00    +0.010 A 
ATOM      9  C   UNL     1       4.464  -2.861   0.816  0.00  0.00    +0.001 A 
ATOM     10  C   UNL     1       5.443  -3.351   1.687  0.00  0.00    +0.002 A 
ATOM     11  C   UNL     1       5.230  -4.320   2.612  0.00  0.00    +0.026 A 
ATOM     12  C   UNL     1       3.918  -4.870   2.697  0.00  0.00    +0.044 A 
ATOM     13  N   UNL     1       3.439  -5.762   3.501  0.00  0.00    -0.365 N 
ATOM     14  N   UNL     1      -0.659  -6.995   3.354  0.00  0.00    -0.265 N 
ATOM     15  C   UNL     1      -1.932  -6.699   3.029  0.00  0.00    +0.310 C 
ATOM     16  O   UNL     1      -2.739  -6.487   3.913  0.00  0.00    -0.252 OA
ATOM     17  N   UNL     1      -2.327  -6.632   1.747  0.00  0.00    -0.240 N 
ATOM     18  C   UNL     1      -1.433  -6.603   0.721  0.00  0.00    +0.228 C 
ATOM     19  O   UNL     1      -1.799  -6.629  -0.435  0.00  0.00    -0.275 OA
ATOM     20  H   UNL     1       3.935  -6.252   4.175  0.00  0.00    +0.161 HD
ATOM     21  H   UNL     1       1.821  -7.935   3.560  0.00  0.00    +0.126 HD
ATOM     22  H   UNL     1      -3.275  -6.604   1.543  0.00  0.00    +0.159 HD
ENDROOT
BRANCH   1  23
ATOM     23  C   UNL     1       0.512  -4.342  -0.026  0.00  0.00    +0.171 C 
ATOM     24  O   UNL     1       0.750  -4.963  -1.040  0.00  0.00    -0.291 OA
BRANCH  23  29
ATOM     25  C   UNL     1      -0.210   1.357  -0.245  0.00  0.00    +0.044 C 
ATOM     26  C   UNL     1      -0.020  -0.137  -0.188  0.00  0.00    -0.050 A 
ATOM     27  C   UNL     1       0.252  -0.842  -1.347  0.00  0.00    +0.004 A 
ATOM     28  C   UNL     1       0.426  -2.209  -1.303  0.00  0.00    +0.011 A 
ATOM     29  C   UNL     1       0.328  -2.883  -0.082  0.00  0.00    +0.018 A 
ATOM     30  C   UNL     1       0.054  -2.164   1.086  0.00  0.00    +0.011 A 
ATOM     31  C   UNL     1      -0.113  -0.796   1.026  0.00  0.00    +0.004 A 
ENDBRANCH  23  29
ENDBRANCH   1  23
BRANCH  14  32
ATOM     32  C   UNL     1      -0.233  -6.949   4.755  0.00  0.00    +0.146 C 
BRANCH  32  33
ATOM     33  C   UNL     1      -0.601  -8.242   5.435  0.00  0.00    -0.030 A 
ATOM     34  C   UNL     1      -1.782  -8.337   6.148  0.00  0.00    +0.005 A 
ATOM     35  C   UNL     1      -2.119  -9.524   6.772  0.00  0.00    +0.000 A 
ATOM     36  C   UNL     1      -1.277 -10.616   6.683  0.00  0.00    +0.000 A 
ATOM     37  C   UNL     1      -0.096 -10.521   5.969  0.00  0.00    +0.000 A 
ATOM     38  C   UNL     1       0.239  -9.336   5.342  0.00  0.00    +0.005 A 
ENDBRANCH  32  33
ENDBRANCH  14  32
TORSDOF 4
