REMARK  Name = ZINC64085469
REMARK  4 active torsions:
REMARK  status: ('A' for Active; 'I' for Inactive)
REMARK    1  A    between atoms: C_4  and  C_7
REMARK    2  A    between atoms: C_7  and  C_8
REMARK    3  A    between atoms: C_14  and  C_15
REMARK    4  A    between atoms: N_17  and  C_18
REMARK                            x       y       z     vdW  Elec       q    Type
REMARK                         _______ _______ _______ _____ _____    ______ ____
ROOT
ATOM      1  C   UNL     1       8.066  -2.590   1.956  0.00  0.00    +0.243 C 
ATOM      2  O   UNL     1       7.936  -2.032   0.881  0.00  0.00    -0.270 OA
ATOM      3  N   UNL     1       9.296  -2.762   2.481  0.00  0.00    -0.282 N 
ATOM      4  H   UNL     1       9.406  -3.271   3.299  0.00  0.00    +0.155 HD
ENDROOT
BRANCH   3   5
ATOM      5  C   UNL     1      10.413  -2.208   1.844  0.00  0.00    +0.036 A 
ATOM      6  C   UNL     1      11.601  -2.926   1.776  0.00  0.00    +0.027 A 
ATOM      7  C   UNL     1      12.706  -2.385   1.150  0.00  0.00    +0.050 A 
ATOM      8  C   UNL     1      12.633  -1.120   0.586  0.00  0.00    +0.157 A 
ATOM      9  C   UNL     1      11.441  -0.398   0.653  0.00  0.00    +0.089 A 
ATOM     10  C   UNL     1      10.332  -0.944   1.277  0.00  0.00    +0.052 A 
ATOM     11  N   UNL     1      11.675   0.817   0.009  0.00  0.00    -0.288 N 
ATOM     12  H   UNL     1      11.034   1.536  -0.108  0.00  0.00    +0.172 HD
ATOM     13  C   UNL     1      12.952   0.810  -0.419  0.00  0.00    +0.419 A 
ATOM     14  O   UNL     1      13.496   1.715  -1.023  0.00  0.00    -0.223 OA
ATOM     15  O   UNL     1      13.533  -0.351  -0.076  0.00  0.00    -0.408 OA
ENDBRANCH   3   5
BRANCH   1  21
ATOM     16  C   UNL     1       4.240  -2.081   0.397  0.00  0.00    +0.133 C 
ATOM     17  N   UNL     1       5.560  -2.626   0.784  0.00  0.00    -0.334 N 
ATOM     18  C   UNL     1       5.711  -2.998   2.073  0.00  0.00    +0.020 C 
ATOM     19  C   UNL     1       4.447  -3.349   2.840  0.00  0.00    +0.121 C 
ATOM     20  S   UNL     1       3.147  -2.973   1.586  0.00  0.00    -0.132 S 
ATOM     21  C   UNL     1       6.928  -3.057   2.653  0.00  0.00    +0.086 C 
ATOM     22  H   UNL     1       6.282  -2.713   0.143  0.00  0.00    +0.147 HD
BRANCH  16  23
ATOM     23  C   UNL     1       3.895  -2.441  -1.049  0.00  0.00    +0.068 C 
BRANCH  23  27
ATOM     24  C   UNL     1       0.112  -0.744  -2.077  0.00  0.00    +0.000 A 
ATOM     25  C   UNL     1       1.273  -0.024  -2.288  0.00  0.00    +0.000 A 
ATOM     26  C   UNL     1       2.497  -0.573  -1.956  0.00  0.00    +0.004 A 
ATOM     27  C   UNL     1       2.560  -1.842  -1.411  0.00  0.00    -0.045 A 
ATOM     28  C   UNL     1       1.399  -2.562  -1.200  0.00  0.00    +0.004 A 
ATOM     29  C   UNL     1       0.175  -2.013  -1.534  0.00  0.00    +0.000 A 
ENDBRANCH  23  27
ENDBRANCH  16  23
ENDBRANCH   1  21
TORSDOF 4
