REMARK  Name = ZINC39747206
REMARK  9 active torsions:
REMARK  status: ('A' for Active; 'I' for Inactive)
REMARK    1  A    between atoms: C_1  and  C_2
REMARK    2  A    between atoms: C_2  and  C_3
REMARK    3  A    between atoms: C_2  and  C_4
REMARK    4  A    between atoms: C_2  and  C_5
REMARK    5  A    between atoms: C_8  and  O_11
REMARK    6  A    between atoms: O_11  and  C_12
REMARK    7  A    between atoms: C_14  and  C_25
REMARK    8  A    between atoms: C_26  and  C_27
REMARK    9  A    between atoms: C_26  and  C_29
REMARK                            x       y       z     vdW  Elec       q    Type
REMARK                         _______ _______ _______ _____ _____    ______ ____
ROOT
ATOM      1  C   UNL     1       4.000  -1.423  -4.801  0.00  0.00    +0.308 C 
ATOM      2  C   UNL     1       4.618  -2.208  -5.960  0.00  0.00    +0.163 C 
ATOM      3  C   UNL     1       4.079  -1.670  -7.262  0.00  0.00    +0.237 C 
ATOM      4  O   UNL     1       3.867  -2.421  -8.190  0.00  0.00    -0.274 OA
ATOM      5  N   UNL     1       3.835  -0.351  -7.388  0.00  0.00    -0.231 N 
ATOM      6  C   UNL     1       3.488   0.160  -8.614  0.00  0.00    +0.085 C 
ATOM      7  C   UNL     1       3.363   1.489  -8.793  0.00  0.00    +0.016 C 
ATOM      8  C   UNL     1       3.587   2.377  -7.723  0.00  0.00    +0.005 C 
ATOM      9  C   UNL     1       3.872   1.889  -6.490  0.00  0.00    +0.044 C 
ATOM     10  C   UNL     1       3.940   0.485  -6.296  0.00  0.00    +0.130 C 
ATOM     11  N   UNL     1       4.055   0.009  -5.084  0.00  0.00    -0.225 NA
ENDROOT
BRANCH   2  12
ATOM     12  C   UNL     1       6.117  -2.053  -5.931  0.00  0.00    +0.010 C 
ATOM     13  C   UNL     1       6.893  -3.126  -5.801  0.00  0.00    +0.068 C 
BRANCH  13  14
ATOM     14  C   UNL     1       8.392  -2.971  -5.772  0.00  0.00    +0.216 C 
ATOM     15  N   UNL     1       9.003  -3.779  -6.836  0.00  0.00    -0.359 N 
ATOM     16  C   UNL     1       9.788  -4.646  -6.266  0.00  0.00    +0.060 A 
ATOM     17  C   UNL     1      10.656  -5.707  -6.795  0.00  0.00    +0.027 A 
ATOM     18  C   UNL     1      11.372  -6.468  -5.943  0.00  0.00    +0.002 A 
ATOM     19  C   UNL     1      11.327  -6.292  -4.549  0.00  0.00    +0.002 A 
ATOM     20  C   UNL     1      10.564  -5.349  -3.960  0.00  0.00    +0.027 A 
ATOM     21  C   UNL     1       9.741  -4.460  -4.790  0.00  0.00    +0.060 A 
ATOM     22  N   UNL     1       8.927  -3.484  -4.505  0.00  0.00    -0.359 N 
ATOM     23  H   UNL     1       8.848  -3.683  -7.789  0.00  0.00    +0.162 HD
ATOM     24  H   UNL     1       8.714  -3.156  -3.617  0.00  0.00    +0.162 HD
ENDBRANCH  13  14
BRANCH  13  25
ATOM     25  C   UNL     1       6.305  -4.426  -5.689  0.00  0.00    +0.098 C 
ATOM     26  N   UNL     1       5.839  -5.458  -5.601  0.00  0.00    -0.191 NA
ENDBRANCH  13  25
ENDBRANCH   2  12
BRANCH   1  27
ATOM     27  O   UNL     1       2.639  -1.822  -4.631  0.00  0.00    -0.466 OA
BRANCH  27  31
ATOM     28  C   UNL     1       0.707  -0.490  -1.238  0.00  0.00    -0.042 A 
ATOM     29  C   UNL     1       0.035  -1.284  -2.148  0.00  0.00    +0.008 A 
ATOM     30  C   UNL     1       0.679  -1.732  -3.285  0.00  0.00    +0.046 A 
ATOM     31  C   UNL     1       2.002  -1.383  -3.514  0.00  0.00    +0.123 A 
ATOM     32  C   UNL     1       2.675  -0.585  -2.599  0.00  0.00    +0.046 A 
ATOM     33  C   UNL     1       2.024  -0.136  -1.466  0.00  0.00    +0.008 A 
BRANCH  28  35
ATOM     34  C   UNL     1      -0.019   1.526   0.010  0.00  0.00    +0.015 C 
ATOM     35  C   UNL     1       0.002  -0.004   0.002  0.00  0.00    -0.013 C 
ATOM     36  C   UNL     1       0.742  -0.511   1.242  0.00  0.00    +0.015 C 
ATOM     37  C   UNL     1      -1.433  -0.534   0.013  0.00  0.00    +0.015 C 
ENDBRANCH  28  35
ENDBRANCH  27  31
ENDBRANCH   1  27
TORSDOF 6
