REMARK  Name = ZINC34970290
REMARK  10 active torsions:
REMARK  status: ('A' for Active; 'I' for Inactive)
REMARK    1  A    between atoms: C_1  and  C_2
REMARK    2  A    between atoms: C_2  and  C_3
REMARK    3  A    between atoms: C_2  and  C_4
REMARK    4  A    between atoms: C_2  and  C_5
REMARK    5  A    between atoms: C_8  and  C_11
REMARK    6  A    between atoms: C_11  and  N_12
REMARK    7  A    between atoms: N_12  and  C_13
REMARK    8  A    between atoms: N_16  and  C_19
REMARK    9  A    between atoms: C_19  and  C_20
REMARK   10  A    between atoms: C_26  and  C_28
REMARK                            x       y       z     vdW  Elec       q    Type
REMARK                         _______ _______ _______ _____ _____    ______ ____
ROOT
ATOM      1  N   UNL     1       1.905  -0.752  -5.798  0.00  0.00    -0.290 N 
ATOM      2  C   UNL     1       1.477  -1.548  -6.798  0.00  0.00    +0.250 C 
ATOM      3  O   UNL     1       1.412  -2.750  -6.632  0.00  0.00    -0.270 OA
ENDROOT
BRANCH   1   4
ATOM      4  C   UNL     1       2.771   0.393  -6.093  0.00  0.00    +0.073 C 
ATOM      5  C   UNL     1       1.916   1.578  -6.551  0.00  0.00    +0.004 C 
ATOM      6  C   UNL     1       2.831   2.743  -6.932  0.00  0.00    -0.077 C 
ATOM      7  N   UNL     1       3.724   2.332  -8.022  0.00  0.00    +0.382 N 
ATOM      8  C   UNL     1       4.597   1.243  -7.567  0.00  0.00    -0.077 C 
ATOM      9  C   UNL     1       3.749   0.020  -7.210  0.00  0.00    +0.004 C 
ATOM     10  H   UNL     1       3.173   2.015  -8.806  0.00  0.00    -0.081 HD
BRANCH   7  11
ATOM     11  C   UNL     1       4.547   3.476  -8.437  0.00  0.00    -0.043 C 
BRANCH  11  12
ATOM     12  C   UNL     1       5.375   3.091  -9.636  0.00  0.00    -0.064 A 
ATOM     13  C   UNL     1       6.631   2.541  -9.459  0.00  0.00    +0.002 A 
ATOM     14  C   UNL     1       7.391   2.187 -10.558  0.00  0.00    +0.000 A 
ATOM     15  C   UNL     1       6.895   2.383 -11.834  0.00  0.00    +0.000 A 
ATOM     16  C   UNL     1       5.639   2.932 -12.010  0.00  0.00    +0.000 A 
ATOM     17  C   UNL     1       4.877   3.282 -10.911  0.00  0.00    +0.002 A 
ENDBRANCH  11  12
ENDBRANCH   7  11
ENDBRANCH   1   4
BRANCH   2  18
ATOM     18  C   UNL     1       1.086  -0.959  -8.095  0.00  0.00    +0.072 A 
ATOM     19  C   UNL     1       1.715   0.199  -8.558  0.00  0.00    +0.016 A 
ATOM     20  C   UNL     1       1.346   0.743  -9.770  0.00  0.00    +0.001 A 
ATOM     21  C   UNL     1       0.354   0.145 -10.529  0.00  0.00    +0.003 A 
ATOM     22  C   UNL     1      -0.274  -1.001 -10.080  0.00  0.00    +0.039 A 
ATOM     23  C   UNL     1       0.090  -1.562  -8.869  0.00  0.00    +0.135 A 
ATOM     24  F   UNL     1      -0.520  -2.686  -8.432  0.00  0.00    -0.205 F 
ENDBRANCH   2  18
BRANCH   1  25
ATOM     25  C   UNL     1       1.504  -1.030  -4.417  0.00  0.00    +0.143 C 
BRANCH  25  29
ATOM     26  C   UNL     1      -2.274   0.802  -3.632  0.00  0.00    -0.042 A 
ATOM     27  C   UNL     1      -2.221  -0.445  -4.226  0.00  0.00    +0.004 A 
ATOM     28  C   UNL     1      -0.999  -1.038  -4.480  0.00  0.00    +0.005 A 
ATOM     29  C   UNL     1       0.171  -0.384  -4.141  0.00  0.00    -0.030 A 
ATOM     30  C   UNL     1       0.118   0.864  -3.548  0.00  0.00    +0.005 A 
ATOM     31  C   UNL     1      -1.105   1.459  -3.297  0.00  0.00    +0.004 A 
BRANCH  26  33
ATOM     32  C   UNL     1      -3.698   2.774  -4.112  0.00  0.00    +0.015 C 
ATOM     33  C   UNL     1      -3.607   1.448  -3.354  0.00  0.00    -0.013 C 
ATOM     34  C   UNL     1      -3.745   1.708  -1.853  0.00  0.00    +0.015 C 
ATOM     35  C   UNL     1      -4.731   0.518  -3.817  0.00  0.00    +0.015 C 
ENDBRANCH  26  33
ENDBRANCH  25  29
ENDBRANCH   1  25
TORSDOF 7
