REMARK  Name = ZINC64869103
REMARK  3 active torsions:
REMARK  status: ('A' for Active; 'I' for Inactive)
REMARK    1  A    between atoms: N_16  and  C_17
REMARK    2  A    between atoms: C_17  and  C_18
REMARK    3  A    between atoms: N_20  and  C_21
REMARK                            x       y       z     vdW  Elec       q    Type
REMARK                         _______ _______ _______ _____ _____    ______ ____
ROOT
ATOM      1  C   UNL     1       0.225  -0.052   0.407  0.00  0.00    +0.002 A 
ATOM      2  C   UNL     1       1.191   0.935   0.383  0.00  0.00    +0.002 A 
ATOM      3  C   UNL     1       2.525   0.601   0.217  0.00  0.00    +0.025 A 
ATOM      4  C   UNL     1       2.889  -0.726   0.075  0.00  0.00    +0.058 A 
ATOM      5  C   UNL     1       1.915  -1.724   0.099  0.00  0.00    +0.053 A 
ATOM      6  C   UNL     1       0.583  -1.382   0.266  0.00  0.00    +0.025 A 
ATOM      7  N   UNL     1       2.089  -3.109  -0.030  0.00  0.00    -0.316 N 
ATOM      8  C   UNL     1       3.248  -3.822  -0.215  0.00  0.00    +0.016 C 
ATOM      9  C   UNL     1       3.229  -5.332  -0.341  0.00  0.00    +0.051 C 
ATOM     10  C   UNL     1       4.594  -5.699  -0.962  0.00  0.00    +0.011 C 
ATOM     11  C   UNL     1       5.475  -4.514  -0.513  0.00  0.00    +0.042 C 
ATOM     12  C   UNL     1       4.512  -3.361  -0.312  0.00  0.00    +0.032 C 
ATOM     13  H   UNL     1       1.277  -3.637   0.018  0.00  0.00    +0.152 HD
ATOM     14  C   UNL     1       4.972  -2.020  -0.249  0.00  0.00    +0.249 C 
ATOM     15  O   UNL     1       6.176  -1.880  -0.362  0.00  0.00    -0.270 OA
ATOM     16  N   UNL     1       4.276  -0.881  -0.083  0.00  0.00    -0.257 N 
ENDROOT
BRANCH  16  17
ATOM     17  C   UNL     1       5.065   0.354  -0.063  0.00  0.00    +0.210 C 
BRANCH  17  18
ATOM     18  C   UNL     1       5.328   0.759   1.365  0.00  0.00    +0.235 C 
ATOM     19  O   UNL     1       4.899   0.083   2.276  0.00  0.00    -0.274 OA
ATOM     20  N   UNL     1       6.040   1.873   1.629  0.00  0.00    -0.282 N 
ATOM     21  H   UNL     1       6.312   2.457   0.904  0.00  0.00    +0.155 HD
BRANCH  20  22
ATOM     22  C   UNL     1       6.386   2.186   2.949  0.00  0.00    +0.069 A 
ATOM     23  C   UNL     1       6.370   1.199   3.925  0.00  0.00    +0.026 A 
ATOM     24  C   UNL     1       6.712   1.510   5.227  0.00  0.00    +0.002 A 
ATOM     25  C   UNL     1       7.071   2.804   5.559  0.00  0.00    +0.003 A 
ATOM     26  C   UNL     1       7.088   3.790   4.591  0.00  0.00    +0.040 A 
ATOM     27  C   UNL     1       6.753   3.484   3.284  0.00  0.00    +0.144 A 
ATOM     28  F   UNL     1       6.775   4.447   2.337  0.00  0.00    -0.204 F 
ENDBRANCH  20  22
ENDBRANCH  17  18
ENDBRANCH  16  17
TORSDOF 3
