REMARK  Name = ZINC59126252
REMARK  10 active torsions:
REMARK  status: ('A' for Active; 'I' for Inactive)
REMARK    1  A    between atoms: C_1  and  C_2
REMARK    2  A    between atoms: C_2  and  O_3
REMARK    3  A    between atoms: O_3  and  C_4
REMARK    4  A    between atoms: C_4  and  C_6
REMARK    5  A    between atoms: N_8  and  C_29
REMARK    6  A    between atoms: C_17  and  C_20
REMARK    7  A    between atoms: C_23  and  C_26
REMARK    8  A    between atoms: C_26  and  C_27
REMARK    9  A    between atoms: C_26  and  C_28
REMARK   10  A    between atoms: C_34  and  N_35
REMARK                            x       y       z     vdW  Elec       q    Type
REMARK                         _______ _______ _______ _____ _____    ______ ____
ROOT
ATOM      1  C   UNL     1       1.498  -2.372   2.470  0.00  0.00    +0.202 C 
ATOM      2  N   UNL     1       2.063  -1.727   3.458  0.00  0.00    -0.163 NA
ATOM      3  N   UNL     1       2.696  -2.369   4.511  0.00  0.00    -0.190 N 
ATOM      4  C   UNL     1       2.681  -3.820   4.429  0.00  0.00    +0.181 C 
ATOM      5  S   UNL     1       1.766  -4.095   2.875  0.00  0.00    -0.054 S 
ATOM      6  C   UNL     1       2.035  -4.521   5.595  0.00  0.00    +0.003 A 
ATOM      7  C   UNL     1       0.667  -4.515   5.886  0.00  0.00    +0.008 A 
ATOM      8  C   UNL     1       0.158  -5.191   6.969  0.00  0.00    +0.000 A 
ATOM      9  C   UNL     1       1.012  -5.896   7.796  0.00  0.00    +0.000 A 
ATOM     10  C   UNL     1       2.360  -5.904   7.524  0.00  0.00    +0.005 A 
ATOM     11  C   UNL     1       2.888  -5.218   6.428  0.00  0.00    -0.023 A 
ATOM     12  C   UNL     1       4.380  -5.175   6.082  0.00  0.00    +0.110 C 
ATOM     13  S   UNL     1       4.349  -4.549   4.349  0.00  0.00    -0.105 S 
ENDROOT
BRANCH  12  14
ATOM     14  C   UNL     1       4.989  -6.552   6.147  0.00  0.00    -0.030 A 
ATOM     15  C   UNL     1       4.512  -7.558   5.328  0.00  0.00    +0.005 A 
ATOM     16  C   UNL     1       5.070  -8.821   5.388  0.00  0.00    +0.004 A 
ATOM     17  C   UNL     1       6.105  -9.078   6.267  0.00  0.00    -0.045 A 
ATOM     18  C   UNL     1       6.582  -8.072   7.086  0.00  0.00    +0.004 A 
ATOM     19  C   UNL     1       6.027  -6.807   7.023  0.00  0.00    +0.005 A 
BRANCH  17  20
ATOM     20  C   UNL     1       6.713 -10.455   6.333  0.00  0.00    +0.013 C 
ATOM     21  C   UNL     1       8.201 -10.373   5.988  0.00  0.00    +0.012 C 
ATOM     22  C   UNL     1       6.548 -11.018   7.746  0.00  0.00    +0.012 C 
ENDBRANCH  17  20
ENDBRANCH  12  14
BRANCH   3  23
ATOM     23  C   UNL     1       3.298  -1.678   5.563  0.00  0.00    +0.085 A 
ATOM     24  C   UNL     1       2.936  -1.956   6.876  0.00  0.00    +0.027 A 
ATOM     25  C   UNL     1       3.534  -1.271   7.915  0.00  0.00    +0.002 A 
ATOM     26  C   UNL     1       4.492  -0.309   7.650  0.00  0.00    +0.002 A 
ATOM     27  C   UNL     1       4.854  -0.029   6.345  0.00  0.00    +0.035 A 
ATOM     28  C   UNL     1       4.265  -0.715   5.301  0.00  0.00    +0.149 A 
BRANCH  28  29
ATOM     29  N   UNL     1       4.658  -0.420   3.905  0.00  0.00    +0.058 N 
ATOM     30  O   UNL     1       5.499   0.418   3.678  0.00  0.00    -0.126 OA
ATOM     31  O   UNL     1       4.138  -1.017   2.991  0.00  0.00    -0.126 OA
ENDBRANCH  28  29
ENDBRANCH   3  23
BRANCH   1  32
ATOM     32  C   UNL     1       0.801  -1.814   1.305  0.00  0.00    +0.366 C 
ATOM     33  O   UNL     1       0.321  -2.557   0.470  0.00  0.00    -0.243 OA
BRANCH  32  34
ATOM     34  O   UNL     1       0.693  -0.477   1.160  0.00  0.00    -0.460 OA
BRANCH  34  36
ATOM     35  C   UNL     1      -0.019   1.526   0.010  0.00  0.00    +0.048 C 
ATOM     36  C   UNL     1       0.002  -0.004   0.002  0.00  0.00    +0.229 C 
ENDBRANCH  34  36
ENDBRANCH  32  34
ENDBRANCH   1  32
TORSDOF 7
