REMARK  Name = ZINC23566340
REMARK  6 active torsions:
REMARK  status: ('A' for Active; 'I' for Inactive)
REMARK    1  A    between atoms: C_1  and  C_2
REMARK    2  A    between atoms: C_2  and  C_4
REMARK    3  A    between atoms: C_2  and  S_20
REMARK    4  A    between atoms: C_10  and  C_15
REMARK    5  A    between atoms: S_20  and  C_21
REMARK    6  A    between atoms: N_25  and  C_26
REMARK                            x       y       z     vdW  Elec       q    Type
REMARK                         _______ _______ _______ _____ _____    ______ ____
ROOT
ATOM      1  C   UNL     1      -1.412  -0.526   0.013  0.00  0.00    +0.124 A 
ATOM      2  N   UNL     1      -1.993  -0.854   1.195  0.00  0.00    -0.309 N 
ATOM      3  H   UNL     1      -1.490  -0.749   2.018  0.00  0.00    +0.170 HD
ATOM      4  C   UNL     1      -3.253  -1.323   1.248  0.00  0.00    +0.260 A 
ATOM      5  O   UNL     1      -3.761  -1.613   2.318  0.00  0.00    -0.267 OA
ATOM      6  C   UNL     1      -3.989  -1.475   0.030  0.00  0.00    +0.080 A 
ATOM      7  C   UNL     1      -5.351  -1.956  -0.171  0.00  0.00    +0.010 A 
ATOM      8  C   UNL     1      -5.841  -2.013  -1.435  0.00  0.00    +0.057 A 
ATOM      9  S   UNL     1      -4.487  -1.419  -2.430  0.00  0.00    -0.076 S 
ATOM     10  C   UNL     1      -3.307  -1.110  -1.142  0.00  0.00    +0.116 A 
ATOM     11  N   UNL     1      -2.059  -0.649  -1.115  0.00  0.00    -0.225 NA
ENDROOT
BRANCH   7  12
ATOM     12  C   UNL     1      -6.181  -2.374   0.978  0.00  0.00    +0.021 A 
ATOM     13  C   UNL     1      -7.462  -2.008   1.296  0.00  0.00    +0.016 A 
ATOM     14  C   UNL     1      -8.037  -2.533   2.434  0.00  0.00    +0.008 A 
ATOM     15  C   UNL     1      -7.321  -3.393   3.201  0.00  0.00    +0.046 A 
ATOM     16  S   UNL     1      -5.777  -3.492   2.310  0.00  0.00    -0.097 S 
ENDBRANCH   7  12
BRANCH   1  18
ATOM     17  C   UNL     1      -0.019   1.526   0.010  0.00  0.00    +0.027 C 
ATOM     18  C   UNL     1       0.002  -0.004   0.002  0.00  0.00    +0.117 C 
BRANCH  18  19
ATOM     19  S   UNL     1       0.879  -0.605   1.472  0.00  0.00    -0.075 S 
BRANCH  19  20
ATOM     20  C   UNL     1       2.533  -0.042   1.241  0.00  0.00    +0.197 A 
ATOM     21  N   UNL     1       2.986   0.657   0.226  0.00  0.00    -0.122 NA
ATOM     22  N   UNL     1       4.239   0.894   0.381  0.00  0.00    -0.137 NA
ATOM     23  C   UNL     1       4.661   0.366   1.496  0.00  0.00    +0.230 A 
ATOM     24  N   UNL     1       3.588  -0.245   2.088  0.00  0.00    -0.277 N 
BRANCH  24  25
ATOM     25  C   UNL     1       3.574  -0.937   3.308  0.00  0.00    +0.051 A 
ATOM     26  C   UNL     1       2.606  -0.648   4.261  0.00  0.00    +0.026 A 
ATOM     27  C   UNL     1       2.594  -1.331   5.461  0.00  0.00    +0.003 A 
ATOM     28  C   UNL     1       3.545  -2.302   5.715  0.00  0.00    +0.020 A 
ATOM     29  C   UNL     1       4.511  -2.593   4.768  0.00  0.00    +0.043 A 
ATOM     30  C   UNL     1       4.524  -1.917   3.562  0.00  0.00    +0.046 A 
ATOM     31 CL   UNL     1       5.704  -3.812   5.091  0.00  0.00    -0.083 Cl
ENDBRANCH  24  25
ENDBRANCH  19  20
ENDBRANCH  18  19
ENDBRANCH   1  18
TORSDOF 5
