REMARK  Name = ZINC40034940
REMARK  10 active torsions:
REMARK  status: ('A' for Active; 'I' for Inactive)
REMARK    1  A    between atoms: C_1  and  C_2
REMARK    2  A    between atoms: C_2  and  C_3
REMARK    3  A    between atoms: C_3  and  O_4
REMARK    4  A    between atoms: O_4  and  C_5
REMARK    5  A    between atoms: C_9  and  C_11
REMARK    6  A    between atoms: N_12  and  N_13
REMARK    7  A    between atoms: N_20  and  C_21
REMARK    8  A    between atoms: C_24  and  C_27
REMARK    9  A    between atoms: C_28  and  C_36
REMARK   10  A    between atoms: C_28  and  C_37
REMARK                            x       y       z     vdW  Elec       q    Type
REMARK                         _______ _______ _______ _____ _____    ______ ____
ROOT
ATOM      1  N   UNL     1       2.358  -7.702  -5.206  0.00  0.00    -0.206 N 
ATOM      2  C   UNL     1       2.831  -8.350  -6.319  0.00  0.00    +0.223 A 
ATOM      3  N   UNL     1       3.620  -7.704  -7.153  0.00  0.00    -0.214 NA
ATOM      4  C   UNL     1       4.101  -8.304  -8.247  0.00  0.00    +0.084 A 
ATOM      5  C   UNL     1       3.774  -9.626  -8.513  0.00  0.00    +0.049 A 
ATOM      6  C   UNL     1       2.932 -10.306  -7.624  0.00  0.00    +0.264 A 
ATOM      7  O   UNL     1       2.620 -11.468  -7.826  0.00  0.00    -0.267 OA
ATOM      8  N   UNL     1       2.478  -9.649  -6.534  0.00  0.00    -0.248 N 
ATOM      9  C   UNL     1       4.322 -10.311  -9.733  0.00  0.00    +0.001 C 
ATOM     10  C   UNL     1       4.416  -9.333 -10.902  0.00  0.00    +0.047 C 
ATOM     11  C   UNL     1       5.139  -8.080 -10.487  0.00  0.00    -0.037 A 
ATOM     12  C   UNL     1       4.979  -7.580  -9.194  0.00  0.00    +0.004 A 
ATOM     13  C   UNL     1       5.640  -6.418  -8.808  0.00  0.00    +0.010 A 
ATOM     14  C   UNL     1       6.458  -5.765  -9.710  0.00  0.00    +0.001 A 
ATOM     15  C   UNL     1       6.616  -6.265 -10.990  0.00  0.00    +0.000 A 
ATOM     16  C   UNL     1       5.959  -7.420 -11.377  0.00  0.00    +0.004 A 
ATOM     17  C   UNL     1       5.715 -10.859  -9.420  0.00  0.00    +0.016 C 
ATOM     18  C   UNL     1       3.400 -11.470 -10.118  0.00  0.00    +0.016 C 
ATOM     19  H   UNL     1       1.718  -8.142  -4.625  0.00  0.00    +0.177 HD
ENDROOT
BRANCH   8  20
ATOM     20  C   UNL     1       1.637 -10.304  -5.625  0.00  0.00    +0.053 A 
ATOM     21  C   UNL     1       0.260 -10.265  -5.799  0.00  0.00    +0.026 A 
ATOM     22  C   UNL     1      -0.566 -10.912  -4.901  0.00  0.00    +0.005 A 
ATOM     23  C   UNL     1      -0.023 -11.598  -3.830  0.00  0.00    -0.050 A 
ATOM     24  C   UNL     1       1.348 -11.638  -3.654  0.00  0.00    +0.005 A 
ATOM     25  C   UNL     1       2.180 -10.999  -4.552  0.00  0.00    +0.026 A 
ATOM     26  C   UNL     1      -0.927 -12.303  -2.852  0.00  0.00    +0.044 C 
ENDBRANCH   8  20
BRANCH   1  28
ATOM     27  C   UNL     1       2.353  -5.794  -3.856  0.00  0.00    +0.138 C 
ATOM     28  N   UNL     1       2.801  -6.407  -4.909  0.00  0.00    -0.188 NA
BRANCH  27  33
ATOM     29  C   UNL     1       2.780  -2.488  -2.124  0.00  0.00    +0.121 A 
ATOM     30  C   UNL     1       3.697  -1.865  -2.961  0.00  0.00    +0.045 A 
ATOM     31  C   UNL     1       4.174  -2.518  -4.082  0.00  0.00    +0.004 A 
ATOM     32  C   UNL     1       3.741  -3.795  -4.378  0.00  0.00    +0.010 A 
ATOM     33  C   UNL     1       2.819  -4.430  -3.543  0.00  0.00    -0.002 A 
ATOM     34  C   UNL     1       2.343  -3.770  -2.408  0.00  0.00    +0.055 A 
BRANCH  29  35
ATOM     35  O   UNL     1       2.316  -1.840  -1.023  0.00  0.00    -0.492 OA
BRANCH  35  36
ATOM     36  C   UNL     1       2.810  -0.519  -0.792  0.00  0.00    +0.229 C 
BRANCH  36  38
ATOM     37  C   UNL     1       2.708   1.459   0.732  0.00  0.00    +0.007 C 
ATOM     38  C   UNL     1       2.180   0.044   0.483  0.00  0.00    +0.038 C 
ENDBRANCH  36  38
ENDBRANCH  35  36
ENDBRANCH  29  35
ENDBRANCH  27  33
ENDBRANCH   1  28
TORSDOF 6
