REMARK  Name = ZINC09870187
REMARK  8 active torsions:
REMARK  status: ('A' for Active; 'I' for Inactive)
REMARK    1  A    between atoms: C_1  and  C_2
REMARK    2  A    between atoms: C_2  and  C_26
REMARK    3  A    between atoms: N_5  and  N_9
REMARK    4  A    between atoms: C_10  and  C_12
REMARK    5  A    between atoms: C_16  and  N_18
REMARK    6  A    between atoms: C_19  and  C_21
REMARK    7  A    between atoms: C_26  and  C_27
REMARK    8  A    between atoms: C_27  and  C_28
REMARK                            x       y       z     vdW  Elec       q    Type
REMARK                         _______ _______ _______ _____ _____    ______ ____
ROOT
ATOM      1  N   UNL     1       3.635   1.748   0.018  0.00  0.00    -0.220 N 
ATOM      2  C   UNL     1       2.478   1.058   0.019  0.00  0.00    +0.261 C 
ATOM      3  O   UNL     1       2.494  -0.157   0.016  0.00  0.00    -0.269 OA
ATOM      4  H   UNL     1       3.622   2.718   0.020  0.00  0.00    +0.174 HD
ENDROOT
BRANCH   1   9
ATOM      5  C   UNL     1       8.146   0.948   0.754  0.00  0.00    +0.041 C 
ATOM      6  C   UNL     1       6.856   0.137   0.619  0.00  0.00    +0.112 C 
ATOM      7  C   UNL     1       5.665   0.949   1.087  0.00  0.00    +0.263 C 
ATOM      8  O   UNL     1       5.476   1.400   2.196  0.00  0.00    -0.271 OA
ATOM      9  N   UNL     1       4.858   1.065   0.013  0.00  0.00    -0.137 N 
ATOM     10  C   UNL     1       5.372   0.452  -1.059  0.00  0.00    +0.326 C 
ATOM     11  O   UNL     1       4.829   0.422  -2.146  0.00  0.00    -0.251 OA
ATOM     12  N   UNL     1       6.558  -0.129  -0.799  0.00  0.00    -0.284 N 
ATOM     13  H   UNL     1       7.108  -0.627  -1.424  0.00  0.00    +0.151 HD
BRANCH   6  14
ATOM     14  C   UNL     1       6.961  -1.173   1.402  0.00  0.00    +0.040 C 
BRANCH  14  15
ATOM     15  C   UNL     1       8.105  -2.015   0.836  0.00  0.00    +0.038 C 
BRANCH  15  16
ATOM     16  C   UNL     1       8.209  -3.306   1.607  0.00  0.00    -0.047 A 
ATOM     17  C   UNL     1       9.021  -3.380   2.723  0.00  0.00    +0.003 A 
ATOM     18  C   UNL     1       9.113  -4.563   3.434  0.00  0.00    +0.000 A 
ATOM     19  C   UNL     1       8.399  -5.673   3.023  0.00  0.00    +0.000 A 
ATOM     20  C   UNL     1       7.591  -5.600   1.904  0.00  0.00    +0.000 A 
ATOM     21  C   UNL     1       7.496  -4.416   1.196  0.00  0.00    +0.003 A 
ENDBRANCH  15  16
ENDBRANCH  14  15
ENDBRANCH   6  14
ENDBRANCH   1   9
BRANCH   2  22
ATOM     22  C   UNL     1       1.187   1.779   0.024  0.00  0.00    +0.040 A 
ATOM     23  C   UNL     1       1.164   3.175   0.028  0.00  0.00    +0.013 A 
ATOM     24  C   UNL     1      -0.041   3.846   0.033  0.00  0.00    +0.003 A 
ATOM     25  C   UNL     1      -1.230   3.141   0.034  0.00  0.00    +0.023 A 
ATOM     26  C   UNL     1      -1.219   1.751   0.024  0.00  0.00    +0.034 A 
ATOM     27  C   UNL     1      -0.012   1.068   0.024  0.00  0.00    +0.036 A 
BRANCH  26  28
ATOM     28  N   UNL     1      -2.425   1.042   0.019  0.00  0.00    -0.281 N 
ATOM     29  C   UNL     1      -2.520  -0.121  -0.656  0.00  0.00    +0.255 C 
ATOM     30  O   UNL     1      -1.535  -0.596  -1.192  0.00  0.00    -0.269 OA
ATOM     31  H   UNL     1      -3.192   1.387   0.502  0.00  0.00    +0.155 HD
BRANCH  29  32
ATOM     32  C   UNL     1      -3.808  -0.813  -0.746  0.00  0.00    +0.074 A 
ATOM     33  C   UNL     1      -4.118  -2.004  -1.384  0.00  0.00    +0.021 A 
ATOM     34  C   UNL     1      -5.420  -2.432  -1.311  0.00  0.00    +0.008 A 
ATOM     35  C   UNL     1      -6.327  -1.683  -0.630  0.00  0.00    +0.046 A 
ATOM     36  S   UNL     1      -5.386  -0.346  -0.056  0.00  0.00    -0.092 S 
ENDBRANCH  29  32
ENDBRANCH  26  28
ENDBRANCH   2  22
TORSDOF 7
