REMARK  Name = ZINC63804529
REMARK  12 active torsions:
REMARK  status: ('A' for Active; 'I' for Inactive)
REMARK    1  A    between atoms: C_1  and  C_2
REMARK    2  A    between atoms: C_5  and  C_30
REMARK    3  A    between atoms: C_7  and  S_8
REMARK    4  A    between atoms: S_8  and  N_11
REMARK    5  A    between atoms: N_11  and  C_12
REMARK    6  A    between atoms: C_12  and  C_13
REMARK    7  A    between atoms: C_13  and  C_14
REMARK    8  A    between atoms: C_17  and  O_25
REMARK    9  A    between atoms: C_22  and  C_24
REMARK   10  A    between atoms: O_25  and  C_26
REMARK   11  A    between atoms: C_30  and  C_31
REMARK   12  A    between atoms: C_30  and  C_32
REMARK                            x       y       z     vdW  Elec       q    Type
REMARK                         _______ _______ _______ _____ _____    ______ ____
ROOT
ATOM      1  C   UNL     1       2.784   3.335   3.003  0.00  0.00    +0.050 C 
ENDROOT
BRANCH   1   2
ATOM      2  C   UNL     1       2.930   4.678   2.335  0.00  0.00    -0.037 C 
ATOM      3  C   UNL     1       2.211   5.150   1.292  0.00  0.00    +0.003 A 
ATOM      4  C   UNL     1       1.120   4.578   0.496  0.00  0.00    +0.056 A 
ATOM      5  C   UNL     1       0.581   5.302  -0.514  0.00  0.00    +0.129 A 
ATOM      6  C   UNL     1       1.030   6.595  -0.834  0.00  0.00    +0.048 A 
ATOM      7  C   UNL     1       2.028   7.205  -0.160  0.00  0.00    +0.029 A 
ATOM      8  C   UNL     1       2.684   6.512   0.954  0.00  0.00    +0.043 A 
ATOM      9  N   UNL     1       3.656   6.868   1.756  0.00  0.00    -0.378 N 
ATOM     10  C   UNL     1       3.907   5.773   2.701  0.00  0.00    +0.103 C 
ATOM     11  C   UNL     1       5.344   5.270   2.549  0.00  0.00    +0.035 C 
ATOM     12  H   UNL     1       4.128   7.715   1.733  0.00  0.00    +0.160 HD
BRANCH   5  13
ATOM     13  O   UNL     1      -0.429   4.759  -1.244  0.00  0.00    -0.420 OA
BRANCH  13  14
ATOM     14  C   UNL     1      -0.969   5.557  -2.300  0.00  0.00    +0.489 C 
ATOM     15  F   UNL     1      -1.484   6.745  -1.770  0.00  0.00    -0.149 F 
ATOM     16  F   UNL     1       0.041   5.857  -3.220  0.00  0.00    -0.149 F 
ATOM     17 CL   UNL     1      -2.286   4.648  -3.128  0.00  0.00    +0.000 Cl
ENDBRANCH  13  14
ENDBRANCH   5  13
ENDBRANCH   1   2
BRANCH   1  18
ATOM     18  C   UNL     1       1.670   2.543   2.317  0.00  0.00    +0.110 C 
BRANCH  18  19
ATOM     19  N   UNL     1       1.526   1.238   2.967  0.00  0.00    -0.190 NA
ATOM     20  H   UNL     1       2.234   0.900   3.538  0.00  0.00    +0.148 HD
BRANCH  19  21
ATOM     21  S   UNL     1       0.157   0.339   2.726  0.00  0.00    +0.059 S 
ATOM     22  O   UNL     1       0.288  -0.825   3.531  0.00  0.00    -0.153 OA
ATOM     23  O   UNL     1      -0.045   0.274   1.321  0.00  0.00    -0.153 OA
BRANCH  21  30
ATOM     24  C   UNL     1      -0.135   1.068   5.647  0.00  0.00    +0.046 C 
ATOM     25  C   UNL     1      -1.239   1.544   4.739  0.00  0.00    -0.024 A 
ATOM     26  C   UNL     1      -2.295   2.271   5.256  0.00  0.00    +0.005 A 
ATOM     27  C   UNL     1      -3.308   2.707   4.423  0.00  0.00    +0.004 A 
ATOM     28  C   UNL     1      -3.265   2.417   3.072  0.00  0.00    -0.043 A 
ATOM     29  C   UNL     1      -2.208   1.691   2.554  0.00  0.00    +0.032 A 
ATOM     30  C   UNL     1      -1.193   1.259   3.387  0.00  0.00    +0.108 A 
BRANCH  28  31
ATOM     31  C   UNL     1      -4.370   2.892   2.164  0.00  0.00    +0.013 C 
ATOM     32  C   UNL     1      -5.701   2.298   2.627  0.00  0.00    +0.012 C 
ATOM     33  C   UNL     1      -4.448   4.419   2.212  0.00  0.00    +0.012 C 
ENDBRANCH  28  31
ENDBRANCH  21  30
ENDBRANCH  19  21
ENDBRANCH  18  19
ENDBRANCH   1  18
TORSDOF 8
