REMARK  Name = ZINC06475309
REMARK  5 active torsions:
REMARK  status: ('A' for Active; 'I' for Inactive)
REMARK    1  A    between atoms: C_18  and  C_21
REMARK    2  A    between atoms: C_25  and  N_27
REMARK    3  A    between atoms: C_28  and  C_30
REMARK    4  A    between atoms: C_32  and  N_39
REMARK    5  A    between atoms: C_34  and  N_36
REMARK                            x       y       z     vdW  Elec       q    Type
REMARK                         _______ _______ _______ _____ _____    ______ ____
ROOT
ATOM      1  C   UNL     1       3.565   1.810   0.118  0.00  0.00    -0.025 A 
ATOM      2  C   UNL     1       3.511   3.189   0.023  0.00  0.00    +0.005 A 
ATOM      3  C   UNL     1       2.291   3.831  -0.077  0.00  0.00    +0.002 A 
ATOM      4  C   UNL     1       1.121   3.096  -0.089  0.00  0.00    +0.023 A 
ATOM      5  C   UNL     1       1.171   1.712   0.013  0.00  0.00    +0.034 A 
ATOM      6  C   UNL     1       2.399   1.070   0.113  0.00  0.00    +0.028 A 
ENDROOT
BRANCH   1  22
ATOM      7  C   UNL     1      11.762  -0.177   0.418  0.00  0.00    +0.001 A 
ATOM      8  C   UNL     1      11.012  -0.595  -0.679  0.00  0.00    +0.001 A 
ATOM      9  C   UNL     1       9.690  -0.286  -0.783  0.00  0.00    +0.009 A 
ATOM     10  C   UNL     1       9.070   0.466   0.230  0.00  0.00    -0.012 A 
ATOM     11  C   UNL     1       9.833   0.890   1.345  0.00  0.00    -0.017 A 
ATOM     12  C   UNL     1      11.195   0.551   1.418  0.00  0.00    +0.008 A 
ATOM     13  C   UNL     1       9.218   1.642   2.361  0.00  0.00    +0.010 A 
ATOM     14  C   UNL     1       7.899   1.953   2.261  0.00  0.00    +0.024 A 
ATOM     15  C   UNL     1       7.138   1.537   1.160  0.00  0.00    +0.032 A 
ATOM     16  C   UNL     1       7.702   0.800   0.145  0.00  0.00    -0.012 A 
ATOM     17  C   UNL     1       6.923   0.344  -1.047  0.00  0.00    +0.049 C 
ATOM     18  C   UNL     1       6.608  -1.131  -0.969  0.00  0.00    -0.023 C 
ATOM     19  C   UNL     1       5.419  -1.368  -1.468  0.00  0.00    -0.030 C 
ATOM     20  C   UNL     1       4.780  -0.081  -1.952  0.00  0.00    +0.033 C 
ATOM     21  C   UNL     1       5.543   1.021  -1.159  0.00  0.00    +0.029 C 
ATOM     22  C   UNL     1       4.898   1.115   0.227  0.00  0.00    +0.105 C 
ATOM     23  N   UNL     1       5.783   1.883   1.107  0.00  0.00    -0.336 N 
ATOM     24  H   UNL     1       5.437   2.616   1.641  0.00  0.00    +0.147 HD
ENDBRANCH   1  22
BRANCH   5  25
ATOM     25  N   UNL     1      -0.011   0.966   0.007  0.00  0.00    -0.281 N 
ATOM     26  C   UNL     1      -1.120   1.456   0.595  0.00  0.00    +0.248 C 
ATOM     27  O   UNL     1      -1.115   2.580   1.060  0.00  0.00    -0.270 OA
ATOM     28  H   UNL     1      -0.034   0.097  -0.423  0.00  0.00    +0.155 HD
BRANCH  26  29
ATOM     29  C   UNL     1      -2.342   0.629   0.675  0.00  0.00    +0.041 A 
ATOM     30  C   UNL     1      -2.353  -0.659   0.137  0.00  0.00    +0.046 A 
ATOM     31  C   UNL     1      -3.495  -1.428   0.219  0.00  0.00    +0.129 A 
ATOM     32  C   UNL     1      -4.632  -0.922   0.824  0.00  0.00    +0.065 A 
ATOM     33  C   UNL     1      -4.630   0.356   1.354  0.00  0.00    +0.129 A 
ATOM     34  C   UNL     1      -3.493   1.134   1.284  0.00  0.00    +0.046 A 
BRANCH  33  35
ATOM     35  N   UNL     1      -5.851   0.890   1.998  0.00  0.00    +0.057 N 
ATOM     36  O   UNL     1      -5.851   2.015   2.465  0.00  0.00    -0.126 OA
ATOM     37  O   UNL     1      -6.856   0.205   2.062  0.00  0.00    -0.126 OA
ENDBRANCH  33  35
BRANCH  31  38
ATOM     38  N   UNL     1      -3.507  -2.796  -0.346  0.00  0.00    +0.057 N 
ATOM     39  O   UNL     1      -4.516  -3.475  -0.279  0.00  0.00    -0.126 OA
ATOM     40  O   UNL     1      -2.507  -3.244  -0.879  0.00  0.00    -0.126 OA
ENDBRANCH  31  38
ENDBRANCH  26  29
ENDBRANCH   5  25
TORSDOF 5
