REMARK  Name = ZINC01411629
REMARK  5 active torsions:
REMARK  status: ('A' for Active; 'I' for Inactive)
REMARK    1  A    between atoms: C_1  and  C_2
REMARK    2  A    between atoms: C_5  and  C_28
REMARK    3  A    between atoms: N_6  and  N_7
REMARK    4  A    between atoms: C_11  and  C_12
REMARK    5  A    between atoms: C_15  and  C_17
REMARK                            x       y       z     vdW  Elec       q    Type
REMARK                         _______ _______ _______ _____ _____    ______ ____
ROOT
ATOM      1  N   UNL     1      -4.761   1.424   0.035  0.00  0.00    -0.158 N 
ATOM      2  C   UNL     1      -3.695   2.207   0.033  0.00  0.00    +0.277 C 
ATOM      3  O   UNL     1      -3.808   3.420   0.039  0.00  0.00    -0.267 OA
ATOM      4  C   UNL     1      -2.409   1.587   0.023  0.00  0.00    +0.082 C 
ATOM      5  C   UNL     1      -1.169   2.159   0.020  0.00  0.00    +0.066 C 
ATOM      6  S   UNL     1      -2.863  -0.142   0.009  0.00  0.00    -0.059 S 
ATOM      7  C   UNL     1      -4.636   0.079   0.027  0.00  0.00    +0.141 C 
ATOM      8  S   UNL     1      -5.865  -1.113   0.027  0.00  0.00    -0.026 S 
ENDROOT
BRANCH   1  14
ATOM      9  C   UNL     1      -6.321   2.104   2.583  0.00  0.00    +0.065 C 
ATOM     10  C   UNL     1      -6.760   2.313   1.157  0.00  0.00    +0.037 A 
ATOM     11  C   UNL     1      -7.934   2.847   0.761  0.00  0.00    +0.024 A 
ATOM     12  C   UNL     1      -7.941   2.854  -0.647  0.00  0.00    +0.024 A 
ATOM     13  C   UNL     1      -6.769   2.329  -1.059  0.00  0.00    +0.037 A 
ATOM     14  N   UNL     1      -6.039   1.998   0.044  0.00  0.00    -0.260 N 
ATOM     15  C   UNL     1      -6.340   2.142  -2.492  0.00  0.00    +0.065 C 
ENDBRANCH   1  14
BRANCH   5  16
ATOM     16  C   UNL     1      -0.016   1.346   0.009  0.00  0.00    +0.130 A 
ATOM     17  C   UNL     1       1.294   1.791  -0.001  0.00  0.00    +0.050 A 
ATOM     18  C   UNL     1       2.106   0.654  -0.015  0.00  0.00    +0.050 A 
ATOM     19  C   UNL     1       1.277  -0.432  -0.013  0.00  0.00    +0.136 A 
ATOM     20  O   UNL     1       0.002  -0.004   0.002  0.00  0.00    -0.455 OA
BRANCH  19  21
ATOM     21  C   UNL     1       1.710  -1.843  -0.024  0.00  0.00    +0.019 A 
ATOM     22  C   UNL     1       3.071  -2.159  -0.044  0.00  0.00    +0.013 A 
ATOM     23  C   UNL     1       3.470  -3.479  -0.049  0.00  0.00    +0.022 A 
ATOM     24  C   UNL     1       2.525  -4.491  -0.046  0.00  0.00    +0.059 A 
ATOM     25  C   UNL     1       1.173  -4.185  -0.032  0.00  0.00    +0.060 A 
ATOM     26  C   UNL     1       0.761  -2.868  -0.021  0.00  0.00    +0.033 A 
ATOM     27 CL   UNL     1      -0.004  -5.461  -0.028  0.00  0.00    -0.082 Cl
ATOM     28 CL   UNL     1       3.035  -6.151  -0.059  0.00  0.00    -0.082 Cl
ENDBRANCH  19  21
ENDBRANCH   5  16
TORSDOF 3
