REMARK  Name = ZINC13576402
REMARK  7 active torsions:
REMARK  status: ('A' for Active; 'I' for Inactive)
REMARK    1  A    between atoms: C_1  and  C_2
REMARK    2  A    between atoms: C_3  and  C_27
REMARK    3  A    between atoms: C_10  and  C_18
REMARK    4  A    between atoms: C_30  and  O_35
REMARK    5  A    between atoms: C_32  and  O_33
REMARK    6  A    between atoms: O_33  and  C_34
REMARK    7  A    between atoms: O_35  and  C_36
REMARK                            x       y       z     vdW  Elec       q    Type
REMARK                         _______ _______ _______ _____ _____    ______ ____
ROOT
ATOM      1  C   UNL     1      -0.721   1.290   0.886  0.00  0.00    +0.054 C 
ATOM      2  C   UNL     1      -0.302  -0.086   0.434  0.00  0.00    +0.016 A 
ATOM      3  C   UNL     1      -0.210  -0.598  -0.832  0.00  0.00    +0.087 A 
ATOM      4  N   UNL     1       0.186  -1.848  -1.000  0.00  0.00    -0.222 NA
ATOM      5  C   UNL     1       0.496  -2.616   0.040  0.00  0.00    +0.172 A 
ATOM      6  S   UNL     1       0.220  -1.494   1.404  0.00  0.00    -0.054 S 
ATOM      7  N   UNL     1       0.913  -3.897   0.060  0.00  0.00    -0.334 N 
ATOM      8  C   UNL     1       2.211  -4.173   0.104  0.00  0.00    +0.055 A 
ATOM      9  C   UNL     1       3.186  -3.146   0.022  0.00  0.00    +0.073 A 
ATOM     10  C   UNL     1       4.504  -3.470   0.071  0.00  0.00    +0.138 A 
ATOM     11  O   UNL     1       4.934  -4.737   0.194  0.00  0.00    -0.455 OA
ATOM     12  C   UNL     1       4.083  -5.784   0.279  0.00  0.00    +0.138 A 
ATOM     13  C   UNL     1       2.698  -5.561   0.246  0.00  0.00    +0.041 A 
ATOM     14  C   UNL     1       1.814  -6.633   0.339  0.00  0.00    +0.013 A 
ATOM     15  C   UNL     1       2.308  -7.914   0.471  0.00  0.00    +0.001 A 
ATOM     16  C   UNL     1       3.676  -8.134   0.510  0.00  0.00    +0.004 A 
ATOM     17  C   UNL     1       4.561  -7.080   0.406  0.00  0.00    +0.047 A 
ATOM     18  H   UNL     1       0.265  -4.619   0.043  0.00  0.00    +0.168 HD
ENDROOT
BRANCH  10  19
ATOM     19  C   UNL     1       5.503  -2.388  -0.016  0.00  0.00    +0.021 A 
ATOM     20  C   UNL     1       5.088  -1.059  -0.139  0.00  0.00    +0.015 A 
ATOM     21  C   UNL     1       6.024  -0.050  -0.219  0.00  0.00    +0.050 A 
ATOM     22  C   UNL     1       7.379  -0.348  -0.178  0.00  0.00    +0.166 A 
ATOM     23  C   UNL     1       7.800  -1.673  -0.055  0.00  0.00    +0.167 A 
ATOM     24  C   UNL     1       6.867  -2.689   0.032  0.00  0.00    +0.061 A 
ATOM     25  O   UNL     1       9.165  -1.696  -0.039  0.00  0.00    -0.453 OA
ATOM     26  C   UNL     1       9.577  -0.420  -0.563  0.00  0.00    +0.466 C 
ATOM     27  O   UNL     1       8.480   0.454  -0.238  0.00  0.00    -0.453 OA
ENDBRANCH  10  19
BRANCH   3  28
ATOM     28  C   UNL     1      -0.552   0.243  -2.005  0.00  0.00    +0.043 A 
ATOM     29  C   UNL     1      -0.019   1.524  -2.125  0.00  0.00    +0.017 A 
ATOM     30  C   UNL     1      -0.338   2.304  -3.217  0.00  0.00    +0.046 A 
ATOM     31  C   UNL     1      -1.192   1.815  -4.198  0.00  0.00    +0.124 A 
ATOM     32  C   UNL     1      -1.726   0.541  -4.086  0.00  0.00    +0.092 A 
ATOM     33  C   UNL     1      -1.406  -0.251  -2.996  0.00  0.00    +0.133 A 
BRANCH  33  34
ATOM     34  O   UNL     1      -1.925  -1.502  -2.887  0.00  0.00    -0.494 OA
ATOM     35  C   UNL     1      -2.790  -1.940  -3.937  0.00  0.00    +0.277 C 
ENDBRANCH  33  34
BRANCH  31  36
ATOM     36  O   UNL     1      -1.504   2.589  -5.271  0.00  0.00    -0.495 OA
ATOM     37  C   UNL     1      -0.918   3.891  -5.325  0.00  0.00    +0.277 C 
ENDBRANCH  31  36
ENDBRANCH   3  28
TORSDOF 4
