REMARK  Name = ZINC13170151
REMARK  6 active torsions:
REMARK  status: ('A' for Active; 'I' for Inactive)
REMARK    1  A    between atoms: C_1  and  C_2
REMARK    2  A    between atoms: C_5  and  C_21
REMARK    3  A    between atoms: C_7  and  N_8
REMARK    4  A    between atoms: C_9  and  C_11
REMARK    5  A    between atoms: C_11  and  O_12
REMARK    6  A    between atoms: O_12  and  C_13
REMARK                            x       y       z     vdW  Elec       q    Type
REMARK                         _______ _______ _______ _____ _____    ______ ____
ROOT
ATOM      1  N   UNL     1       2.373   3.879  -0.001  0.00  0.00    -0.282 N 
ATOM      2  C   UNL     1       2.364   5.224  -0.096  0.00  0.00    +0.255 C 
ATOM      3  O   UNL     1       1.311   5.826  -0.083  0.00  0.00    -0.272 OA
ATOM      4  H   UNL     1       3.215   3.404   0.070  0.00  0.00    +0.155 HD
ENDROOT
BRANCH   1  11
ATOM      5  C   UNL     1       2.323   1.320   1.234  0.00  0.00    +0.045 C 
ATOM      6  C   UNL     1       1.098   1.915   0.589  0.00  0.00    -0.029 A 
ATOM      7  C   UNL     1      -0.091   1.209   0.589  0.00  0.00    +0.006 A 
ATOM      8  C   UNL     1      -1.216   1.744  -0.004  0.00  0.00    +0.015 A 
ATOM      9  C   UNL     1      -1.159   3.007  -0.598  0.00  0.00    +0.065 A 
ATOM     10  C   UNL     1       0.041   3.719  -0.598  0.00  0.00    +0.038 A 
ATOM     11  C   UNL     1       1.167   3.170  -0.004  0.00  0.00    +0.037 A 
BRANCH   9  12
ATOM     12  C   UNL     1      -2.363   3.585  -1.229  0.00  0.00    +0.387 C 
ATOM     13  O   UNL     1      -2.310   4.682  -1.748  0.00  0.00    -0.241 OA
ATOM     14  O   UNL     1      -3.521   2.896  -1.228  0.00  0.00    -0.241 OA
ENDBRANCH   9  12
ENDBRANCH   1  11
BRANCH   2  15
ATOM     15  C   UNL     1       3.663   5.979  -0.218  0.00  0.00    +0.324 C 
BRANCH  15  16
ATOM     16  O   UNL     1       3.393   7.380  -0.303  0.00  0.00    -0.482 OA
BRANCH  16  17
ATOM     17  C   UNL     1       4.464   8.209  -0.418  0.00  0.00    +0.135 A 
ATOM     18  C   UNL     1       5.748   7.684  -0.449  0.00  0.00    +0.048 A 
ATOM     19  C   UNL     1       6.835   8.528  -0.567  0.00  0.00    +0.019 A 
ATOM     20  C   UNL     1       6.644   9.896  -0.654  0.00  0.00    +0.019 A 
ATOM     21  C   UNL     1       5.365  10.422  -0.623  0.00  0.00    +0.034 A 
ATOM     22  C   UNL     1       4.274   9.580  -0.511  0.00  0.00    +0.061 A 
ATOM     23 BR   UNL     1       2.525  10.298  -0.478  0.00  0.00    -0.046 Br
ATOM     24 BR   UNL     1       8.135  11.049  -0.815  0.00  0.00    -0.050 Br
ENDBRANCH  16  17
ENDBRANCH  15  16
ENDBRANCH   2  15
TORSDOF 5
