REMARK  Name = ZINC39606892
REMARK  6 active torsions:
REMARK  status: ('A' for Active; 'I' for Inactive)
REMARK    1  A    between atoms: C_1  and  C_2
REMARK    2  A    between atoms: C_5  and  C_9
REMARK    3  A    between atoms: C_6  and  C_8
REMARK    4  A    between atoms: C_9  and  N_10
REMARK    5  A    between atoms: C_11  and  C_13
REMARK    6  A    between atoms: C_24  and  C_26
REMARK                            x       y       z     vdW  Elec       q    Type
REMARK                         _______ _______ _______ _____ _____    ______ ____
ROOT
ATOM      1  C   UNL     1      -2.708  -6.594   0.723  0.00  0.00    +0.100 C 
ATOM      2  C   UNL     1      -3.247  -6.316   2.144  0.00  0.00    +0.121 C 
ATOM      3  N   UNL     1      -4.074  -7.501   2.469  0.00  0.00    -0.296 N 
ATOM      4  C   UNL     1      -3.312  -8.646   1.914  0.00  0.00    +0.115 C 
ATOM      5  C   UNL     1      -2.752  -8.124   0.576  0.00  0.00    -0.004 C 
ATOM      6  C   UNL     1      -3.675  -8.518  -0.573  0.00  0.00    -0.010 C 
ATOM      7  C   UNL     1      -3.659 -10.041  -0.735  0.00  0.00    -0.082 C 
ATOM      8  N   UNL     1      -2.288 -10.490  -1.006  0.00  0.00    +0.379 N 
ATOM      9  C   UNL     1      -1.425 -10.190   0.143  0.00  0.00    -0.082 C 
ATOM     10  C   UNL     1      -1.348  -8.674   0.343  0.00  0.00    -0.010 C 
ATOM     11  C   UNL     1      -5.253  -7.532   3.122  0.00  0.00    +0.247 C 
ATOM     12  O   UNL     1      -5.770  -8.599   3.392  0.00  0.00    -0.270 OA
ATOM     13  H   UNL     1      -2.289 -11.486  -1.173  0.00  0.00    -0.086 HD
ATOM     14  H   UNL     1      -1.935 -10.015  -1.824  0.00  0.00    -0.086 HD
ENDROOT
BRANCH  11  15
ATOM     15  C   UNL     1      -5.915  -6.270   3.510  0.00  0.00    +0.045 A 
ATOM     16  C   UNL     1      -5.197  -5.280   4.191  0.00  0.00    +0.014 A 
ATOM     17  C   UNL     1      -5.813  -4.102   4.554  0.00  0.00    +0.001 A 
ATOM     18  C   UNL     1      -7.148  -3.884   4.250  0.00  0.00    +0.012 A 
ATOM     19  C   UNL     1      -7.879  -4.855   3.575  0.00  0.00    +0.031 A 
ATOM     20  C   UNL     1      -7.263  -6.057   3.194  0.00  0.00    +0.006 A 
ATOM     21  C   UNL     1      -8.261  -6.901   2.490  0.00  0.00    -0.006 A 
ATOM     22  C   UNL     1      -8.171  -8.166   1.925  0.00  0.00    +0.009 A 
ATOM     23  C   UNL     1      -9.279  -8.734   1.316  0.00  0.00    +0.001 A 
ATOM     24  C   UNL     1     -10.478  -8.050   1.266  0.00  0.00    +0.001 A 
ATOM     25  C   UNL     1     -10.584  -6.787   1.826  0.00  0.00    +0.012 A 
ATOM     26  C   UNL     1      -9.481  -6.206   2.440  0.00  0.00    +0.030 A 
ATOM     27  C   UNL     1      -9.290  -4.905   3.125  0.00  0.00    +0.194 C 
ATOM     28  O   UNL     1     -10.127  -4.039   3.275  0.00  0.00    -0.287 OA
ENDBRANCH  11  15
BRANCH   1  30
ATOM     29  N   UNL     1      -0.783  -5.822  -0.626  0.00  0.00    -0.311 N 
ATOM     30  C   UNL     1      -1.292  -6.095   0.592  0.00  0.00    +0.218 C 
ATOM     31  O   UNL     1      -0.610  -5.939   1.582  0.00  0.00    -0.275 OA
ATOM     32  H   UNL     1      -1.329  -5.946  -1.419  0.00  0.00    +0.149 HD
BRANCH  29  33
ATOM     33  C   UNL     1       0.593  -5.337  -0.754  0.00  0.00    +0.139 C 
BRANCH  33  38
ATOM     34  C   UNL     1       1.817  -4.467  -6.334  0.00  0.00    +0.044 C 
ATOM     35  C   UNL     1       1.498  -4.694  -4.879  0.00  0.00    -0.050 A 
ATOM     36  C   UNL     1       1.927  -5.847  -4.248  0.00  0.00    +0.004 A 
ATOM     37  C   UNL     1       1.635  -6.055  -2.914  0.00  0.00    +0.006 A 
ATOM     38  C   UNL     1       0.913  -5.109  -2.209  0.00  0.00    -0.027 A 
ATOM     39  C   UNL     1       0.484  -3.956  -2.839  0.00  0.00    -0.046 A 
ATOM     40  C   UNL     1       0.781  -3.747  -4.173  0.00  0.00    +0.007 A 
ATOM     41  C   UNL     1      -0.303  -2.926  -2.071  0.00  0.00    +0.044 C 
ENDBRANCH  33  38
ENDBRANCH  29  33
ENDBRANCH   1  30
TORSDOF 4
