REMARK  Name = ZINC14269427
REMARK  7 active torsions:
REMARK  status: ('A' for Active; 'I' for Inactive)
REMARK    1  A    between atoms: C_4  and  N_29
REMARK    2  A    between atoms: C_5  and  C_7
REMARK    3  A    between atoms: C_10  and  C_12
REMARK    4  A    between atoms: N_14  and  C_15
REMARK    5  A    between atoms: C_15  and  N_17
REMARK    6  A    between atoms: N_17  and  C_18
REMARK    7  A    between atoms: C_23  and  C_24
REMARK                            x       y       z     vdW  Elec       q    Type
REMARK                         _______ _______ _______ _____ _____    ______ ____
ROOT
ATOM      1  C   UNL     1      -4.721   1.365  -0.273  0.00  0.00    +0.285 C 
ATOM      2  O   UNL     1      -4.709   0.148  -0.280  0.00  0.00    -0.266 OA
ATOM      3  N   UNL     1      -3.564   2.049  -0.173  0.00  0.00    -0.261 N 
ATOM      4  H   UNL     1      -3.573   3.019  -0.168  0.00  0.00    +0.157 HD
ENDROOT
BRANCH   1   8
ATOM      5  C   UNL     1      -7.448   3.727  -0.484  0.00  0.00    +0.138 A 
ATOM      6  C   UNL     1      -8.161   2.563  -0.549  0.00  0.00    +0.051 A 
ATOM      7  C   UNL     1      -7.240   1.513  -0.486  0.00  0.00    +0.055 A 
ATOM      8  C   UNL     1      -5.991   2.086  -0.373  0.00  0.00    +0.190 A 
ATOM      9  O   UNL     1      -6.143   3.427  -0.378  0.00  0.00    -0.450 OA
BRANCH   5  14
ATOM     10  C   UNL     1      -9.456   6.714  -1.553  0.00  0.00    +0.001 A 
ATOM     11  C   UNL     1      -9.088   7.642  -0.595  0.00  0.00    +0.002 A 
ATOM     12  C   UNL     1      -8.188   7.300   0.399  0.00  0.00    +0.033 A 
ATOM     13  C   UNL     1      -7.656   6.028   0.445  0.00  0.00    +0.137 A 
ATOM     14  C   UNL     1      -8.018   5.088  -0.522  0.00  0.00    +0.047 A 
ATOM     15  C   UNL     1      -8.927   5.440  -1.523  0.00  0.00    +0.014 A 
BRANCH  13  16
ATOM     16  N   UNL     1      -6.698   5.662   1.512  0.00  0.00    +0.057 N 
ATOM     17  O   UNL     1      -6.383   6.483   2.355  0.00  0.00    -0.126 OA
ATOM     18  O   UNL     1      -6.225   4.541   1.548  0.00  0.00    -0.126 OA
ENDBRANCH  13  16
ENDBRANCH   5  14
ENDBRANCH   1   8
BRANCH   3  19
ATOM     19  C   UNL     1      -2.394   1.385  -0.081  0.00  0.00    +0.141 C 
ATOM     20  S   UNL     1      -2.378  -0.327  -0.090  0.00  0.00    -0.018 S 
BRANCH  19  21
ATOM     21  N   UNL     1      -1.237   2.069   0.019  0.00  0.00    -0.296 N 
ATOM     22  H   UNL     1      -1.250   3.037   0.088  0.00  0.00    +0.154 HD
BRANCH  21  23
ATOM     23  C   UNL     1      -0.017   1.384   0.024  0.00  0.00    +0.044 A 
ATOM     24  C   UNL     1       0.153   0.273   0.840  0.00  0.00    +0.025 A 
ATOM     25  C   UNL     1       1.356  -0.405   0.839  0.00  0.00    +0.022 A 
ATOM     26  C   UNL     1       2.391   0.021   0.025  0.00  0.00    +0.042 A 
ATOM     27  C   UNL     1       2.224   1.127  -0.789  0.00  0.00    +0.034 A 
ATOM     28  C   UNL     1       1.023   1.809  -0.792  0.00  0.00    +0.077 A 
ATOM     29 CL   UNL     1       3.903  -0.833   0.026  0.00  0.00    -0.084 Cl
BRANCH  28  30
ATOM     30  C   UNL     1       0.841   3.013  -1.679  0.00  0.00    +0.419 C 
ATOM     31  F   UNL     1       2.018   3.244  -2.400  0.00  0.00    -0.166 F 
ATOM     32  F   UNL     1      -0.213   2.782  -2.569  0.00  0.00    -0.166 F 
ATOM     33  F   UNL     1       0.549   4.133  -0.892  0.00  0.00    -0.166 F 
ENDBRANCH  28  30
ENDBRANCH  21  23
ENDBRANCH  19  21
ENDBRANCH   3  19
TORSDOF 7
