REMARK  Name = ZINC13222360
REMARK  9 active torsions:
REMARK  status: ('A' for Active; 'I' for Inactive)
REMARK    1  A    between atoms: C_1  and  C_2
REMARK    2  A    between atoms: C_3  and  C_30
REMARK    3  A    between atoms: C_4  and  C_29
REMARK    4  A    between atoms: C_9  and  S_11
REMARK    5  A    between atoms: S_11  and  C_12
REMARK    6  A    between atoms: C_12  and  C_13
REMARK    7  A    between atoms: N_15  and  C_16
REMARK    8  A    between atoms: N_15  and  C_24
REMARK    9  A    between atoms: C_30  and  C_31
REMARK                            x       y       z     vdW  Elec       q    Type
REMARK                         _______ _______ _______ _____ _____    ______ ____
ROOT
ATOM      1  S   UNL     1       2.710  -5.551  -0.044  0.00  0.00    -0.075 S 
ENDROOT
BRANCH   1  10
ATOM      2  C   UNL     1      -0.019   1.502   0.004  0.00  0.00    +0.066 C 
ATOM      3  C   UNL     1       0.002  -0.004  -0.003  0.00  0.00    +0.047 A 
ATOM      4  C   UNL     1      -1.202  -0.718  -0.001  0.00  0.00    +0.006 A 
ATOM      5  C   UNL     1      -1.169  -2.076  -0.008  0.00  0.00    +0.049 A 
ATOM      6  N   UNL     1       0.034  -2.706  -0.017  0.00  0.00    -0.200 N 
ATOM      7  C   UNL     1       1.192  -1.980  -0.018  0.00  0.00    +0.254 A 
ATOM      8  N   UNL     1       1.150  -0.643  -0.017  0.00  0.00    -0.216 NA
ATOM      9  N   UNL     1       2.202  -2.844  -0.028  0.00  0.00    -0.183 NA
ATOM     10  C   UNL     1       1.728  -4.088  -0.032  0.00  0.00    +0.211 A 
ATOM     11  N   UNL     1       0.410  -4.056  -0.025  0.00  0.00    -0.137 NA
ATOM     12  C   UNL     1      -2.449  -2.872  -0.005  0.00  0.00    +0.066 C 
BRANCH   4  13
ATOM     13  C   UNL     1      -2.521   0.012   0.010  0.00  0.00    +0.163 C 
BRANCH  13  14
ATOM     14  C   UNL     1      -2.893   0.356   1.429  0.00  0.00    +0.360 C 
ATOM     15  O   UNL     1      -2.156   0.038   2.347  0.00  0.00    -0.246 OA
ATOM     16  O   UNL     1      -3.931   0.953   1.659  0.00  0.00    -0.246 OA
ENDBRANCH  13  14
ENDBRANCH   4  13
ENDBRANCH   1  10
BRANCH   1  17
ATOM     17  C   UNL     1       4.416  -4.935  -0.049  0.00  0.00    +0.173 C 
BRANCH  17  18
ATOM     18  C   UNL     1       5.371  -6.101  -0.060  0.00  0.00    +0.226 C 
ATOM     19  O   UNL     1       4.947  -7.233   0.028  0.00  0.00    -0.275 OA
ATOM     20  N   UNL     1       6.697  -5.884  -0.167  0.00  0.00    -0.293 N 
BRANCH  20  21
ATOM     21  C   UNL     1       7.617  -7.018  -0.289  0.00  0.00    +0.099 C 
ATOM     22  C   UNL     1       7.253  -7.850  -1.530  0.00  0.00    +0.046 C 
ATOM     23  C   UNL     1       7.997  -9.207  -1.492  0.00  0.00    +0.168 C 
ATOM     24  S   UNL     1       8.218  -9.496   0.310  0.00  0.00    -0.029 S 
ATOM     25  O   UNL     1       9.607  -9.519   0.608  0.00  0.00    -0.174 OA
ATOM     26  O   UNL     1       7.400 -10.588   0.707  0.00  0.00    -0.174 OA
ATOM     27  C   UNL     1       7.491  -7.934   0.961  0.00  0.00    +0.188 C 
ENDBRANCH  20  21
BRANCH  20  28
ATOM     28  C   UNL     1       7.219  -4.515  -0.162  0.00  0.00    +0.076 C 
ATOM     29  C   UNL     1       7.926  -4.214  -1.499  0.00  0.00    +0.022 C 
ATOM     30  C   UNL     1       9.135  -3.333  -1.099  0.00  0.00    +0.002 C 
ATOM     31  C   UNL     1       9.595  -3.970   0.236  0.00  0.00    +0.002 C 
ATOM     32  C   UNL     1       8.280  -4.360   0.942  0.00  0.00    +0.022 C 
ENDBRANCH  20  28
ENDBRANCH  17  18
ENDBRANCH   1  17
TORSDOF 7
