REMARK  Name = ZINC39022429
REMARK  6 active torsions:
REMARK  status: ('A' for Active; 'I' for Inactive)
REMARK    1  A    between atoms: C_1  and  C_2
REMARK    2  A    between atoms: C_2  and  C_3
REMARK    3  A    between atoms: C_2  and  C_4
REMARK    4  A    between atoms: C_2  and  C_5
REMARK    5  A    between atoms: N_19  and  N_20
REMARK    6  A    between atoms: C_26  and  N_31
REMARK                            x       y       z     vdW  Elec       q    Type
REMARK                         _______ _______ _______ _____ _____    ______ ____
ROOT
ATOM      1  C   UNL     1       0.707  -0.490  -1.238  0.00  0.00    -0.041 A 
ATOM      2  C   UNL     1       0.009  -1.294  -2.149  0.00  0.00    +0.006 A 
ATOM      3  C   UNL     1       0.570  -1.764  -3.284  0.00  0.00    +0.026 A 
ATOM      4  C   UNL     1       1.919  -1.453  -3.603  0.00  0.00    +0.043 A 
ATOM      5  N   UNL     1       2.682  -1.807  -4.614  0.00  0.00    -0.372 N 
ATOM      6  C   UNL     1       3.958  -1.112  -4.493  0.00  0.00    +0.153 C 
ATOM      7  C   UNL     1       3.928  -0.451  -3.123  0.00  0.00    -0.033 C 
ATOM      8  C   UNL     1       2.685  -0.611  -2.650  0.00  0.00    -0.000 A 
ATOM      9  C   UNL     1       1.995  -0.134  -1.445  0.00  0.00    +0.014 A 
ATOM     10  C   UNL     1       5.159   0.140  -2.485  0.00  0.00    +0.034 C 
ATOM     11  C   UNL     1       6.240  -0.953  -2.496  0.00  0.00    +0.010 C 
ATOM     12  C   UNL     1       6.439  -1.499  -3.909  0.00  0.00    +0.055 C 
ATOM     13  C   UNL     1       5.140  -2.056  -4.469  0.00  0.00    +0.067 C 
ATOM     14  N   UNL     1       5.044  -3.282  -4.894  0.00  0.00    -0.155 NA
ATOM     15  H   UNL     1       2.438  -2.425  -5.320  0.00  0.00    +0.161 HD
ENDROOT
BRANCH  14  16
ATOM     16  N   UNL     1       6.073  -4.059  -4.859  0.00  0.00    -0.144 NA
ATOM     17  C   UNL     1       5.976  -5.298  -5.288  0.00  0.00    +0.157 C 
ATOM     18  C   UNL     1       7.038  -6.326  -5.319  0.00  0.00    +0.032 A 
ATOM     19  C   UNL     1       8.376  -6.325  -4.937  0.00  0.00    +0.027 A 
ATOM     20  C   UNL     1       9.134  -7.469  -5.092  0.00  0.00    +0.021 A 
ATOM     21  C   UNL     1       8.562  -8.613  -5.626  0.00  0.00    +0.050 A 
ATOM     22  C   UNL     1       7.235  -8.623  -6.008  0.00  0.00    +0.149 A 
ATOM     23  C   UNL     1       6.456  -7.482  -5.860  0.00  0.00    +0.074 A 
ATOM     24  N   UNL     1       5.121  -7.229  -6.159  0.00  0.00    -0.278 N 
ATOM     25  C   UNL     1       4.776  -5.970  -5.841  0.00  0.00    +0.269 C 
ATOM     26  O   UNL     1       3.677  -5.470  -5.985  0.00  0.00    -0.268 OA
ATOM     27 BR   UNL     1      10.953  -7.475  -4.576  0.00  0.00    -0.050 Br
ATOM     28  H   UNL     1       4.514  -7.882  -6.543  0.00  0.00    +0.155 HD
BRANCH  22  29
ATOM     29  N   UNL     1       6.640  -9.854  -6.577  0.00  0.00    +0.058 N 
ATOM     30  O   UNL     1       7.316 -10.848  -6.707  0.00  0.00    -0.126 OA
ATOM     31  O   UNL     1       5.479  -9.864  -6.913  0.00  0.00    -0.126 OA
ENDBRANCH  22  29
ENDBRANCH  14  16
BRANCH   1  33
ATOM     32  C   UNL     1      -0.019   1.526   0.010  0.00  0.00    +0.015 C 
ATOM     33  C   UNL     1       0.002  -0.004   0.002  0.00  0.00    -0.013 C 
ATOM     34  C   UNL     1       0.742  -0.511   1.242  0.00  0.00    +0.015 C 
ATOM     35  C   UNL     1      -1.433  -0.534   0.013  0.00  0.00    +0.015 C 
ENDBRANCH   1  33
TORSDOF 3
