REMARK  Name = ZINC05182161
REMARK  2 active torsions:
REMARK  status: ('A' for Active; 'I' for Inactive)
REMARK    1  A    between atoms: C_9  and  C_12
REMARK    2  A    between atoms: C_9  and  C_14
REMARK                            x       y       z     vdW  Elec       q    Type
REMARK                         _______ _______ _______ _____ _____    ______ ____
ROOT
ATOM      1  C   UNL     1      -2.259  -3.085   5.004  0.00  0.00    +0.000 C 
ATOM      2  C   UNL     1      -3.079  -2.720   3.765  0.00  0.00    +0.001 C 
ATOM      3  C   UNL     1      -2.283  -3.072   2.506  0.00  0.00    +0.007 C 
ATOM      4  C   UNL     1      -0.969  -2.289   2.498  0.00  0.00    -0.029 C 
ATOM      5  C   UNL     1      -0.150  -2.654   3.737  0.00  0.00    +0.007 C 
ATOM      6  C   UNL     1      -0.945  -2.302   4.996  0.00  0.00    +0.001 C 
ATOM      7  C   UNL     1      -0.174  -2.641   1.239  0.00  0.00    +0.008 C 
ATOM      8  C   UNL     1      -0.993  -2.276  -0.001  0.00  0.00    +0.030 C 
ATOM      9  C   UNL     1      -1.293  -0.775   0.010  0.00  0.00    +0.172 C 
ATOM     10  C   UNL     1      -2.088  -0.423   1.269  0.00  0.00    +0.030 C 
ATOM     11  C   UNL     1      -1.269  -0.789   2.509  0.00  0.00    +0.008 C 
ENDROOT
BRANCH   9  12
ATOM     12  C   UNL     1       0.002  -0.004   0.002  0.00  0.00    +0.373 C 
ATOM     13  O   UNL     1       1.056  -0.594  -0.011  0.00  0.00    -0.245 OA
ATOM     14  O   UNL     1      -0.016   1.338   0.009  0.00  0.00    -0.245 OA
ENDBRANCH   9  12
BRANCH   9  15
ATOM     15  C   UNL     1      -2.099  -0.415  -1.211  0.00  0.00    +0.373 C 
ATOM     16  O   UNL     1      -2.403  -1.271  -2.008  0.00  0.00    -0.245 OA
ATOM     17  O   UNL     1      -2.480   0.856  -1.413  0.00  0.00    -0.245 OA
ENDBRANCH   9  15
TORSDOF 2
