REMARK  Name = ZINC10886718
REMARK  7 active torsions:
REMARK  status: ('A' for Active; 'I' for Inactive)
REMARK    1  A    between atoms: C_1  and  O_2
REMARK    2  A    between atoms: O_2  and  C_3
REMARK    3  A    between atoms: C_3  and  C_5
REMARK    4  A    between atoms: C_16  and  C_18
REMARK    5  A    between atoms: C_18  and  S_19
REMARK    6  A    between atoms: S_19  and  C_20
REMARK    7  A    between atoms: N_24  and  C_25
REMARK                            x       y       z     vdW  Elec       q    Type
REMARK                         _______ _______ _______ _____ _____    ______ ____
ROOT
ATOM      1  C   UNL     1      -0.760   1.514  -1.241  0.00  0.00    +0.189 C 
ATOM      2  C   UNL     1      -1.859   0.459  -1.121  0.00  0.00    +0.069 C 
ATOM      3  C   UNL     1      -2.514   0.520   0.234  0.00  0.00    -0.040 A 
ATOM      4  C   UNL     1      -3.770  -0.060   0.368  0.00  0.00    +0.004 A 
ATOM      5  C   UNL     1      -4.422  -0.049   1.583  0.00  0.00    +0.000 A 
ATOM      6  C   UNL     1      -3.822   0.541   2.680  0.00  0.00    +0.000 A 
ATOM      7  C   UNL     1      -2.576   1.120   2.549  0.00  0.00    +0.005 A 
ATOM      8  C   UNL     1      -1.921   1.113   1.325  0.00  0.00    -0.027 A 
ATOM      9  C   UNL     1      -0.567   1.773   1.248  0.00  0.00    +0.144 C 
ATOM     10  N   UNL     1       0.072   1.440  -0.029  0.00  0.00    -0.283 N 
ATOM     11  C   UNL     1       1.370   1.080  -0.091  0.00  0.00    +0.227 C 
ATOM     12  O   UNL     1       1.896   0.892  -1.167  0.00  0.00    -0.275 OA
ENDROOT
BRANCH   1  13
ATOM     13  C   UNL     1       0.084   1.235  -2.458  0.00  0.00    +0.328 C 
ATOM     14  O   UNL     1       0.370   2.133  -3.214  0.00  0.00    -0.249 OA
BRANCH  13  16
ATOM     15  C   UNL     1       1.326  -0.207  -3.893  0.00  0.00    +0.280 C 
ATOM     16  O   UNL     1       0.518  -0.012  -2.702  0.00  0.00    -0.467 OA
ENDBRANCH  13  16
ENDBRANCH   1  13
BRANCH  11  17
ATOM     17  C   UNL     1       2.167   0.912   1.177  0.00  0.00    +0.173 C 
BRANCH  17  18
ATOM     18  S   UNL     1       3.861   0.429   0.765  0.00  0.00    -0.078 S 
BRANCH  18  19
ATOM     19  C   UNL     1       4.546   0.306   2.384  0.00  0.00    +0.174 A 
ATOM     20  N   UNL     1       3.907   0.533   3.508  0.00  0.00    -0.230 NA
ATOM     21  C   UNL     1       4.743   0.341   4.542  0.00  0.00    +0.131 A 
ATOM     22  C   UNL     1       5.946  -0.010   4.056  0.00  0.00    +0.113 A 
ATOM     23  N   UNL     1       5.832  -0.035   2.683  0.00  0.00    -0.295 N 
BRANCH  23  24
ATOM     24  C   UNL     1       6.846  -0.353   1.767  0.00  0.00    +0.049 A 
ATOM     25  C   UNL     1       6.614  -1.289   0.769  0.00  0.00    +0.027 A 
ATOM     26  C   UNL     1       7.612  -1.596  -0.134  0.00  0.00    +0.017 A 
ATOM     27  C   UNL     1       8.847  -0.979  -0.039  0.00  0.00    +0.018 A 
ATOM     28  C   UNL     1       9.083  -0.049   0.958  0.00  0.00    +0.017 A 
ATOM     29  C   UNL     1       8.086   0.265   1.861  0.00  0.00    +0.027 A 
ATOM     30 BR   UNL     1      10.213  -1.407  -1.274  0.00  0.00    -0.050 Br
ENDBRANCH  23  24
ENDBRANCH  18  19
ENDBRANCH  17  18
ENDBRANCH  11  17
TORSDOF 6
