REMARK  Name = ZINC39007525
REMARK  12 active torsions:
REMARK  status: ('A' for Active; 'I' for Inactive)
REMARK    1  A    between atoms: C_1  and  C_2
REMARK    2  A    between atoms: C_2  and  O_3
REMARK    3  A    between atoms: O_3  and  C_4
REMARK    4  A    between atoms: C_4  and  C_6
REMARK    5  A    between atoms: C_8  and  N_18
REMARK    6  A    between atoms: C_11  and  O_16
REMARK    7  A    between atoms: O_16  and  C_17
REMARK    8  A    between atoms: C_19  and  C_21
REMARK    9  A    between atoms: C_21  and  N_22
REMARK   10  A    between atoms: N_25  and  C_28
REMARK   11  A    between atoms: C_30  and  C_35
REMARK   12  A    between atoms: C_33  and  C_34
REMARK                            x       y       z     vdW  Elec       q    Type
REMARK                         _______ _______ _______ _____ _____    ______ ____
ROOT
ATOM      1  N   UNL     1       3.915  -1.278  -2.003  0.00  0.00    -0.285 N 
ATOM      2  C   UNL     1       5.242  -1.501  -1.941  0.00  0.00    +0.231 C 
ATOM      3  O   UNL     1       5.687  -2.595  -2.217  0.00  0.00    -0.274 OA
ATOM      4  H   UNL     1       3.566  -0.384  -1.864  0.00  0.00    +0.155 HD
ENDROOT
BRANCH   1   6
ATOM      5  C   UNL     1       3.431  -3.727  -2.640  0.00  0.00    +0.234 C 
ATOM      6  C   UNL     1       3.061  -2.310  -2.261  0.00  0.00    +0.053 C 
ATOM      7  C   UNL     1       1.679  -2.278  -2.229  0.00  0.00    +0.021 A 
ATOM      8  C   UNL     1       0.754  -1.244  -1.941  0.00  0.00    +0.057 A 
ATOM      9  C   UNL     1      -0.580  -1.503  -1.986  0.00  0.00    +0.121 A 
ATOM     10  C   UNL     1      -1.069  -2.775  -2.313  0.00  0.00    +0.047 A 
ATOM     11  C   UNL     1      -0.241  -3.808  -2.599  0.00  0.00    +0.029 A 
ATOM     12  C   UNL     1       1.165  -3.615  -2.573  0.00  0.00    +0.045 A 
ATOM     13  N   UNL     1       2.164  -4.446  -2.807  0.00  0.00    -0.367 N 
ATOM     14  H   UNL     1       2.074  -5.380  -3.051  0.00  0.00    +0.161 HD
BRANCH   5  15
ATOM     15  C   UNL     1       4.205  -3.733  -3.933  0.00  0.00    +0.336 C 
ATOM     16  O   UNL     1       3.632  -3.557  -4.982  0.00  0.00    -0.248 OA
BRANCH  15  17
ATOM     17  O   UNL     1       5.532  -3.935  -3.919  0.00  0.00    -0.463 OA
BRANCH  17  19
ATOM     18  C   UNL     1       7.698  -4.173  -4.966  0.00  0.00    +0.048 C 
ATOM     19  C   UNL     1       6.203  -3.928  -5.181  0.00  0.00    +0.229 C 
ENDBRANCH  17  19
ENDBRANCH  15  17
ENDBRANCH   5  15
BRANCH   9  20
ATOM     20  O   UNL     1      -1.460  -0.503  -1.708  0.00  0.00    -0.495 OA
ATOM     21  C   UNL     1      -2.850  -0.828  -1.769  0.00  0.00    +0.277 C 
ENDBRANCH   9  20
ENDBRANCH   1   6
BRANCH   2  22
ATOM     22  C   UNL     1       6.174  -0.391  -1.528  0.00  0.00    +0.180 C 
BRANCH  22  23
ATOM     23  N   UNL     1       7.558  -0.884  -1.540  0.00  0.00    -0.291 NA
ATOM     24  C   UNL     1       7.758  -1.917  -0.514  0.00  0.00    +0.104 C 
ATOM     25  C   UNL     1       9.152  -2.531  -0.676  0.00  0.00    +0.120 C 
ATOM     26  N   UNL     1      10.145  -1.445  -0.667  0.00  0.00    -0.327 N 
ATOM     27  C   UNL     1       9.938  -0.305  -1.573  0.00  0.00    +0.120 C 
ATOM     28  C   UNL     1       8.512   0.221  -1.375  0.00  0.00    +0.104 C 
BRANCH  26  29
ATOM     29  C   UNL     1      11.254  -1.495   0.180  0.00  0.00    +0.033 A 
ATOM     30  C   UNL     1      12.436  -2.081  -0.255  0.00  0.00    +0.026 A 
ATOM     31  C   UNL     1      13.531  -2.129   0.585  0.00  0.00    -0.049 A 
ATOM     32  C   UNL     1      13.452  -1.594   1.858  0.00  0.00    +0.004 A 
ATOM     33  C   UNL     1      12.277  -1.011   2.294  0.00  0.00    +0.005 A 
ATOM     34  C   UNL     1      11.179  -0.954   1.457  0.00  0.00    -0.029 A 
ATOM     35  C   UNL     1       9.901  -0.312   1.931  0.00  0.00    +0.045 C 
ATOM     36  C   UNL     1      14.814  -2.764   0.114  0.00  0.00    +0.044 C 
ENDBRANCH  26  29
ENDBRANCH  22  23
ENDBRANCH   2  22
TORSDOF 8
