REMARK  Name = ZINC11866902
REMARK  9 active torsions:
REMARK  status: ('A' for Active; 'I' for Inactive)
REMARK    1  A    between atoms: C_1  and  C_2
REMARK    2  A    between atoms: C_2  and  C_3
REMARK    3  A    between atoms: C_10  and  O_15
REMARK    4  A    between atoms: C_12  and  C_14
REMARK    5  A    between atoms: O_15  and  C_16
REMARK    6  A    between atoms: C_16  and  C_18
REMARK    7  A    between atoms: C_16  and  C_19
REMARK    8  A    between atoms: C_24  and  O_40
REMARK    9  A    between atoms: C_31  and  C_33
REMARK                            x       y       z     vdW  Elec       q    Type
REMARK                         _______ _______ _______ _____ _____    ______ ____
ROOT
ATOM      1  C   UNL     1      -4.732  -0.262   0.538  0.00  0.00    +0.257 C 
ATOM      2  O   UNL     1      -4.582   0.878   0.924  0.00  0.00    -0.272 OA
ATOM      3  N   UNL     1      -5.931  -0.863   0.661  0.00  0.00    -0.291 N 
ATOM      4  C   UNL     1      -6.129  -2.244   0.198  0.00  0.00    +0.111 C 
ATOM      5  C   UNL     1      -6.705  -3.071   1.350  0.00  0.00    +0.054 C 
ATOM      6  C   UNL     1      -7.978  -2.398   1.872  0.00  0.00    +0.072 C 
ATOM      7  C   UNL     1      -8.567  -3.244   3.003  0.00  0.00    +0.035 C 
ATOM      8  C   UNL     1      -9.829  -2.580   3.543  0.00  0.00    +0.003 C 
ATOM      9  C   UNL     1      -9.484  -1.188   4.077  0.00  0.00    +0.001 C 
ATOM     10  C   UNL     1      -8.906  -0.339   2.944  0.00  0.00    +0.008 C 
ATOM     11  C   UNL     1      -7.638  -1.003   2.401  0.00  0.00    +0.046 C 
ATOM     12  C   UNL     1      -7.067  -0.154   1.266  0.00  0.00    +0.112 C 
ENDROOT
BRANCH  12  13
ATOM     13  C   UNL     1      -8.133   0.074   0.225  0.00  0.00    -0.027 A 
ATOM     14  C   UNL     1      -7.971  -0.432  -1.051  0.00  0.00    +0.007 A 
ATOM     15  C   UNL     1      -8.951  -0.228  -2.004  0.00  0.00    +0.020 A 
ATOM     16  C   UNL     1     -10.088   0.491  -1.684  0.00  0.00    +0.041 A 
ATOM     17  C   UNL     1     -10.247   1.002  -0.408  0.00  0.00    +0.020 A 
ATOM     18  C   UNL     1      -9.269   0.793   0.546  0.00  0.00    +0.007 A 
ATOM     19 CL   UNL     1     -11.316   0.754  -2.883  0.00  0.00    -0.084 Cl
ENDBRANCH  12  13
BRANCH   1  20
ATOM     20  C   UNL     1      -3.576  -1.005  -0.080  0.00  0.00    +0.256 C 
ATOM     21  C   UNL     1      -3.885  -1.300  -1.549  0.00  0.00    +0.062 C 
BRANCH  20  22
ATOM     22  O   UNL     1      -2.394  -0.206   0.007  0.00  0.00    -0.479 OA
BRANCH  22  30
ATOM     23  C   UNL     1       0.000   1.328  -0.007  0.00  0.00    -0.027 A 
ATOM     24  C   UNL     1       1.198   1.969  -0.017  0.00  0.00    +0.096 A 
ATOM     25  C   UNL     1       2.393   1.220  -0.065  0.00  0.00    +0.337 A 
ATOM     26  O   UNL     1       3.460   1.807  -0.074  0.00  0.00    -0.245 OA
ATOM     27  O   UNL     1       2.383  -0.121  -0.101  0.00  0.00    -0.422 OA
ATOM     28  C   UNL     1       1.227  -0.819  -0.092  0.00  0.00    +0.143 A 
ATOM     29  C   UNL     1      -0.002  -0.135  -0.046  0.00  0.00    +0.062 A 
ATOM     30  C   UNL     1      -1.205  -0.858  -0.038  0.00  0.00    +0.133 A 
ATOM     31  C   UNL     1      -1.168  -2.241  -0.076  0.00  0.00    +0.050 A 
ATOM     32  C   UNL     1       0.046  -2.906  -0.121  0.00  0.00    -0.043 A 
ATOM     33  C   UNL     1       1.235  -2.206  -0.129  0.00  0.00    +0.050 A 
ATOM     34  C   UNL     1       0.068  -4.412  -0.162  0.00  0.00    +0.044 C 
BRANCH  23  36
ATOM     35  C   UNL     1      -1.767   2.219   1.487  0.00  0.00    +0.009 C 
ATOM     36  C   UNL     1      -1.292   2.103   0.038  0.00  0.00    +0.033 C 
ENDBRANCH  23  36
ENDBRANCH  22  30
ENDBRANCH  20  22
ENDBRANCH   1  20
BRANCH   6  37
ATOM     37  O   UNL     1      -8.928  -2.287   0.811  0.00  0.00    -0.388 OA
ATOM     38  H   UNL     1      -9.191  -3.135   0.428  0.00  0.00    +0.210 HD
ENDBRANCH   6  37
TORSDOF 6
