REMARK  Name = ZINC35890797
REMARK  7 active torsions:
REMARK  status: ('A' for Active; 'I' for Inactive)
REMARK    1  A    between atoms: C_1  and  C_2
REMARK    2  A    between atoms: C_2  and  N_3
REMARK    3  A    between atoms: C_13  and  C_26
REMARK    4  A    between atoms: C_14  and  C_25
REMARK    5  A    between atoms: C_16  and  C_18
REMARK    6  A    between atoms: C_21  and  C_24
REMARK    7  A    between atoms: C_26  and  C_27
REMARK                            x       y       z     vdW  Elec       q    Type
REMARK                         _______ _______ _______ _____ _____    ______ ____
ROOT
ATOM      1  N   UNL     1       4.104  -0.318  -0.229  0.00  0.00    -0.300 N 
ATOM      2  C   UNL     1       3.341  -0.281  -1.339  0.00  0.00    +0.302 C 
ATOM      3  O   UNL     1       2.228   0.207  -1.295  0.00  0.00    -0.253 OA
ATOM      4  N   UNL     1       3.811  -0.784  -2.497  0.00  0.00    -0.283 N 
ATOM      5  C   UNL     1       5.110  -1.470  -2.542  0.00  0.00    +0.128 C 
ATOM      6  C   UNL     1       4.905  -2.868  -3.138  0.00  0.00    +0.125 C 
ATOM      7  N   UNL     1       4.127  -2.742  -4.378  0.00  0.00    -0.312 N 
ATOM      8  C   UNL     1       2.828  -2.056  -4.333  0.00  0.00    +0.125 C 
ATOM      9  C   UNL     1       3.030  -0.662  -3.737  0.00  0.00    +0.128 C 
ATOM     10  C   UNL     1       4.610  -3.259  -5.569  0.00  0.00    +0.129 A 
ATOM     11  C   UNL     1       4.444  -4.613  -5.873  0.00  0.00    +0.018 A 
ATOM     12  C   UNL     1       4.941  -5.085  -7.073  0.00  0.00    +0.047 A 
ATOM     13  N   UNL     1       5.558  -4.248  -7.893  0.00  0.00    -0.232 NA
ATOM     14  C   UNL     1       5.702  -2.968  -7.579  0.00  0.00    +0.162 A 
ATOM     15  N   UNL     1       5.234  -2.474  -6.441  0.00  0.00    -0.212 NA
ATOM     16  C   UNL     1       4.785  -6.537  -7.443  0.00  0.00    +0.066 C 
ATOM     17  H   UNL     1       4.962  -0.771  -0.245  0.00  0.00    +0.150 HD
ENDROOT
BRANCH  14  18
ATOM     18  C   UNL     1       6.399  -2.065  -8.526  0.00  0.00    +0.019 A 
ATOM     19  C   UNL     1       6.567  -0.717  -8.213  0.00  0.00    +0.012 A 
ATOM     20  C   UNL     1       7.217   0.118  -9.099  0.00  0.00    +0.004 A 
ATOM     21  C   UNL     1       7.702  -0.380 -10.295  0.00  0.00    -0.050 A 
ATOM     22  C   UNL     1       7.538  -1.716 -10.611  0.00  0.00    +0.004 A 
ATOM     23  C   UNL     1       6.895  -2.562  -9.731  0.00  0.00    +0.012 A 
ATOM     24  C   UNL     1       8.410   0.538 -11.258  0.00  0.00    +0.044 C 
ENDBRANCH  14  18
BRANCH   1  26
ATOM     25  C   UNL     1       4.686   0.138   2.103  0.00  0.00    +0.024 C 
ATOM     26  C   UNL     1       3.639   0.326   1.002  0.00  0.00    +0.102 C 
ENDBRANCH   1  26
BRANCH  11  27
ATOM     27  C   UNL     1       3.737  -5.537  -4.915  0.00  0.00    +0.075 C 
BRANCH  27  28
ATOM     28  C   UNL     1       2.281  -5.635  -5.294  0.00  0.00    -0.043 A 
ATOM     29  C   UNL     1       1.354  -4.803  -4.695  0.00  0.00    +0.004 A 
ATOM     30  C   UNL     1       0.019  -4.894  -5.043  0.00  0.00    +0.000 A 
ATOM     31  C   UNL     1      -0.388  -5.816  -5.988  0.00  0.00    +0.000 A 
ATOM     32  C   UNL     1       0.539  -6.648  -6.587  0.00  0.00    +0.000 A 
ATOM     33  C   UNL     1       1.875  -6.554  -6.243  0.00  0.00    +0.004 A 
ENDBRANCH  27  28
ENDBRANCH  11  27
TORSDOF 4
