REMARK  Name = ZINC24788674
REMARK  14 active torsions:
REMARK  status: ('A' for Active; 'I' for Inactive)
REMARK    1  A    between atoms: C_1  and  C_2
REMARK    2  A    between atoms: C_2  and  C_4
REMARK    3  A    between atoms: C_2  and  N_14
REMARK    4  A    between atoms: C_6  and  O_12
REMARK    5  A    between atoms: C_9  and  O_10
REMARK    6  A    between atoms: O_10  and  C_11
REMARK    7  A    between atoms: O_12  and  C_13
REMARK    8  A    between atoms: C_15  and  C_17
REMARK    9  A    between atoms: C_17  and  N_18
REMARK   10  A    between atoms: C_23  and  O_36
REMARK   11  A    between atoms: C_24  and  O_34
REMARK   12  A    between atoms: C_27  and  C_29
REMARK   13  A    between atoms: O_34  and  C_35
REMARK   14  A    between atoms: O_36  and  C_37
REMARK                            x       y       z     vdW  Elec       q    Type
REMARK                         _______ _______ _______ _____ _____    ______ ____
ROOT
ATOM      1  N   UNL     1       1.974   5.482   1.019  0.00  0.00    +0.393 N 
ATOM      2  C   UNL     1       2.928   6.595   1.147  0.00  0.00    -0.072 C 
ATOM      3  C   UNL     1       2.779   7.503  -0.074  0.00  0.00    +0.017 C 
ATOM      4  C   UNL     1       2.835   6.682  -1.337  0.00  0.00    -0.043 A 
ATOM      5  C   UNL     1       3.071   7.335  -2.538  0.00  0.00    +0.053 A 
ATOM      6  C   UNL     1       3.125   6.624  -3.722  0.00  0.00    +0.162 A 
ATOM      7  C   UNL     1       2.943   5.244  -3.706  0.00  0.00    +0.162 A 
ATOM      8  C   UNL     1       2.710   4.597  -2.506  0.00  0.00    +0.052 A 
ATOM      9  C   UNL     1       2.657   5.315  -1.319  0.00  0.00    -0.049 A 
ATOM     10  C   UNL     1       2.404   4.563  -0.039  0.00  0.00    +0.001 C 
ATOM     11  H   UNL     1       0.991   5.892   0.742  0.00  0.00    -0.080 HD
ENDROOT
BRANCH  10  12
ATOM     12  C   UNL     1       1.329   3.533  -0.271  0.00  0.00    -0.019 A 
ATOM     13  C   UNL     1       1.456   2.204  -0.503  0.00  0.00    +0.010 A 
ATOM     14  C   UNL     1       0.317   1.444  -0.690  0.00  0.00    +0.008 A 
ATOM     15  C   UNL     1      -0.894   2.051  -0.641  0.00  0.00    +0.045 A 
ATOM     16  S   UNL     1      -0.443   3.747  -0.312  0.00  0.00    -0.103 S 
ENDBRANCH  10  12
BRANCH   7  17
ATOM     17  O   UNL     1       2.993   4.535  -4.865  0.00  0.00    -0.491 OA
ATOM     18  C   UNL     1       2.796   3.122  -4.771  0.00  0.00    +0.277 C 
ENDBRANCH   7  17
BRANCH   6  19
ATOM     19  O   UNL     1       3.357   7.269  -4.897  0.00  0.00    -0.491 OA
ATOM     20  C   UNL     1       3.534   8.685  -4.835  0.00  0.00    +0.277 C 
ENDBRANCH   6  19
BRANCH   1  21
ATOM     21  C   UNL     1       1.815   4.775   2.298  0.00  0.00    +0.020 C 
BRANCH  21  23
ATOM     22  N   UNL     1       3.278   3.701   3.979  0.00  0.00    -0.310 N 
ATOM     23  C   UNL     1       3.158   4.278   2.766  0.00  0.00    +0.197 C 
ATOM     24  O   UNL     1       4.132   4.396   2.053  0.00  0.00    -0.278 OA
ATOM     25  H   UNL     1       2.395   3.594   4.626  0.00  0.00    +0.149 HD
BRANCH  22  27
ATOM     26  C   UNL     1       4.818   1.803   3.901  0.00  0.00    +0.033 C 
ATOM     27  C   UNL     1       4.583   3.218   4.434  0.00  0.00    +0.104 C 
BRANCH  27  28
ATOM     28  C   UNL     1       4.614   3.198   5.941  0.00  0.00    +0.018 A 
ATOM     29  C   UNL     1       3.436   3.089   6.654  0.00  0.00    +0.054 A 
ATOM     30  C   UNL     1       3.464   3.070   8.041  0.00  0.00    +0.121 A 
ATOM     31  C   UNL     1       4.675   3.161   8.711  0.00  0.00    +0.049 A 
ATOM     32  C   UNL     1       5.853   3.270   7.998  0.00  0.00    +0.049 A 
ATOM     33  C   UNL     1       5.825   3.283   6.611  0.00  0.00    +0.125 A 
BRANCH  33  34
ATOM     34  O   UNL     1       6.985   3.385   5.909  0.00  0.00    -0.495 OA
ATOM     35  C   UNL     1       8.195   3.469   6.664  0.00  0.00    +0.277 C 
ENDBRANCH  33  34
BRANCH  30  36
ATOM     36  O   UNL     1       2.305   2.963   8.743  0.00  0.00    -0.495 OA
ATOM     37  C   UNL     1       2.408   2.950  10.168  0.00  0.00    +0.277 C 
ENDBRANCH  30  36
ENDBRANCH  27  28
ENDBRANCH  22  27
ENDBRANCH  21  23
ENDBRANCH   1  21
TORSDOF 9
