REMARK  Name = ZINC14697620
REMARK  10 active torsions:
REMARK  status: ('A' for Active; 'I' for Inactive)
REMARK    1  A    between atoms: C_1  and  S_2
REMARK    2  A    between atoms: S_2  and  C_3
REMARK    3  A    between atoms: C_8  and  C_9
REMARK    4  A    between atoms: N_11  and  C_12
REMARK    5  A    between atoms: N_11  and  C_20
REMARK    6  A    between atoms: C_12  and  C_13
REMARK    7  A    between atoms: C_13  and  C_14
REMARK    8  A    between atoms: C_21  and  N_36
REMARK    9  A    between atoms: N_22  and  C_29
REMARK   10  A    between atoms: C_29  and  C_30
REMARK                            x       y       z     vdW  Elec       q    Type
REMARK                         _______ _______ _______ _____ _____    ______ ____
ROOT
ATOM      1  C   UNL     1      -4.187  -1.227  -1.455  0.00  0.00    +0.252 C 
ATOM      2  O   UNL     1      -4.146  -0.013  -1.399  0.00  0.00    -0.270 OA
ATOM      3  N   UNL     1      -3.088  -1.923  -1.810  0.00  0.00    -0.260 N 
ENDROOT
BRANCH   3   4
ATOM      4  C   UNL     1      -3.143  -3.329  -1.903  0.00  0.00    +0.140 A 
ATOM      5  C   UNL     1      -3.966  -3.939  -2.827  0.00  0.00    +0.128 A 
ATOM      6  N   UNL     1      -3.994  -5.313  -2.898  0.00  0.00    -0.276 N 
ATOM      7  C   UNL     1      -3.236  -6.053  -2.068  0.00  0.00    +0.331 A 
ATOM      8  O   UNL     1      -3.279  -7.266  -2.143  0.00  0.00    -0.246 OA
ATOM      9  N   UNL     1      -2.432  -5.475  -1.158  0.00  0.00    -0.273 N 
ATOM     10  H   UNL     1      -1.879  -6.048  -0.553  0.00  0.00    +0.173 HD
ATOM     11  C   UNL     1      -2.363  -4.134  -1.051  0.00  0.00    +0.277 A 
ATOM     12  O   UNL     1      -1.631  -3.621  -0.223  0.00  0.00    -0.266 OA
BRANCH   5  13
ATOM     13  N   UNL     1      -4.745  -3.184  -3.671  0.00  0.00    -0.343 N 
ATOM     14  H   UNL     1      -4.665  -2.217  -3.669  0.00  0.00    +0.144 HD
ATOM     15  H   UNL     1      -5.374  -3.618  -4.269  0.00  0.00    +0.144 HD
ENDBRANCH   5  13
BRANCH   6  16
ATOM     16  C   UNL     1      -4.859  -5.974  -3.877  0.00  0.00    +0.163 C 
BRANCH  16  17
ATOM     17  C   UNL     1      -6.214  -6.222  -3.265  0.00  0.00    -0.028 A 
ATOM     18  C   UNL     1      -6.465  -7.406  -2.597  0.00  0.00    +0.005 A 
ATOM     19  C   UNL     1      -7.706  -7.631  -2.031  0.00  0.00    +0.000 A 
ATOM     20  C   UNL     1      -8.699  -6.676  -2.142  0.00  0.00    +0.000 A 
ATOM     21  C   UNL     1      -8.450  -5.495  -2.815  0.00  0.00    +0.000 A 
ATOM     22  C   UNL     1      -7.208  -5.267  -3.376  0.00  0.00    +0.005 A 
ENDBRANCH  16  17
ENDBRANCH   6  16
ENDBRANCH   3   4
BRANCH   1  28
ATOM     23  C   UNL     1      -6.676  -1.293  -1.288  0.00  0.00    +0.020 A 
ATOM     24  C   UNL     1      -7.848  -1.976  -0.984  0.00  0.00    +0.015 A 
ATOM     25  C   UNL     1      -7.793  -3.279  -0.537  0.00  0.00    +0.001 A 
ATOM     26  C   UNL     1      -6.572  -3.919  -0.388  0.00  0.00    +0.001 A 
ATOM     27  C   UNL     1      -5.400  -3.261  -0.688  0.00  0.00    +0.014 A 
ATOM     28  C   UNL     1      -5.438  -1.938  -1.137  0.00  0.00    +0.051 A 
BRANCH  23  30
ATOM     29  C   UNL     1      -8.515   0.755  -1.889  0.00  0.00    +0.090 C 
ATOM     30  S   UNL     1      -6.743   0.372  -1.859  0.00  0.00    -0.128 S 
ENDBRANCH  23  30
ENDBRANCH   1  28
BRANCH   3  31
ATOM     31  C   UNL     1      -1.837  -1.218  -2.098  0.00  0.00    +0.118 C 
BRANCH  31  32
ATOM     32  C   UNL     1      -1.097  -0.936  -0.789  0.00  0.00    +0.050 C 
BRANCH  32  33
ATOM     33  C   UNL     1       0.197  -0.222  -1.087  0.00  0.00    -0.072 C 
ATOM     34  C   UNL     1       0.205   1.071  -1.024  0.00  0.00    -0.028 C 
ATOM     35  C   UNL     1       1.411   1.919  -1.303  0.00  0.00    +0.027 C 
ATOM     36  C   UNL     1       2.680   1.065  -1.247  0.00  0.00    +0.004 C 
ATOM     37  C   UNL     1       2.462  -0.185  -2.108  0.00  0.00    +0.005 C 
ATOM     38  C   UNL     1       1.395  -1.054  -1.439  0.00  0.00    +0.030 C 
ENDBRANCH  32  33
ENDBRANCH  31  32
ENDBRANCH   3  31
TORSDOF 9
