REMARK  Name = ZINC15770726
REMARK  9 active torsions:
REMARK  status: ('A' for Active; 'I' for Inactive)
REMARK    1  A    between atoms: C_2  and  C_3
REMARK    2  A    between atoms: C_3  and  C_5
REMARK    3  A    between atoms: C_3  and  N_17
REMARK    4  A    between atoms: C_5  and  C_7
REMARK    5  A    between atoms: C_5  and  O_16
REMARK    6  A    between atoms: C_11  and  N_13
REMARK    7  A    between atoms: C_18  and  C_35
REMARK    8  A    between atoms: C_20  and  C_29
REMARK    9  A    between atoms: C_22  and  C_23
REMARK                            x       y       z     vdW  Elec       q    Type
REMARK                         _______ _______ _______ _____ _____    ______ ____
ROOT
ATOM      1  N   UNL     1       0.019   7.263  -0.439  0.00  0.00    -0.330 N 
ATOM      2  C   UNL     1       0.656   7.338   0.722  0.00  0.00    +0.051 A 
ATOM      3  C   UNL     1       0.931   8.571   1.305  0.00  0.00    +0.035 A 
ATOM      4  C   UNL     1       0.516   9.737   0.657  0.00  0.00    -0.014 A 
ATOM      5  C   UNL     1      -0.157   9.616  -0.560  0.00  0.00    +0.035 A 
ATOM      6  C   UNL     1      -0.390   8.348  -1.083  0.00  0.00    +0.051 A 
ENDROOT
BRANCH   6   7
ATOM      7  C   UNL     1      -1.105   8.207  -2.375  0.00  0.00    -0.001 A 
ATOM      8  C   UNL     1      -0.631   7.325  -3.344  0.00  0.00    +0.010 A 
ATOM      9  C   UNL     1      -1.304   7.194  -4.542  0.00  0.00    +0.001 A 
ATOM     10  C   UNL     1      -2.439   7.945  -4.786  0.00  0.00    +0.000 A 
ATOM     11  C   UNL     1      -2.911   8.826  -3.830  0.00  0.00    +0.001 A 
ATOM     12  C   UNL     1      -2.250   8.961  -2.626  0.00  0.00    +0.010 A 
ENDBRANCH   6   7
BRANCH   4  13
ATOM     13  C   UNL     1       0.784  11.071   1.249  0.00  0.00    -0.018 A 
ATOM     14  C   UNL     1       0.369  12.225   0.588  0.00  0.00    +0.008 A 
ATOM     15  C   UNL     1       0.615  13.463   1.145  0.00  0.00    +0.001 A 
ATOM     16  C   UNL     1       1.284  13.560   2.352  0.00  0.00    +0.000 A 
ATOM     17  C   UNL     1       1.704  12.418   3.010  0.00  0.00    +0.001 A 
ATOM     18  C   UNL     1       1.458  11.175   2.464  0.00  0.00    +0.008 A 
ENDBRANCH   4  13
BRANCH   2  19
ATOM     19  C   UNL     1       1.087   6.092   1.403  0.00  0.00    -0.001 A 
ATOM     20  C   UNL     1       0.752   4.850   0.867  0.00  0.00    +0.010 A 
ATOM     21  C   UNL     1       1.161   3.695   1.502  0.00  0.00    +0.001 A 
ATOM     22  C   UNL     1       1.891   3.768   2.675  0.00  0.00    +0.000 A 
ATOM     23  C   UNL     1       2.220   4.998   3.215  0.00  0.00    +0.001 A 
ATOM     24  C   UNL     1       1.822   6.160   2.585  0.00  0.00    +0.010 A 
ENDBRANCH   2  19
BRANCH   1  25
ATOM     25  C   UNL     1      -0.246   5.945  -1.022  0.00  0.00    +0.143 C 
BRANCH  25  27
ATOM     26  C   UNL     1       1.209   4.345  -2.154  0.00  0.00    +0.006 C 
ATOM     27  C   UNL     1       1.050   5.190  -1.166  0.00  0.00    -0.007 C 
ENDBRANCH  25  27
BRANCH  25  28
ATOM     28  C   UNL     1      -1.194   5.164  -0.110  0.00  0.00    +0.171 C 
BRANCH  28  29
ATOM     29  C   UNL     1      -1.505   3.829  -0.734  0.00  0.00    -0.015 A 
ATOM     30  C   UNL     1      -2.739   3.610  -1.319  0.00  0.00    +0.006 A 
ATOM     31  C   UNL     1      -3.023   2.386  -1.895  0.00  0.00    +0.003 A 
ATOM     32  C   UNL     1      -2.077   1.378  -1.880  0.00  0.00    +0.033 A 
ATOM     33  C   UNL     1      -0.843   1.597  -1.296  0.00  0.00    +0.127 A 
ATOM     34  C   UNL     1      -0.558   2.823  -0.723  0.00  0.00    +0.039 A 
BRANCH  33  35
ATOM     35  N   UNL     1       0.172   0.520  -1.284  0.00  0.00    +0.056 N 
ATOM     36  O   UNL     1      -0.080  -0.559  -1.789  0.00  0.00    -0.126 OA
ATOM     37  O   UNL     1       1.259   0.713  -0.770  0.00  0.00    -0.126 OA
ENDBRANCH  33  35
ENDBRANCH  28  29
BRANCH  28  38
ATOM     38  O   UNL     1      -2.405   5.903   0.064  0.00  0.00    -0.385 OA
ATOM     39  H   UNL     1      -2.881   6.077  -0.760  0.00  0.00    +0.210 HD
ENDBRANCH  28  38
ENDBRANCH  25  28
ENDBRANCH   1  25
TORSDOF 9
