REMARK  Name = ZINC29112861
REMARK  11 active torsions:
REMARK  status: ('A' for Active; 'I' for Inactive)
REMARK    1  A    between atoms: C_1  and  C_2
REMARK    2  A    between atoms: C_2  and  C_3
REMARK    3  A    between atoms: C_3  and  C_4
REMARK    4  A    between atoms: C_7  and  C_10
REMARK    5  A    between atoms: C_10  and  C_12
REMARK    6  A    between atoms: C_10  and  N_15
REMARK    7  A    between atoms: C_12  and  C_13
REMARK    8  A    between atoms: C_12  and  C_14
REMARK    9  A    between atoms: N_15  and  C_16
REMARK   10  A    between atoms: C_16  and  C_17
REMARK   11  A    between atoms: C_21  and  C_30
REMARK                            x       y       z     vdW  Elec       q    Type
REMARK                         _______ _______ _______ _____ _____    ______ ____
ROOT
ATOM      1  C   UNL     1      -2.466  -0.697  -1.859  0.00  0.00    +0.016 C 
ENDROOT
BRANCH   1   2
ATOM      2  C   UNL     1      -1.203  -1.470  -1.577  0.00  0.00    +0.203 C 
ATOM      3  O   UNL     1      -1.113  -2.136  -0.567  0.00  0.00    -0.277 OA
ATOM      4  N   UNL     1      -0.175  -1.421  -2.446  0.00  0.00    -0.266 N 
ATOM      5  C   UNL     1      -0.289  -0.695  -3.722  0.00  0.00    +0.168 C 
ATOM      6  C   UNL     1       1.025   0.068  -3.942  0.00  0.00    +0.276 C 
ATOM      7  O   UNL     1       2.106  -0.868  -3.948  0.00  0.00    -0.476 OA
ATOM      8  C   UNL     1       2.171  -1.766  -2.930  0.00  0.00    +0.143 A 
ATOM      9  C   UNL     1       1.045  -2.062  -2.166  0.00  0.00    +0.078 A 
ATOM     10  C   UNL     1       1.126  -2.979  -1.132  0.00  0.00    +0.027 A 
ATOM     11  C   UNL     1       2.328  -3.608  -0.861  0.00  0.00    +0.002 A 
ATOM     12  C   UNL     1       3.448  -3.314  -1.616  0.00  0.00    +0.004 A 
ATOM     13  C   UNL     1       3.373  -2.397  -2.648  0.00  0.00    +0.047 A 
BRANCH   6  14
ATOM     14  C   UNL     1       0.975   0.791  -5.263  0.00  0.00    +0.253 C 
ATOM     15  O   UNL     1       1.735   0.477  -6.155  0.00  0.00    -0.272 OA
ATOM     16  N   UNL     1       0.087   1.786  -5.454  0.00  0.00    -0.326 N 
ATOM     17  H   UNL     1       0.050   2.314  -6.418  0.00  0.00    +0.145 HD
ATOM     18  H   UNL     1      -0.602   2.071  -4.644  0.00  0.00    +0.145 HD
ENDBRANCH   6  14
ENDBRANCH   1   2
BRANCH   1  19
ATOM     19  N   UNL     1      -3.380  -0.818  -0.716  0.00  0.00    +0.389 N 
ATOM     20  H   UNL     1      -2.917  -0.338   0.159  0.00  0.00    -0.084 HD
ATOM     21  H   UNL     1      -3.542  -1.885  -0.505  0.00  0.00    -0.084 HD
BRANCH  19  22
ATOM     22  C   UNL     1      -4.669  -0.174  -1.002  0.00  0.00    -0.038 C 
BRANCH  22  26
ATOM     23  C   UNL     1      -7.072  -2.791  -3.373  0.00  0.00    -0.047 A 
ATOM     24  C   UNL     1      -7.059  -1.434  -3.639  0.00  0.00    +0.004 A 
ATOM     25  C   UNL     1      -6.281  -0.588  -2.871  0.00  0.00    +0.002 A 
ATOM     26  C   UNL     1      -5.517  -1.097  -1.838  0.00  0.00    -0.061 A 
ATOM     27  C   UNL     1      -5.527  -2.454  -1.576  0.00  0.00    +0.002 A 
ATOM     28  C   UNL     1      -6.309  -3.300  -2.339  0.00  0.00    +0.004 A 
BRANCH  23  29
ATOM     29  C   UNL     1      -7.920  -3.714  -4.210  0.00  0.00    +0.035 C 
BRANCH  29  31
ATOM     30  C   UNL     1      -7.964  -5.153  -6.251  0.00  0.00    +0.004 C 
ATOM     31  C   UNL     1      -7.103  -4.216  -5.402  0.00  0.00    +0.001 C 
ENDBRANCH  29  31
ENDBRANCH  23  29
ENDBRANCH  22  26
BRANCH  22  32
ATOM     32  C   UNL     1      -5.390   0.130   0.313  0.00  0.00    -0.027 C 
ATOM     33  C   UNL     1      -4.586   1.159   1.110  0.00  0.00    +0.006 C 
ATOM     34  C   UNL     1      -6.782   0.692   0.013  0.00  0.00    +0.006 C 
ENDBRANCH  22  32
ENDBRANCH  19  22
ENDBRANCH   1  19
TORSDOF 8
