REMARK  Name = ZINC08849253
REMARK  11 active torsions:
REMARK  status: ('A' for Active; 'I' for Inactive)
REMARK    1  A    between atoms: C_1  and  C_2
REMARK    2  A    between atoms: C_2  and  C_3
REMARK    3  A    between atoms: C_3  and  C_33
REMARK    4  A    between atoms: N_6  and  N_10
REMARK    5  A    between atoms: C_11  and  C_13
REMARK    6  A    between atoms: C_13  and  N_61
REMARK    7  A    between atoms: C_18  and  O_31
REMARK    8  A    between atoms: C_19  and  O_29
REMARK    9  A    between atoms: C_22  and  C_24
REMARK   10  A    between atoms: O_29  and  C_30
REMARK   11  A    between atoms: O_31  and  C_32
REMARK                            x       y       z     vdW  Elec       q    Type
REMARK                         _______ _______ _______ _____ _____    ______ ____
ROOT
ATOM      1  C   UNL     1      -0.869   7.871   0.579  0.00  0.00    -0.072 C 
ATOM      2  C   UNL     1      -1.127   7.126   1.889  0.00  0.00    +0.017 C 
ATOM      3  C   UNL     1      -0.996   5.640   1.671  0.00  0.00    -0.043 A 
ATOM      4  C   UNL     1      -1.528   4.784   2.624  0.00  0.00    +0.053 A 
ATOM      5  C   UNL     1      -1.432   3.413   2.465  0.00  0.00    +0.162 A 
ATOM      6  C   UNL     1      -0.787   2.893   1.346  0.00  0.00    +0.162 A 
ATOM      7  C   UNL     1      -0.261   3.751   0.398  0.00  0.00    +0.052 A 
ATOM      8  C   UNL     1      -0.365   5.125   0.558  0.00  0.00    -0.049 A 
ATOM      9  C   UNL     1       0.222   6.015  -0.506  0.00  0.00    +0.001 C 
ATOM     10  N   UNL     1       0.408   7.377   0.022  0.00  0.00    +0.393 N 
ATOM     11  H   UNL     1       1.113   7.354   0.768  0.00  0.00    -0.080 HD
ENDROOT
BRANCH   9  12
ATOM     12  C   UNL     1       1.562   5.470  -0.928  0.00  0.00    -0.019 A 
ATOM     13  C   UNL     1       1.875   4.723  -2.015  0.00  0.00    +0.010 A 
ATOM     14  C   UNL     1       3.188   4.334  -2.204  0.00  0.00    +0.008 A 
ATOM     15  C   UNL     1       4.121   4.700  -1.292  0.00  0.00    +0.045 A 
ATOM     16  S   UNL     1       3.146   5.632  -0.121  0.00  0.00    -0.103 S 
ENDBRANCH   9  12
BRANCH   6  17
ATOM     17  O   UNL     1      -0.682   1.547   1.184  0.00  0.00    -0.491 OA
ATOM     18  C   UNL     1      -0.013   1.086   0.008  0.00  0.00    +0.277 C 
ENDBRANCH   6  17
BRANCH   5  19
ATOM     19  O   UNL     1      -1.959   2.578   3.400  0.00  0.00    -0.491 OA
ATOM     20  C   UNL     1      -2.605   3.185   4.521  0.00  0.00    +0.277 C 
ENDBRANCH   5  19
BRANCH  10  21
ATOM     21  C   UNL     1       0.875   8.279  -1.054  0.00  0.00    +0.021 C 
BRANCH  21  23
ATOM     22  N   UNL     1       1.747  10.587  -1.232  0.00  0.00    -0.225 N 
ATOM     23  C   UNL     1       1.272   9.600  -0.447  0.00  0.00    +0.213 C 
ATOM     24  O   UNL     1       1.165   9.775   0.749  0.00  0.00    -0.276 OA
ATOM     25  H   UNL     1       1.833  10.447  -2.188  0.00  0.00    +0.173 HD
BRANCH  22  29
ATOM     26  C   UNL     1       2.167  14.004  -0.015  0.00  0.00    +0.111 C 
ATOM     27  C   UNL     1       1.390  12.945  -0.773  0.00  0.00    +0.263 C 
ATOM     28  O   UNL     1       0.333  13.086  -1.351  0.00  0.00    -0.271 OA
ATOM     29  N   UNL     1       2.116  11.815  -0.668  0.00  0.00    -0.137 N 
ATOM     30  C   UNL     1       3.236  12.012   0.037  0.00  0.00    +0.326 C 
ATOM     31  O   UNL     1       4.054  11.142   0.263  0.00  0.00    -0.251 OA
ATOM     32  N   UNL     1       3.356  13.281   0.468  0.00  0.00    -0.284 N 
ATOM     33  C   UNL     1       1.348  14.540   1.161  0.00  0.00    +0.041 C 
ATOM     34  H   UNL     1       4.083  13.648   0.994  0.00  0.00    +0.151 HD
BRANCH  26  36
ATOM     35  C   UNL     1       3.549  16.074  -0.232  0.00  0.00    +0.006 C 
ATOM     36  C   UNL     1       2.573  15.142  -0.954  0.00  0.00    +0.032 C 
ENDBRANCH  26  36
ENDBRANCH  22  29
ENDBRANCH  21  23
ENDBRANCH  10  21
TORSDOF 7
