REMARK  Name = ZINC13134137
REMARK  5 active torsions:
REMARK  status: ('A' for Active; 'I' for Inactive)
REMARK    1  A    between atoms: C_7  and  C_24
REMARK    2  A    between atoms: C_12  and  C_13
REMARK    3  A    between atoms: C_24  and  O_26
REMARK    4  A    between atoms: O_26  and  C_27
REMARK    5  A    between atoms: C_27  and  C_28
REMARK                            x       y       z     vdW  Elec       q    Type
REMARK                         _______ _______ _______ _____ _____    ______ ____
ROOT
ATOM      1  C   UNL     1       1.231  10.477  -0.202  0.00  0.00    +0.001 A 
ATOM      2  C   UNL     1       2.372   9.755   0.137  0.00  0.00    +0.002 A 
ATOM      3  C   UNL     1       2.344   8.397   0.225  0.00  0.00    +0.028 A 
ATOM      4  C   UNL     1       1.143   7.706  -0.029  0.00  0.00    +0.072 A 
ATOM      5  C   UNL     1      -0.016   8.448  -0.371  0.00  0.00    +0.015 A 
ATOM      6  C   UNL     1       0.050   9.842  -0.454  0.00  0.00    +0.011 A 
ATOM      7  C   UNL     1      -1.260   7.723  -0.630  0.00  0.00    +0.073 A 
ATOM      8  C   UNL     1      -1.233   6.338  -0.523  0.00  0.00    -0.007 A 
ATOM      9  C   UNL     1      -0.028   5.699  -0.183  0.00  0.00    +0.072 A 
ATOM     10  N   UNL     1       1.084   6.378   0.048  0.00  0.00    -0.247 NA
ATOM     11  C   UNL     1       0.007   4.223  -0.078  0.00  0.00    -0.021 C 
ATOM     12  C   UNL     1       1.174   3.560   0.009  0.00  0.00    +0.015 C 
ATOM     13  C   UNL     1      -1.314   3.485  -0.078  0.00  0.00    +0.037 C 
ATOM     14  C   UNL     1      -2.201   4.120  -1.151  0.00  0.00    +0.009 C 
ATOM     15  C   UNL     1      -2.499   5.567  -0.772  0.00  0.00    +0.038 C 
ENDROOT
BRANCH  12  16
ATOM     16  C   UNL     1       1.179   2.108   0.258  0.00  0.00    -0.005 A 
ATOM     17  C   UNL     1       0.247   1.542   1.133  0.00  0.00    +0.009 A 
ATOM     18  C   UNL     1       0.257   0.182   1.361  0.00  0.00    +0.002 A 
ATOM     19  C   UNL     1       1.187  -0.623   0.726  0.00  0.00    +0.021 A 
ATOM     20  C   UNL     1       2.113  -0.072  -0.142  0.00  0.00    +0.060 A 
ATOM     21  C   UNL     1       2.115   1.289  -0.381  0.00  0.00    +0.066 A 
ATOM     22 CL   UNL     1       3.277   1.981  -1.470  0.00  0.00    -0.081 Cl
ATOM     23 CL   UNL     1       3.275  -1.092  -0.932  0.00  0.00    -0.082 Cl
ENDBRANCH  12  16
BRANCH   7  24
ATOM     24  C   UNL     1      -2.501   8.439  -0.992  0.00  0.00    +0.341 C 
ATOM     25  O   UNL     1      -3.266   8.807  -0.123  0.00  0.00    -0.245 OA
BRANCH  24  26
ATOM     26  O   UNL     1      -2.784   8.684  -2.287  0.00  0.00    -0.446 OA
BRANCH  26  27
ATOM     27  C   UNL     1      -4.021   9.391  -2.568  0.00  0.00    +0.350 C 
BRANCH  27  28
ATOM     28  C   UNL     1      -4.164   9.569  -4.022  0.00  0.00    +0.104 C 
ATOM     29  N   UNL     1      -4.275   9.705  -5.145  0.00  0.00    -0.193 NA
ENDBRANCH  27  28
ENDBRANCH  26  27
ENDBRANCH  24  26
ENDBRANCH   7  24
TORSDOF 5
