REMARK  Name = ZINC41584289
REMARK  17 active torsions:
REMARK  status: ('A' for Active; 'I' for Inactive)
REMARK    1  A    between atoms: C_1  and  C_2
REMARK    2  A    between atoms: C_2  and  C_3
REMARK    3  A    between atoms: C_3  and  C_4
REMARK    4  A    between atoms: C_4  and  N_5
REMARK    5  A    between atoms: N_5  and  C_6
REMARK    6  A    between atoms: N_5  and  C_10
REMARK    7  A    between atoms: C_6  and  C_7
REMARK    8  A    between atoms: C_7  and  C_8
REMARK    9  A    between atoms: C_8  and  C_9
REMARK   10  A    between atoms: C_10  and  C_11
REMARK   11  A    between atoms: C_12  and  O_37
REMARK   12  A    between atoms: C_18  and  C_33
REMARK   13  A    between atoms: C_19  and  O_22
REMARK   14  A    between atoms: O_22  and  C_23
REMARK   15  A    between atoms: C_26  and  C_29
REMARK   16  A    between atoms: C_29  and  O_31
REMARK   17  A    between atoms: O_31  and  C_32
REMARK                            x       y       z     vdW  Elec       q    Type
REMARK                         _______ _______ _______ _____ _____    ______ ____
ROOT
ATOM      1  C   UNL     1       2.746  -4.259   0.811  0.00  0.00    +0.020 A 
ATOM      2  C   UNL     1       2.173  -4.513  -0.424  0.00  0.00    +0.122 A 
ATOM      3  C   UNL     1       2.971  -4.682  -1.554  0.00  0.00    +0.046 A 
ATOM      4  C   UNL     1       4.331  -4.600  -1.458  0.00  0.00    +0.019 A 
ATOM      5  C   UNL     1       4.923  -4.345  -0.221  0.00  0.00    +0.068 A 
ATOM      6  C   UNL     1       4.126  -4.167   0.924  0.00  0.00    +0.144 A 
ATOM      7  O   UNL     1       4.709  -3.916   2.114  0.00  0.00    -0.447 OA
ATOM      8  C   UNL     1       6.038  -3.822   2.256  0.00  0.00    +0.254 A 
ATOM      9  C   UNL     1       6.894  -3.969   1.226  0.00  0.00    +0.222 A 
ATOM     10  C   UNL     1       6.386  -4.250  -0.075  0.00  0.00    +0.235 A 
ATOM     11  O   UNL     1       7.130  -4.390  -1.031  0.00  0.00    -0.283 OA
ENDROOT
BRANCH   8  12
ATOM     12  C   UNL     1       6.598  -3.539   3.626  0.00  0.00    +0.454 C 
ATOM     13  F   UNL     1       7.982  -3.354   3.534  0.00  0.00    -0.163 F 
ATOM     14  F   UNL     1       6.006  -2.381   4.142  0.00  0.00    -0.163 F 
ATOM     15  F   UNL     1       6.328  -4.619   4.473  0.00  0.00    -0.163 F 
ENDBRANCH   8  12
BRANCH   2  16
ATOM     16  O   UNL     1       0.823  -4.597  -0.535  0.00  0.00    -0.506 OA
ATOM     17  H   UNL     1       0.390  -3.753  -0.726  0.00  0.00    +0.292 HD
ENDBRANCH   2  16
BRANCH   1  18
ATOM     18  C   UNL     1       1.874  -4.079   2.027  0.00  0.00    -0.036 C 
BRANCH  18  19
ATOM     19  N   UNL     1       1.520  -2.660   2.169  0.00  0.00    +0.383 N 
ATOM     20  H   UNL     1       2.362  -2.104   2.192  0.00  0.00    -0.081 HD
BRANCH  19  21
ATOM     21  C   UNL     1       0.690  -2.245   1.030  0.00  0.00    -0.078 C 
BRANCH  21  22
ATOM     22  C   UNL     1       0.401  -0.746   1.129  0.00  0.00    -0.019 C 
BRANCH  22  24
ATOM     23  C   UNL     1      -0.638   1.211  -0.026  0.00  0.00    +0.004 C 
ATOM     24  C   UNL     1      -0.349  -0.288  -0.124  0.00  0.00    -0.005 C 
ENDBRANCH  22  24
ENDBRANCH  21  22
ENDBRANCH  19  21
BRANCH  19  25
ATOM     25  C   UNL     1       0.771  -2.465   3.418  0.00  0.00    -0.078 C 
BRANCH  25  26
ATOM     26  C   UNL     1       1.680  -2.768   4.611  0.00  0.00    -0.019 C 
BRANCH  26  27
ATOM     27  C   UNL     1       0.943  -2.438   5.910  0.00  0.00    -0.005 C 
ATOM     28  C   UNL     1       1.852  -2.741   7.103  0.00  0.00    +0.004 C 
ENDBRANCH  26  27
ENDBRANCH  25  26
ENDBRANCH  19  25
ENDBRANCH  18  19
ENDBRANCH   1  18
BRANCH   9  29
ATOM     29  O   UNL     1       8.235  -3.861   1.429  0.00  0.00    -0.448 OA
BRANCH  29  30
ATOM     30  C   UNL     1       8.884  -2.814   0.861  0.00  0.00    +0.129 A 
ATOM     31  C   UNL     1       8.160  -1.824   0.204  0.00  0.00    +0.047 A 
ATOM     32  C   UNL     1       8.814  -0.759  -0.373  0.00  0.00    +0.018 A 
ATOM     33  C   UNL     1      10.208  -0.673  -0.298  0.00  0.00    +0.059 A 
ATOM     34  C   UNL     1      10.931  -1.670   0.363  0.00  0.00    +0.018 A 
ATOM     35  C   UNL     1      10.269  -2.729   0.942  0.00  0.00    +0.047 A 
BRANCH  33  36
ATOM     36  C   UNL     1      10.912   0.465  -0.915  0.00  0.00    +0.339 C 
ATOM     37  O   UNL     1      10.282   1.331  -1.490  0.00  0.00    -0.245 OA
BRANCH  36  38
ATOM     38  O   UNL     1      12.255   0.546  -0.843  0.00  0.00    -0.464 OA
ATOM     39  C   UNL     1      12.872   1.677  -1.463  0.00  0.00    +0.280 C 
ENDBRANCH  36  38
ENDBRANCH  33  36
ENDBRANCH  29  30
ENDBRANCH   9  29
TORSDOF 14
