REMARK  Name = ZINC10315583
REMARK  6 active torsions:
REMARK  status: ('A' for Active; 'I' for Inactive)
REMARK    1  A    between atoms: C_7  and  C_19
REMARK    2  A    between atoms: N_9  and  C_10
REMARK    3  A    between atoms: C_10  and  C_11
REMARK    4  A    between atoms: C_19  and  N_49
REMARK    5  A    between atoms: C_20  and  C_21
REMARK    6  A    between atoms: C_20  and  N_49
REMARK                            x       y       z     vdW  Elec       q    Type
REMARK                         _______ _______ _______ _____ _____    ______ ____
ROOT
ATOM      1  C   UNL     1       9.546   1.112  -1.718  0.00  0.00    +0.001 A 
ATOM      2  C   UNL     1      10.342   0.289  -2.503  0.00  0.00    +0.002 A 
ATOM      3  C   UNL     1      10.447  -1.057  -2.228  0.00  0.00    +0.026 A 
ATOM      4  C   UNL     1       9.749  -1.599  -1.153  0.00  0.00    +0.050 A 
ATOM      5  C   UNL     1       8.944  -0.760  -0.361  0.00  0.00    +0.001 A 
ATOM      6  C   UNL     1       8.852   0.601  -0.659  0.00  0.00    +0.010 A 
ATOM      7  C   UNL     1       8.356  -1.619   0.669  0.00  0.00    -0.039 A 
ATOM      8  C   UNL     1       8.819  -2.861   0.456  0.00  0.00    +0.089 A 
ATOM      9  N   UNL     1       9.649  -2.869  -0.632  0.00  0.00    -0.342 N 
ENDROOT
BRANCH   9  10
ATOM     10  C   UNL     1      10.332  -4.052  -1.161  0.00  0.00    +0.158 C 
BRANCH  10  11
ATOM     11  C   UNL     1      11.722  -4.129  -0.583  0.00  0.00    -0.009 A 
ATOM     12  C   UNL     1      12.793  -3.609  -1.288  0.00  0.00    +0.008 A 
ATOM     13  C   UNL     1      14.067  -3.674  -0.756  0.00  0.00    +0.020 A 
ATOM     14  C   UNL     1      14.274  -4.269   0.476  0.00  0.00    +0.042 A 
ATOM     15  C   UNL     1      13.204  -4.793   1.179  0.00  0.00    +0.040 A 
ATOM     16  C   UNL     1      11.928  -4.723   0.649  0.00  0.00    +0.047 A 
ATOM     17 CL   UNL     1      10.585  -5.381   1.530  0.00  0.00    -0.083 Cl
ATOM     18 CL   UNL     1      15.875  -4.356   1.140  0.00  0.00    -0.083 Cl
ENDBRANCH  10  11
ENDBRANCH   9  10
BRANCH   7  19
ATOM     19  C   UNL     1       7.414  -1.190   1.764  0.00  0.00    -0.044 C 
BRANCH  19  20
ATOM     20  N   UNL     1       6.051  -1.076   1.213  0.00  0.00    +0.384 N 
ATOM     21  H   UNL     1       5.759  -1.987   0.840  0.00  0.00    -0.085 HD
ATOM     22  H   UNL     1       6.048  -0.380   0.458  0.00  0.00    -0.085 HD
BRANCH  20  23
ATOM     23  C   UNL     1       5.107  -0.655   2.265  0.00  0.00    -0.046 C 
BRANCH  23  24
ATOM     24  C   UNL     1       3.725  -0.548   1.674  0.00  0.00    -0.061 A 
ATOM     25  C   UNL     1       2.885  -1.646   1.677  0.00  0.00    +0.005 A 
ATOM     26  C   UNL     1       1.617  -1.553   1.135  0.00  0.00    +0.050 A 
ATOM     27  C   UNL     1       1.183  -0.356   0.589  0.00  0.00    +0.166 A 
ATOM     28  C   UNL     1       2.028   0.751   0.586  0.00  0.00    +0.166 A 
ATOM     29  C   UNL     1       3.298   0.650   1.131  0.00  0.00    +0.051 A 
ATOM     30  O   UNL     1       1.376   1.797  -0.001  0.00  0.00    -0.453 OA
ATOM     31  C   UNL     1      -0.018   1.436   0.010  0.00  0.00    +0.466 C 
ATOM     32  O   UNL     1       0.002  -0.004   0.002  0.00  0.00    -0.453 OA
ENDBRANCH  23  24
ENDBRANCH  20  23
ENDBRANCH  19  20
ENDBRANCH   7  19
TORSDOF 6
