REMARK  Name = ZINC04151567
REMARK  12 active torsions:
REMARK  status: ('A' for Active; 'I' for Inactive)
REMARK    1  A    between atoms: C_1  and  N_2
REMARK    2  A    between atoms: C_4  and  S_7
REMARK    3  A    between atoms: S_7  and  N_10
REMARK    4  A    between atoms: N_10  and  C_11
REMARK    5  A    between atoms: C_16  and  C_19
REMARK    6  A    between atoms: C_25  and  C_27
REMARK    7  A    between atoms: C_27  and  O_29
REMARK    8  A    between atoms: O_29  and  C_30
REMARK    9  A    between atoms: C_31  and  C_33
REMARK   10  A    between atoms: C_33  and  O_34
REMARK   11  A    between atoms: O_34  and  C_35
REMARK   12  A    between atoms: C_35  and  C_36
REMARK                            x       y       z     vdW  Elec       q    Type
REMARK                         _______ _______ _______ _____ _____    ______ ____
ROOT
ATOM      1  C   UNL     1      -0.901   3.118  -1.142  0.00  0.00    +0.080 C 
ATOM      2  C   UNL     1      -1.710   3.489   0.103  0.00  0.00    +0.039 C 
ATOM      3  C   UNL     1      -0.971   3.001   1.352  0.00  0.00    +0.110 C 
ATOM      4  N   UNL     1      -0.706   1.562   1.213  0.00  0.00    -0.288 N 
ATOM      5  C   UNL     1      -0.013   1.086   0.008  0.00  0.00    +0.164 C 
ATOM      6  C   UNL     1      -0.759   1.596  -1.228  0.00  0.00    +0.052 C 
ATOM      7  C   UNL     1      -1.091   0.697   2.171  0.00  0.00    +0.242 C 
ATOM      8  O   UNL     1      -0.865  -0.488   2.044  0.00  0.00    -0.273 OA
ENDROOT
BRANCH   5   9
ATOM      9  C   UNL     1       1.400   1.610  -0.003  0.00  0.00    +0.237 C 
ATOM     10  O   UNL     1       1.695   2.572   0.675  0.00  0.00    -0.274 OA
ATOM     11  N   UNL     1       2.336   1.011  -0.765  0.00  0.00    -0.286 N 
ATOM     12  C   UNL     1       2.115  -0.161  -1.633  0.00  0.00    +0.109 C 
ATOM     13  C   UNL     1       3.228  -0.073  -2.707  0.00  0.00    +0.021 C 
ATOM     14  C   UNL     1       4.423   0.462  -1.874  0.00  0.00    +0.035 C 
ATOM     15  C   UNL     1       3.744   1.420  -0.874  0.00  0.00    +0.185 C 
BRANCH  15  16
ATOM     16  C   UNL     1       4.414   1.312   0.471  0.00  0.00    +0.328 C 
ATOM     17  O   UNL     1       3.786   0.932   1.431  0.00  0.00    -0.249 OA
BRANCH  16  18
ATOM     18  O   UNL     1       5.709   1.638   0.604  0.00  0.00    -0.467 OA
ATOM     19  C   UNL     1       6.289   1.510   1.929  0.00  0.00    +0.280 C 
ENDBRANCH  16  18
ENDBRANCH  15  16
ENDBRANCH   5   9
BRANCH   1  20
ATOM     20  N   UNL     1      -1.588   3.613  -2.337  0.00  0.00    -0.185 NA
ATOM     21  H   UNL     1      -2.289   3.083  -2.748  0.00  0.00    +0.148 HD
BRANCH  20  22
ATOM     22  S   UNL     1      -1.169   5.078  -2.986  0.00  0.00    +0.077 S 
ATOM     23  O   UNL     1      -1.985   5.261  -4.136  0.00  0.00    -0.152 OA
ATOM     24  O   UNL     1      -1.148   6.007  -1.911  0.00  0.00    -0.152 OA
BRANCH  22  28
ATOM     25  C   UNL     1       4.083   5.112  -3.329  0.00  0.00    +0.150 C 
ATOM     26  N   UNL     1       2.667   4.961  -3.673  0.00  0.00    -0.338 N 
ATOM     27  C   UNL     1       1.601   5.205  -2.850  0.00  0.00    +0.135 A 
ATOM     28  C   UNL     1       0.490   4.937  -3.563  0.00  0.00    +0.211 A 
ATOM     29  N   UNL     1       0.867   4.549  -4.790  0.00  0.00    -0.216 NA
ATOM     30  C   UNL     1       2.170   4.561  -4.864  0.00  0.00    +0.201 A 
ENDBRANCH  22  28
ENDBRANCH  20  22
ENDBRANCH   1  20
BRANCH   7  31
ATOM     31  C   UNL     1      -1.801   1.201   3.401  0.00  0.00    +0.256 C 
BRANCH  31  32
ATOM     32  O   UNL     1      -2.103   0.101   4.262  0.00  0.00    -0.359 OA
BRANCH  32  33
ATOM     33  C   UNL     1      -2.780   0.472   5.464  0.00  0.00    +0.285 C 
BRANCH  33  34
ATOM     34  C   UNL     1      -3.047  -0.759   6.291  0.00  0.00    +0.381 C 
ATOM     35  O   UNL     1      -2.693  -1.843   5.892  0.00  0.00    -0.244 OA
ATOM     36  O   UNL     1      -3.678  -0.651   7.471  0.00  0.00    -0.244 OA
ENDBRANCH  33  34
ENDBRANCH  32  33
ENDBRANCH  31  32
ENDBRANCH   7  31
TORSDOF 10
