REMARK  Name = ZINC01441220
REMARK  6 active torsions:
REMARK  status: ('A' for Active; 'I' for Inactive)
REMARK    1  A    between atoms: C_1  and  C_2
REMARK    2  A    between atoms: C_5  and  C_8
REMARK    3  A    between atoms: C_8  and  C_10
REMARK    4  A    between atoms: C_10  and  C_32
REMARK    5  A    between atoms: C_13  and  C_24
REMARK    6  A    between atoms: C_24  and  C_26
REMARK                            x       y       z     vdW  Elec       q    Type
REMARK                         _______ _______ _______ _____ _____    ______ ____
ROOT
ATOM      1  C   UNL     1      -0.446  -5.363   1.327  0.00  0.00    +0.063 C 
ATOM      2  C   UNL     1       1.062  -5.120   1.261  0.00  0.00    +0.063 C 
ATOM      3  C   UNL     1       0.505  -6.560   1.234  0.00  0.00    +0.151 C 
ATOM      4  C   UNL     1       0.753  -7.325   2.527  0.00  0.00    +0.328 C 
ATOM      5  O   UNL     1       0.960  -8.515   2.541  0.00  0.00    -0.249 OA
ATOM      6  O   UNL     1       0.726  -6.582   3.661  0.00  0.00    -0.425 OA
ATOM      7  C   UNL     1       1.558  -5.502   3.691  0.00  0.00    +0.135 A 
ATOM      8  C   UNL     1       1.762  -4.721   2.541  0.00  0.00    +0.002 A 
ATOM      9  C   UNL     1       2.605  -3.629   2.559  0.00  0.00    +0.023 A 
ATOM     10  C   UNL     1       3.242  -3.268   3.733  0.00  0.00    +0.018 A 
ATOM     11  C   UNL     1       3.035  -4.000   4.888  0.00  0.00    +0.019 A 
ATOM     12  C   UNL     1       2.202  -5.158   4.870  0.00  0.00    +0.048 A 
ATOM     13 BR   UNL     1       4.398  -1.771   3.757  0.00  0.00    -0.050 Br
ATOM     14  C   UNL     1      -1.140  -5.118   2.668  0.00  0.00    +0.022 C 
ENDROOT
BRANCH   1  15
ATOM     15  C   UNL     1      -1.258  -5.024   0.104  0.00  0.00    +0.171 C 
ATOM     16  O   UNL     1      -1.414  -5.852  -0.769  0.00  0.00    -0.291 OA
BRANCH  15  21
ATOM     17  C   UNL     1      -3.617   0.192  -0.426  0.00  0.00    +0.044 C 
ATOM     18  C   UNL     1      -2.998  -1.176  -0.287  0.00  0.00    -0.050 A 
ATOM     19  C   UNL     1      -3.305  -2.166  -1.204  0.00  0.00    +0.004 A 
ATOM     20  C   UNL     1      -2.743  -3.420  -1.084  0.00  0.00    +0.011 A 
ATOM     21  C   UNL     1      -1.861  -3.689  -0.032  0.00  0.00    +0.018 A 
ATOM     22  C   UNL     1      -1.556  -2.683   0.890  0.00  0.00    +0.011 A 
ATOM     23  C   UNL     1      -2.122  -1.433   0.753  0.00  0.00    +0.004 A 
ENDBRANCH  15  21
ENDBRANCH   1  15
BRANCH   3  24
ATOM     24  C   UNL     1       0.564  -7.347  -0.050  0.00  0.00    +0.182 C 
ATOM     25  O   UNL     1       1.569  -7.328  -0.727  0.00  0.00    -0.291 OA
BRANCH  24  26
ATOM     26  C   UNL     1      -0.599  -8.140  -0.481  0.00  0.00    +0.019 A 
ATOM     27  C   UNL     1      -1.784  -8.111   0.261  0.00  0.00    +0.011 A 
ATOM     28  C   UNL     1      -2.869  -8.856  -0.149  0.00  0.00    +0.001 A 
ATOM     29  C   UNL     1      -2.787  -9.631  -1.293  0.00  0.00    +0.000 A 
ATOM     30  C   UNL     1      -1.618  -9.665  -2.033  0.00  0.00    +0.001 A 
ATOM     31  C   UNL     1      -0.526  -8.921  -1.639  0.00  0.00    +0.011 A 
ENDBRANCH  24  26
ENDBRANCH   3  24
TORSDOF 4
