REMARK  Name = ZINC51173181
REMARK  5 active torsions:
REMARK  status: ('A' for Active; 'I' for Inactive)
REMARK    1  A    between atoms: C_5  and  C_6
REMARK    2  A    between atoms: N_8  and  C_9
REMARK    3  A    between atoms: C_9  and  C_11
REMARK    4  A    between atoms: C_9  and  C_17
REMARK    5  A    between atoms: N_18  and  O_19
REMARK                            x       y       z     vdW  Elec       q    Type
REMARK                         _______ _______ _______ _____ _____    ______ ____
ROOT
ATOM      1  C   UNL     1      -2.021  -3.209   0.014  0.00  0.00    +0.143 C 
ENDROOT
BRANCH   1   2
ATOM      2  C   UNL     1      -1.702  -4.548   0.680  0.00  0.00    +0.017 C 
ATOM      3  C   UNL     1      -2.985  -5.370   0.813  0.00  0.00    +0.006 C 
ATOM      4  C   UNL     1      -2.666  -6.710   1.480  0.00  0.00    +0.000 C 
ATOM      5  C   UNL     1      -2.074  -6.461   2.868  0.00  0.00    +0.000 C 
ATOM      6  C   UNL     1      -0.790  -5.639   2.735  0.00  0.00    +0.000 C 
ATOM      7  C   UNL     1      -1.109  -4.299   2.069  0.00  0.00    +0.006 C 
ENDBRANCH   1   2
BRANCH   1   8
ATOM      8  C   UNL     1      -2.546  -3.452  -1.377  0.00  0.00    +0.152 C 
ATOM      9  N   UNL     1      -3.691  -2.967  -1.730  0.00  0.00    -0.075 NA
ATOM     10  N   UNL     1      -1.806  -4.191  -2.273  0.00  0.00    -0.342 N 
ATOM     11  H   UNL     1      -0.981  -4.614  -1.988  0.00  0.00    +0.144 HD
ATOM     12  H   UNL     1      -2.110  -4.289  -3.189  0.00  0.00    +0.144 HD
BRANCH   9  13
ATOM     13  O   UNL     1      -4.184  -3.196  -3.037  0.00  0.00    -0.408 OA
ATOM     14  H   UNL     1      -5.047  -2.795  -3.207  0.00  0.00    +0.328 HD
ENDBRANCH   9  13
ENDBRANCH   1   8
BRANCH   1  17
ATOM     15  C   UNL     1      -0.892  -1.054  -0.121  0.00  0.00    +0.251 C 
ATOM     16  O   UNL     1      -1.983  -0.515  -0.117  0.00  0.00    -0.270 OA
ATOM     17  N   UNL     1      -0.803  -2.397  -0.059  0.00  0.00    -0.301 N 
ATOM     18  H   UNL     1       0.066  -2.826  -0.062  0.00  0.00    +0.150 HD
BRANCH  15  23
ATOM     19  C   UNL     1       0.454   1.137  -0.264  0.00  0.00    +0.022 A 
ATOM     20  C   UNL     1       1.740   1.615  -0.322  0.00  0.00    +0.028 A 
ATOM     21  C   UNL     1       2.772   0.733  -0.308  0.00  0.00    +0.079 A 
ATOM     22  S   UNL     1       2.028  -0.770  -0.215  0.00  0.00    -0.072 S 
ATOM     23  C   UNL     1       0.325  -0.242  -0.194  0.00  0.00    +0.075 A 
ATOM     24 CL   UNL     1       4.472   1.079  -0.371  0.00  0.00    -0.076 Cl
ENDBRANCH  15  23
ENDBRANCH   1  17
TORSDOF 5
