REMARK  Name = ZINC01750708
REMARK  14 active torsions:
REMARK  status: ('A' for Active; 'I' for Inactive)
REMARK    1  A    between atoms: C_1  and  O_2
REMARK    2  A    between atoms: O_2  and  C_3
REMARK    3  A    between atoms: C_6  and  N_9
REMARK    4  A    between atoms: N_9  and  C_10
REMARK    5  A    between atoms: N_9  and  S_29
REMARK    6  A    between atoms: C_10  and  C_11
REMARK    7  A    between atoms: C_11  and  C_13
REMARK    8  A    between atoms: C_11  and  O_28
REMARK    9  A    between atoms: C_13  and  N_69
REMARK   10  A    between atoms: C_14  and  C_15
REMARK   11  A    between atoms: C_14  and  N_69
REMARK   12  A    between atoms: C_21  and  C_22
REMARK   13  A    between atoms: C_21  and  N_69
REMARK   14  A    between atoms: S_29  and  C_32
REMARK                            x       y       z     vdW  Elec       q    Type
REMARK                         _______ _______ _______ _____ _____    ______ ____
ROOT
ATOM      1  C   UNL     1       6.948  -1.558  -1.989  0.00  0.00    +0.117 C 
ENDROOT
BRANCH   1   2
ATOM      2  O   UNL     1       7.499  -1.712  -0.680  0.00  0.00    -0.392 OA
ATOM      3  H   UNL     1       7.253  -1.008  -0.064  0.00  0.00    +0.210 HD
ENDBRANCH   1   2
BRANCH   1   4
ATOM      4  C   UNL     1       5.421  -1.548  -1.902  0.00  0.00    +0.161 C 
BRANCH   4   5
ATOM      5  N   UNL     1       4.957  -2.811  -1.322  0.00  0.00    -0.201 N 
BRANCH   5   9
ATOM      6  C   UNL     1       4.396  -6.143  -3.763  0.00  0.00    +0.120 A 
ATOM      7  C   UNL     1       3.684  -6.024  -2.579  0.00  0.00    +0.047 A 
ATOM      8  C   UNL     1       3.869  -4.920  -1.770  0.00  0.00    +0.028 A 
ATOM      9  C   UNL     1       4.769  -3.930  -2.142  0.00  0.00    +0.052 A 
ATOM     10  C   UNL     1       5.477  -4.047  -3.330  0.00  0.00    +0.028 A 
ATOM     11  C   UNL     1       5.295  -5.154  -4.135  0.00  0.00    +0.047 A 
BRANCH   6  13
ATOM     12  C   UNL     1       4.979  -7.288  -5.765  0.00  0.00    +0.277 C 
ATOM     13  O   UNL     1       4.213  -7.230  -4.560  0.00  0.00    -0.495 OA
ENDBRANCH   6  13
ENDBRANCH   5   9
BRANCH   5  14
ATOM     14  S   UNL     1       4.654  -2.915   0.303  0.00  0.00    +0.075 S 
ATOM     15  O   UNL     1       5.444  -1.912   0.927  0.00  0.00    -0.150 OA
ATOM     16  O   UNL     1       4.757  -4.289   0.648  0.00  0.00    -0.150 OA
BRANCH  14  17
ATOM     17  C   UNL     1       2.971  -2.457   0.550  0.00  0.00    +0.109 A 
ATOM     18  C   UNL     1       1.998  -3.434   0.654  0.00  0.00    +0.029 A 
ATOM     19  C   UNL     1       0.677  -3.075   0.848  0.00  0.00    +0.002 A 
ATOM     20  C   UNL     1       0.329  -1.740   0.938  0.00  0.00    +0.000 A 
ATOM     21  C   UNL     1       1.302  -0.764   0.834  0.00  0.00    +0.002 A 
ATOM     22  C   UNL     1       2.623  -1.123   0.640  0.00  0.00    +0.029 A 
ENDBRANCH  14  17
ENDBRANCH   5  14
ENDBRANCH   4   5
ENDBRANCH   1   4
BRANCH   1  23
ATOM     23  C   UNL     1       7.433  -0.239  -2.595  0.00  0.00    -0.045 C 
BRANCH  23  24
ATOM     24  N   UNL     1       8.900  -0.303  -2.765  0.00  0.00    +0.387 N 
ATOM     25  H   UNL     1       9.326  -0.588  -1.875  0.00  0.00    -0.081 HD
BRANCH  24  26
ATOM     26  C   UNL     1       9.245  -1.297  -3.803  0.00  0.00    -0.042 C 
BRANCH  26  27
ATOM     27  C   UNL     1      10.713  -1.619  -3.695  0.00  0.00    -0.064 A 
ATOM     28  C   UNL     1      11.621  -0.989  -4.526  0.00  0.00    +0.002 A 
ATOM     29  C   UNL     1      12.969  -1.280  -4.424  0.00  0.00    +0.000 A 
ATOM     30  C   UNL     1      13.407  -2.209  -3.499  0.00  0.00    +0.000 A 
ATOM     31  C   UNL     1      12.498  -2.843  -2.672  0.00  0.00    +0.000 A 
ATOM     32  C   UNL     1      11.152  -2.548  -2.770  0.00  0.00    +0.002 A 
ENDBRANCH  26  27
ENDBRANCH  24  26
BRANCH  24  33
ATOM     33  C   UNL     1       9.423   1.026  -3.144  0.00  0.00    -0.042 C 
BRANCH  33  34
ATOM     34  C   UNL     1       9.481   1.892  -1.912  0.00  0.00    -0.064 A 
ATOM     35  C   UNL     1       8.417   2.715  -1.594  0.00  0.00    +0.002 A 
ATOM     36  C   UNL     1       8.469   3.505  -0.461  0.00  0.00    +0.000 A 
ATOM     37  C   UNL     1       9.589   3.479   0.349  0.00  0.00    +0.000 A 
ATOM     38  C   UNL     1      10.655   2.660   0.028  0.00  0.00    +0.000 A 
ATOM     39  C   UNL     1      10.601   1.866  -1.102  0.00  0.00    +0.002 A 
ENDBRANCH  33  34
ENDBRANCH  24  33
ENDBRANCH  23  24
ENDBRANCH   1  23
TORSDOF 13
