REMARK  Name = ZINC41161562
REMARK  3 active torsions:
REMARK  status: ('A' for Active; 'I' for Inactive)
REMARK    1  A    between atoms: C_3  and  C_9
REMARK    2  A    between atoms: C_4  and  N_8
REMARK    3  A    between atoms: C_11  and  C_15
REMARK                            x       y       z     vdW  Elec       q    Type
REMARK                         _______ _______ _______ _____ _____    ______ ____
ROOT
ATOM      1  C   UNL     1       3.628   2.226  -0.006  0.00  0.00    +0.183 A 
ATOM      2  N   UNL     1       3.716   3.559  -0.098  0.00  0.00    -0.211 NA
ATOM      3  C   UNL     1       4.971   3.923  -0.068  0.00  0.00    +0.129 A 
ATOM      4  N   UNL     1       5.729   2.817   0.046  0.00  0.00    -0.262 N 
ATOM      5  H   UNL     1       6.697   2.779   0.093  0.00  0.00    +0.190 HD
ATOM      6  N   UNL     1       4.842   1.728   0.089  0.00  0.00    -0.152 NA
ENDROOT
BRANCH   1   9
ATOM      7  C   UNL     1       0.996  -0.286   0.941  0.00  0.00    +0.016 A 
ATOM      8  C   UNL     1       2.169   0.442   0.944  0.00  0.00    +0.014 A 
ATOM      9  C   UNL     1       2.370   1.440  -0.005  0.00  0.00    +0.042 A 
ATOM     10  C   UNL     1       1.378   1.700  -0.959  0.00  0.00    +0.036 A 
ATOM     11  C   UNL     1       0.204   0.961  -0.951  0.00  0.00    +0.038 A 
ATOM     12  C   UNL     1       0.017  -0.028  -0.003  0.00  0.00    +0.020 A 
ATOM     13 BR   UNL     1      -1.585  -1.033   0.004  0.00  0.00    -0.050 Br
BRANCH  10  14
ATOM     14  N   UNL     1       1.570   2.699  -1.914  0.00  0.00    -0.357 N 
ATOM     15  H   UNL     1       2.425   3.152  -1.977  0.00  0.00    +0.142 HD
ATOM     16  H   UNL     1       0.848   2.940  -2.515  0.00  0.00    +0.142 HD
ENDBRANCH  10  14
ENDBRANCH   1   9
BRANCH   3  17
ATOM     17  C   UNL     1       5.483   5.338  -0.147  0.00  0.00    +0.056 C 
ATOM     18  C   UNL     1       6.818   5.476   0.626  0.00  0.00    +0.011 C 
ATOM     19  C   UNL     1       7.471   6.713  -0.039  0.00  0.00    +0.001 C 
ATOM     20  C   UNL     1       7.113   6.574  -1.533  0.00  0.00    +0.001 C 
ATOM     21  C   UNL     1       5.849   5.699  -1.602  0.00  0.00    +0.011 C 
ENDBRANCH   3  17
TORSDOF 3
