REMARK  Name = ZINC19793083
REMARK  8 active torsions:
REMARK  status: ('A' for Active; 'I' for Inactive)
REMARK    1  A    between atoms: C_1  and  C_2
REMARK    2  A    between atoms: N_7  and  C_9
REMARK    3  A    between atoms: C_9  and  C_10
REMARK    4  A    between atoms: C_17  and  C_30
REMARK    5  A    between atoms: C_18  and  O_21
REMARK    6  A    between atoms: O_21  and  C_22
REMARK    7  A    between atoms: C_25  and  O_28
REMARK    8  A    between atoms: O_28  and  C_29
REMARK                            x       y       z     vdW  Elec       q    Type
REMARK                         _______ _______ _______ _____ _____    ______ ____
ROOT
ATOM      1  C   UNL     1      -1.088   7.581  -0.166  0.00  0.00    +0.026 A 
ATOM      2  C   UNL     1      -1.067   8.343   0.990  0.00  0.00    +0.184 A 
ATOM      3  C   UNL     1      -1.074   7.732   2.242  0.00  0.00    +0.052 A 
ATOM      4  C   UNL     1      -1.102   6.371   2.346  0.00  0.00    +0.019 A 
ATOM      5  C   UNL     1      -1.123   5.589   1.191  0.00  0.00    +0.068 A 
ATOM      6  C   UNL     1      -1.116   6.197  -0.077  0.00  0.00    +0.144 A 
ATOM      7  O   UNL     1      -1.137   5.431  -1.187  0.00  0.00    -0.447 OA
ATOM      8  C   UNL     1      -1.165   4.092  -1.135  0.00  0.00    +0.254 A 
ATOM      9  C   UNL     1      -1.174   3.408   0.026  0.00  0.00    +0.222 A 
ATOM     10  C   UNL     1      -1.159   4.118   1.260  0.00  0.00    +0.235 A 
ATOM     11  O   UNL     1      -1.171   3.532   2.330  0.00  0.00    -0.283 OA
ATOM     12  O   UNL     1      -1.040   9.698   0.902  0.00  0.00    -0.288 OA
ENDROOT
BRANCH   8  13
ATOM     13  C   UNL     1      -1.188   3.320  -2.429  0.00  0.00    +0.454 C 
ATOM     14  F   UNL     1      -2.514   3.109  -2.823  0.00  0.00    -0.163 F 
ATOM     15  F   UNL     1      -0.517   4.047  -3.418  0.00  0.00    -0.163 F 
ATOM     16  F   UNL     1      -0.554   2.086  -2.247  0.00  0.00    -0.163 F 
ENDBRANCH   8  13
BRANCH   1  17
ATOM     17  C   UNL     1      -1.080   8.252  -1.515  0.00  0.00    -0.035 C 
BRANCH  17  23
ATOM     18  C   UNL     1      -3.975  10.388  -4.870  0.00  0.00    +0.005 C 
ATOM     19  C   UNL     1      -3.937   9.475  -3.643  0.00  0.00    -0.031 C 
ATOM     20  C   UNL     1      -4.814  10.068  -2.537  0.00  0.00    -0.001 C 
ATOM     21  C   UNL     1      -4.723   9.180  -1.293  0.00  0.00    -0.018 C 
ATOM     22  C   UNL     1      -3.260   9.072  -0.855  0.00  0.00    -0.078 C 
ATOM     23  N   UNL     1      -2.463   8.499  -1.947  0.00  0.00    +0.383 N 
ATOM     24  C   UNL     1      -2.497   9.359  -3.137  0.00  0.00    -0.075 C 
ATOM     25  H   UNL     1      -2.912   7.532  -2.218  0.00  0.00    -0.081 HD
ENDBRANCH  17  23
ENDBRANCH   1  17
BRANCH   9  26
ATOM     26  O   UNL     1      -1.203   2.047   0.019  0.00  0.00    -0.448 OA
BRANCH  26  27
ATOM     27  C   UNL     1      -0.017   1.383   0.010  0.00  0.00    +0.129 A 
ATOM     28  C   UNL     1       1.175   2.093   0.002  0.00  0.00    +0.050 A 
ATOM     29  C   UNL     1       2.381   1.419  -0.013  0.00  0.00    +0.049 A 
ATOM     30  C   UNL     1       2.399   0.032  -0.021  0.00  0.00    +0.120 A 
ATOM     31  C   UNL     1       1.208  -0.678  -0.013  0.00  0.00    +0.049 A 
ATOM     32  C   UNL     1       0.002  -0.004   0.002  0.00  0.00    +0.050 A 
BRANCH  30  33
ATOM     33  O   UNL     1       3.586  -0.632  -0.036  0.00  0.00    -0.495 OA
ATOM     34  C   UNL     1       4.774   0.162  -0.043  0.00  0.00    +0.277 C 
ENDBRANCH  30  33
ENDBRANCH  26  27
ENDBRANCH   9  26
TORSDOF 6
