REMARK  Name = ZINC41119387
REMARK  13 active torsions:
REMARK  status: ('A' for Active; 'I' for Inactive)
REMARK    1  A    between atoms: C_1  and  C_2
REMARK    2  A    between atoms: C_2  and  C_4
REMARK    3  A    between atoms: C_2  and  N_19
REMARK    4  A    between atoms: C_4  and  N_5
REMARK    5  A    between atoms: N_5  and  C_6
REMARK    6  A    between atoms: C_7  and  C_9
REMARK    7  A    between atoms: C_14  and  O_15
REMARK    8  A    between atoms: O_15  and  C_16
REMARK    9  A    between atoms: C_20  and  O_22
REMARK   10  A    between atoms: O_22  and  C_23
REMARK   11  A    between atoms: C_23  and  C_24
REMARK   12  A    between atoms: C_23  and  C_25
REMARK   13  A    between atoms: C_23  and  C_26
REMARK                            x       y       z     vdW  Elec       q    Type
REMARK                         _______ _______ _______ _____ _____    ______ ____
ROOT
ATOM      1  N   UNL     1       0.659  -1.972   1.296  0.00  0.00    -0.299 N 
ATOM      2  C   UNL     1       1.689  -2.789   0.649  0.00  0.00    +0.132 C 
ATOM      3  C   UNL     1      -0.364  -2.566   1.942  0.00  0.00    +0.251 C 
ATOM      4  O   UNL     1      -1.219  -1.888   2.479  0.00  0.00    -0.270 OA
ENDROOT
BRANCH   3   5
ATOM      5  C   UNL     1      -0.448  -4.037   1.997  0.00  0.00    +0.098 A 
ATOM      6  C   UNL     1       0.152  -4.737   3.049  0.00  0.00    +0.057 A 
ATOM      7  C   UNL     1       0.070  -6.113   3.094  0.00  0.00    +0.022 A 
ATOM      8  C   UNL     1      -0.604  -6.806   2.102  0.00  0.00    +0.025 A 
ATOM      9  C   UNL     1      -1.200  -6.127   1.057  0.00  0.00    +0.083 A 
ATOM     10  C   UNL     1      -1.133  -4.742   0.999  0.00  0.00    +0.152 A 
ATOM     11 CL   UNL     1      -2.040  -7.007  -0.181  0.00  0.00    -0.080 Cl
ATOM     12 CL   UNL     1       0.998  -3.875   4.296  0.00  0.00    -0.083 Cl
BRANCH  10  13
ATOM     13  O   UNL     1      -1.724  -4.074  -0.024  0.00  0.00    -0.493 OA
ATOM     14  C   UNL     1      -0.931  -3.840  -1.190  0.00  0.00    +0.277 C 
ENDBRANCH  10  13
ENDBRANCH   3   5
BRANCH   1  15
ATOM     15  C   UNL     1       0.742  -0.511   1.242  0.00  0.00    +0.129 C 
BRANCH  15  17
ATOM     16  C   UNL     1      -0.019   1.526   0.010  0.00  0.00    +0.029 C 
ATOM     17  C   UNL     1       0.002  -0.004   0.002  0.00  0.00    +0.090 C 
BRANCH  17  18
ATOM     18  N   UNL     1      -1.372  -0.511   0.012  0.00  0.00    -0.277 N 
ATOM     19  C   UNL     1      -2.051  -0.643  -1.145  0.00  0.00    +0.401 C 
ATOM     20  O   UNL     1      -1.523  -0.341  -2.196  0.00  0.00    -0.226 OA
ATOM     21  H   UNL     1      -1.794  -0.752   0.852  0.00  0.00    +0.152 HD
BRANCH  19  22
ATOM     22  O   UNL     1      -3.314  -1.109  -1.135  0.00  0.00    -0.445 OA
BRANCH  22  23
ATOM     23  C   UNL     1      -3.973  -1.222  -2.398  0.00  0.00    +0.107 C 
ATOM     24  C   UNL     1      -3.189  -2.179  -3.298  0.00  0.00    +0.055 C 
ATOM     25  C   UNL     1      -5.388  -1.765  -2.188  0.00  0.00    +0.055 C 
ATOM     26  C   UNL     1      -4.048   0.155  -3.060  0.00  0.00    +0.055 C 
ENDBRANCH  22  23
ENDBRANCH  19  22
ENDBRANCH  17  18
ENDBRANCH  15  17
ENDBRANCH   1  15
TORSDOF 7
