REMARK  Name = ZINC36154596
REMARK  14 active torsions:
REMARK  status: ('A' for Active; 'I' for Inactive)
REMARK    1  A    between atoms: C_1  and  C_2
REMARK    2  A    between atoms: C_5  and  C_7
REMARK    3  A    between atoms: C_7  and  N_8
REMARK    4  A    between atoms: N_8  and  C_9
REMARK    5  A    between atoms: N_8  and  C_14
REMARK    6  A    between atoms: C_9  and  C_10
REMARK    7  A    between atoms: C_10  and  C_11
REMARK    8  A    between atoms: C_11  and  O_12
REMARK    9  A    between atoms: O_12  and  C_13
REMARK   10  A    between atoms: C_14  and  C_15
REMARK   11  A    between atoms: C_18  and  C_20
REMARK   12  A    between atoms: C_20  and  C_21
REMARK   13  A    between atoms: C_20  and  C_28
REMARK   14  A    between atoms: C_20  and  O_35
REMARK                            x       y       z     vdW  Elec       q    Type
REMARK                         _______ _______ _______ _____ _____    ______ ____
ROOT
ATOM      1  C   UNL     1       3.051  -5.801  -2.996  0.00  0.00    +0.089 A 
ATOM      2  C   UNL     1       3.951  -5.719  -3.992  0.00  0.00    +0.043 A 
ATOM      3  C   UNL     1       3.299  -6.149  -5.170  0.00  0.00    +0.048 A 
ATOM      4  C   UNL     1       2.039  -6.469  -4.824  0.00  0.00    +0.146 A 
ATOM      5  O   UNL     1       1.896  -6.262  -3.504  0.00  0.00    -0.463 OA
ENDROOT
BRANCH   1   6
ATOM      6  C   UNL     1       3.298  -5.443  -1.553  0.00  0.00    -0.003 C 
BRANCH   6   7
ATOM      7  N   UNL     1       3.098  -4.000  -1.365  0.00  0.00    +0.387 N 
ATOM      8  H   UNL     1       3.684  -3.493  -2.011  0.00  0.00    -0.081 HD
BRANCH   7   9
ATOM      9  C   UNL     1       1.690  -3.664  -1.615  0.00  0.00    -0.035 C 
BRANCH   9  14
ATOM     10  C   UNL     1       0.836   1.798  -0.382  0.00  0.00    +0.051 C 
ATOM     11  C   UNL     1       1.103   0.431  -0.956  0.00  0.00    -0.013 A 
ATOM     12  C   UNL     1       1.399   0.083  -2.232  0.00  0.00    +0.011 A 
ATOM     13  C   UNL     1       1.608  -1.250  -2.533  0.00  0.00    +0.009 A 
ATOM     14  C   UNL     1       1.510  -2.170  -1.542  0.00  0.00    -0.026 A 
ATOM     15  S   UNL     1       1.118  -1.152  -0.129  0.00  0.00    -0.100 S 
ENDBRANCH   9  14
ENDBRANCH   7   9
BRANCH   7  16
ATOM     16  C   UNL     1       3.453  -3.632   0.012  0.00  0.00    -0.076 C 
BRANCH  16  17
ATOM     17  C   UNL     1       4.954  -3.836   0.224  0.00  0.00    +0.009 C 
BRANCH  17  18
ATOM     18  C   UNL     1       5.330  -3.418   1.647  0.00  0.00    +0.157 C 
BRANCH  18  19
ATOM     19  O   UNL     1       6.732  -3.609   1.845  0.00  0.00    -0.383 OA
ATOM     20  C   UNL     1       7.190  -3.247   3.149  0.00  0.00    +0.193 C 
ENDBRANCH  18  19
ENDBRANCH  17  18
ENDBRANCH  16  17
ENDBRANCH   7  16
ENDBRANCH   6   7
ENDBRANCH   1   6
BRANCH   4  21
ATOM     21  C   UNL     1       0.971  -6.979  -5.756  0.00  0.00    +0.174 C 
BRANCH  21  22
ATOM     22  C   UNL     1       0.028  -7.877  -4.997  0.00  0.00    -0.002 A 
ATOM     23  C   UNL     1      -0.041  -9.223  -5.304  0.00  0.00    +0.007 A 
ATOM     24  C   UNL     1      -0.905 -10.048  -4.609  0.00  0.00    +0.003 A 
ATOM     25  C   UNL     1      -1.702  -9.528  -3.606  0.00  0.00    +0.038 A 
ATOM     26  C   UNL     1      -1.633  -8.180  -3.298  0.00  0.00    +0.124 A 
ATOM     27  C   UNL     1      -0.763  -7.356  -3.991  0.00  0.00    +0.045 A 
ATOM     28  F   UNL     1      -2.412  -7.670  -2.319  0.00  0.00    -0.205 F 
ENDBRANCH  21  22
BRANCH  21  29
ATOM     29  C   UNL     1       0.204  -5.814  -6.327  0.00  0.00    -0.002 A 
ATOM     30  C   UNL     1      -0.142  -4.750  -5.514  0.00  0.00    +0.007 A 
ATOM     31  C   UNL     1      -0.845  -3.680  -6.037  0.00  0.00    +0.003 A 
ATOM     32  C   UNL     1      -1.203  -3.674  -7.372  0.00  0.00    +0.038 A 
ATOM     33  C   UNL     1      -0.857  -4.738  -8.186  0.00  0.00    +0.124 A 
ATOM     34  C   UNL     1      -0.147  -5.806  -7.663  0.00  0.00    +0.045 A 
ATOM     35  F   UNL     1      -1.206  -4.733  -9.491  0.00  0.00    -0.205 F 
ENDBRANCH  21  29
BRANCH  21  36
ATOM     36  O   UNL     1       1.579  -7.716  -6.819  0.00  0.00    -0.372 OA
ATOM     37  H   UNL     1       2.090  -8.482  -6.524  0.00  0.00    +0.212 HD
ENDBRANCH  21  36
ENDBRANCH   4  21
TORSDOF 12
