REMARK  Name = ZINC36557381
REMARK  6 active torsions:
REMARK  status: ('A' for Active; 'I' for Inactive)
REMARK    1  A    between atoms: C_4  and  N_7
REMARK    2  A    between atoms: N_7  and  C_8
REMARK    3  A    between atoms: C_11  and  N_14
REMARK    4  A    between atoms: C_15  and  C_17
REMARK    5  A    between atoms: C_24  and  C_33
REMARK    6  A    between atoms: C_37  and  N_39
REMARK                            x       y       z     vdW  Elec       q    Type
REMARK                         _______ _______ _______ _____ _____    ______ ____
ROOT
ATOM      1  C   UNL     1       5.495  -9.438   0.333  0.00  0.00    +0.058 A 
ATOM      2  C   UNL     1       4.691 -10.562   0.130  0.00  0.00    +0.015 A 
ATOM      3  C   UNL     1       5.233 -11.824   0.232  0.00  0.00    +0.001 A 
ATOM      4  C   UNL     1       6.574 -11.984   0.544  0.00  0.00    +0.006 A 
ATOM      5  C   UNL     1       7.382 -10.889   0.754  0.00  0.00    -0.019 A 
ATOM      6  C   UNL     1       6.857  -9.596   0.635  0.00  0.00    +0.044 A 
ATOM      7  N   UNL     1       7.655  -8.467   0.793  0.00  0.00    -0.336 N 
ATOM      8  C   UNL     1       9.093  -8.582   1.124  0.00  0.00    +0.105 C 
ATOM      9  C   UNL     1       9.577  -9.836   0.419  0.00  0.00    +0.029 C 
ATOM     10  C   UNL     1       8.811 -11.014   1.111  0.00  0.00    +0.049 C 
ATOM     11  C   UNL     1       9.617 -12.203   0.733  0.00  0.00    -0.023 C 
ATOM     12  C   UNL     1      10.875 -11.821   0.549  0.00  0.00    -0.030 C 
ATOM     13  C   UNL     1      11.011 -10.296   0.714  0.00  0.00    +0.033 C 
ATOM     14  H   UNL     1       7.261  -7.588   0.684  0.00  0.00    +0.147 HD
ENDROOT
BRANCH   8  15
ATOM     15  C   UNL     1       9.275  -8.715   2.614  0.00  0.00    -0.025 A 
ATOM     16  C   UNL     1       8.260  -9.241   3.390  0.00  0.00    +0.005 A 
ATOM     17  C   UNL     1       8.427  -9.364   4.756  0.00  0.00    +0.003 A 
ATOM     18  C   UNL     1       9.610  -8.960   5.347  0.00  0.00    +0.033 A 
ATOM     19  C   UNL     1      10.626  -8.434   4.571  0.00  0.00    +0.127 A 
ATOM     20  C   UNL     1      10.460  -8.316   3.203  0.00  0.00    +0.038 A 
BRANCH  19  21
ATOM     21  N   UNL     1      11.892  -8.002   5.203  0.00  0.00    +0.056 N 
ATOM     22  O   UNL     1      12.038  -8.108   6.398  0.00  0.00    -0.126 OA
ATOM     23  O   UNL     1      12.781  -7.542   4.524  0.00  0.00    -0.126 OA
ENDBRANCH  19  21
ENDBRANCH   8  15
BRANCH   1  25
ATOM     24  N   UNL     1       3.588  -7.936   0.050  0.00  0.00    -0.281 N 
ATOM     25  C   UNL     1       4.916  -8.087   0.226  0.00  0.00    +0.250 C 
ATOM     26  O   UNL     1       5.636  -7.110   0.296  0.00  0.00    -0.270 OA
ATOM     27  H   UNL     1       3.023  -8.714  -0.075  0.00  0.00    +0.155 HD
BRANCH  24  31
ATOM     28  C   UNL     1       1.908  -4.119   0.048  0.00  0.00    +0.031 A 
ATOM     29  C   UNL     1       1.204  -5.188   0.587  0.00  0.00    +0.025 A 
ATOM     30  C   UNL     1       1.760  -6.451   0.588  0.00  0.00    +0.025 A 
ATOM     31  C   UNL     1       3.024  -6.654   0.049  0.00  0.00    +0.034 A 
ATOM     32  C   UNL     1       3.728  -5.585  -0.490  0.00  0.00    +0.025 A 
ATOM     33  C   UNL     1       3.170  -4.323  -0.496  0.00  0.00    +0.025 A 
BRANCH  28  34
ATOM     34  N   UNL     1       1.344  -2.839   0.046  0.00  0.00    -0.314 N 
ATOM     35  H   UNL     1       1.524  -2.230  -0.687  0.00  0.00    +0.152 HD
BRANCH  34  39
ATOM     36  C   UNL     1      -1.105  -1.639   3.193  0.00  0.00    +0.000 A 
ATOM     37  C   UNL     1      -0.158  -2.626   3.394  0.00  0.00    +0.002 A 
ATOM     38  C   UNL     1       0.656  -3.026   2.353  0.00  0.00    +0.023 A 
ATOM     39  C   UNL     1       0.522  -2.437   1.102  0.00  0.00    +0.031 A 
ATOM     40  C   UNL     1      -0.431  -1.446   0.903  0.00  0.00    +0.023 A 
ATOM     41  C   UNL     1      -1.242  -1.050   1.949  0.00  0.00    +0.002 A 
ENDBRANCH  34  39
ENDBRANCH  28  34
ENDBRANCH  24  31
ENDBRANCH   1  25
TORSDOF 6
