REMARK  Name = ZINC22292945
REMARK  6 active torsions:
REMARK  status: ('A' for Active; 'I' for Inactive)
REMARK    1  A    between atoms: C_1  and  C_2
REMARK    2  A    between atoms: C_5  and  C_33
REMARK    3  A    between atoms: N_8  and  C_10
REMARK    4  A    between atoms: C_10  and  C_11
REMARK    5  A    between atoms: C_17  and  C_19
REMARK    6  A    between atoms: C_19  and  N_20
REMARK                            x       y       z     vdW  Elec       q    Type
REMARK                         _______ _______ _______ _____ _____    ______ ____
ROOT
ATOM      1  C   UNL     1      -0.742   1.585  -1.213  0.00  0.00    +0.034 A 
ATOM      2  C   UNL     1      -0.352   2.724  -1.835  0.00  0.00    +0.070 A 
ATOM      3  S   UNL     1      -1.546   2.802  -3.163  0.00  0.00    -0.060 S 
ATOM      4  C   UNL     1      -2.417   1.353  -2.768  0.00  0.00    +0.165 A 
ATOM      5  N   UNL     1      -1.769   0.921  -1.704  0.00  0.00    -0.231 NA
ATOM      6  N   UNL     1      -3.512   0.789  -3.412  0.00  0.00    -0.263 N 
ATOM      7  C   UNL     1      -4.034   1.386  -4.502  0.00  0.00    +0.237 C 
ATOM      8  O   UNL     1      -3.547   2.415  -4.921  0.00  0.00    -0.274 OA
ATOM      9  H   UNL     1      -3.954  -0.144  -3.032  0.00  0.00    +0.157 HD
ENDROOT
BRANCH   1  10
ATOM     10  C   UNL     1      -0.013   1.086   0.008  0.00  0.00    -0.022 C 
BRANCH  10  16
ATOM     11  C   UNL     1      -0.259   0.828   4.914  0.00  0.00    +0.005 C 
ATOM     12  C   UNL     1      -0.800   1.525   3.664  0.00  0.00    -0.031 C 
ATOM     13  C   UNL     1      -2.320   1.350   3.598  0.00  0.00    +0.003 C 
ATOM     14  C   UNL     1      -2.845   1.998   2.315  0.00  0.00    -0.031 C 
ATOM     15  C   UNL     1      -2.152   1.364   1.107  0.00  0.00    -0.075 C 
ATOM     16  N   UNL     1      -0.700   1.560   1.217  0.00  0.00    +0.384 N 
ATOM     17  C   UNL     1      -0.165   0.905   2.417  0.00  0.00    -0.075 C 
ATOM     18  C   UNL     1      -4.356   1.776   2.212  0.00  0.00    +0.005 C 
ATOM     19  H   UNL     1      -0.514   2.639   1.312  0.00  0.00    -0.081 HD
ENDBRANCH  10  16
ENDBRANCH   1  10
BRANCH   7  20
ATOM     20  C   UNL     1      -5.221   0.776  -5.201  0.00  0.00    +0.212 C 
BRANCH  20  21
ATOM     21  N   UNL     1      -5.595   1.608  -6.347  0.00  0.00    -0.233 N 
ATOM     22  C   UNL     1      -5.087   1.428  -7.582  0.00  0.00    +0.226 C 
ATOM     23  O   UNL     1      -4.441   0.475  -7.962  0.00  0.00    -0.275 OA
ATOM     24  C   UNL     1      -5.481   2.656  -8.419  0.00  0.00    +0.091 C 
ATOM     25  C   UNL     1      -4.368   3.676  -8.164  0.00  0.00    +0.040 C 
ATOM     26  C   UNL     1      -4.840   5.080  -8.123  0.00  0.00    -0.030 C 
ATOM     27  C   UNL     1      -6.072   5.440  -7.976  0.00  0.00    -0.030 C 
ATOM     28  C   UNL     1      -7.204   4.468  -7.864  0.00  0.00    +0.040 C 
ATOM     29  C   UNL     1      -6.765   3.054  -7.674  0.00  0.00    +0.091 C 
ATOM     30  C   UNL     1      -6.484   2.622  -6.264  0.00  0.00    +0.226 C 
ATOM     31  O   UNL     1      -6.960   3.091  -5.252  0.00  0.00    -0.275 OA
ENDBRANCH  20  21
ENDBRANCH   7  20
TORSDOF 4
