REMARK  Name = ZINC12881872
REMARK  5 active torsions:
REMARK  status: ('A' for Active; 'I' for Inactive)
REMARK    1  A    between atoms: C_1  and  C_2
REMARK    2  A    between atoms: C_16  and  C_18
REMARK    3  A    between atoms: C_18  and  C_19
REMARK    4  A    between atoms: N_24  and  C_27
REMARK    5  A    between atoms: C_27  and  C_28
REMARK                            x       y       z     vdW  Elec       q    Type
REMARK                         _______ _______ _______ _____ _____    ______ ____
ROOT
ATOM      1  C   UNL     1       3.308  -4.792   0.476  0.00  0.00    +0.047 C 
ATOM      2  C   UNL     1       2.679  -3.780  -0.446  0.00  0.00    -0.011 A 
ATOM      3  C   UNL     1       2.453  -4.102  -1.770  0.00  0.00    +0.046 A 
ATOM      4  C   UNL     1       1.876  -3.178  -2.624  0.00  0.00    +0.020 A 
ATOM      5  C   UNL     1       1.525  -1.927  -2.150  0.00  0.00    +0.006 A 
ATOM      6  C   UNL     1       1.748  -1.602  -0.831  0.00  0.00    -0.027 A 
ATOM      7  C   UNL     1       2.329  -2.522   0.038  0.00  0.00    +0.040 A 
ATOM      8  N   UNL     1       2.455  -1.968   1.314  0.00  0.00    -0.286 N 
ATOM      9  C   UNL     1       1.987  -0.706   1.369  0.00  0.00    +0.211 C 
ATOM     10  O   UNL     1       1.969   0.019   2.341  0.00  0.00    -0.277 OA
ATOM     11  C   UNL     1       1.492  -0.369  -0.011  0.00  0.00    +0.050 C 
ATOM     12  C   UNL     1       0.002  -0.004   0.002  0.00  0.00    +0.088 C 
ATOM     13  C   UNL     1      -0.019   1.550   0.011  0.00  0.00    +0.073 C 
ATOM     14  C   UNL     1       1.467   1.967  -0.001  0.00  0.00    -0.049 C 
ATOM     15  C   UNL     1      -0.647   1.898  -1.320  0.00  0.00    +0.224 C 
ATOM     16  O   UNL     1      -0.847   3.022  -1.727  0.00  0.00    -0.275 OA
ATOM     17  N   UNL     1      -0.949   0.772  -1.977  0.00  0.00    -0.237 N 
ATOM     18  C   UNL     1      -0.631  -0.353  -1.327  0.00  0.00    +0.225 C 
ATOM     19  O   UNL     1      -0.822  -1.477  -1.738  0.00  0.00    -0.275 OA
ATOM     20 CL   UNL     1       2.893  -5.672  -2.365  0.00  0.00    -0.083 Cl
ATOM     21  H   UNL     1       2.835  -2.438   2.073  0.00  0.00    +0.155 HD
ATOM     22  N   UNL     1       2.164   0.805  -0.543  0.00  0.00    +0.394 N 
ATOM     23  H   UNL     1       2.114   0.807  -1.569  0.00  0.00    -0.083 HD
ATOM     24  H   UNL     1       3.148   0.813  -0.249  0.00  0.00    -0.083 HD
ENDROOT
BRANCH  14  25
ATOM     25  C   UNL     1       1.664   3.210  -0.872  0.00  0.00    +0.080 C 
BRANCH  25  26
ATOM     26  C   UNL     1       3.095   3.671  -0.772  0.00  0.00    +0.209 C 
ATOM     27  O   UNL     1       3.880   3.066  -0.073  0.00  0.00    -0.276 OA
ATOM     28  N   UNL     1       3.502   4.757  -1.459  0.00  0.00    -0.329 N 
ATOM     29  H   UNL     1       2.874   5.241  -2.018  0.00  0.00    +0.145 HD
ATOM     30  H   UNL     1       4.423   5.054  -1.395  0.00  0.00    +0.145 HD
ENDBRANCH  25  26
ENDBRANCH  14  25
BRANCH  17  31
ATOM     31  C   UNL     1      -1.576   0.772  -3.301  0.00  0.00    +0.151 C 
BRANCH  31  32
ATOM     32  C   UNL     1      -3.075   0.761  -3.147  0.00  0.00    -0.026 A 
ATOM     33  C   UNL     1      -3.753  -0.442  -3.085  0.00  0.00    +0.009 A 
ATOM     34  C   UNL     1      -5.128  -0.457  -2.937  0.00  0.00    +0.050 A 
ATOM     35  C   UNL     1      -5.830   0.735  -2.862  0.00  0.00    +0.166 A 
ATOM     36  C   UNL     1      -5.147   1.947  -2.930  0.00  0.00    +0.167 A 
ATOM     37  C   UNL     1      -3.769   1.954  -3.072  0.00  0.00    +0.054 A 
ATOM     38  O   UNL     1      -6.053   2.964  -2.835  0.00  0.00    -0.453 OA
ATOM     39  C   UNL     1      -7.332   2.367  -3.119  0.00  0.00    +0.466 C 
ATOM     40  O   UNL     1      -7.164   0.993  -2.725  0.00  0.00    -0.453 OA
ENDBRANCH  31  32
ENDBRANCH  17  31
TORSDOF 4
