REMARK  Name = ZINC27022585
REMARK  9 active torsions:
REMARK  status: ('A' for Active; 'I' for Inactive)
REMARK    1  A    between atoms: C_4  and  C_7
REMARK    2  A    between atoms: C_7  and  C_9
REMARK    3  A    between atoms: C_7  and  O_22
REMARK    4  A    between atoms: N_11  and  C_12
REMARK    5  A    between atoms: C_15  and  N_19
REMARK    6  A    between atoms: O_22  and  C_23
REMARK    7  A    between atoms: C_23  and  C_25
REMARK    8  A    between atoms: C_25  and  C_26
REMARK    9  A    between atoms: C_26  and  C_27
REMARK                            x       y       z     vdW  Elec       q    Type
REMARK                         _______ _______ _______ _____ _____    ______ ____
ROOT
ATOM      1  C   UNL     1       2.446   0.687   0.069  0.00  0.00    +0.292 C 
ENDROOT
BRANCH   1   5
ATOM      2  C   UNL     1       2.705  -1.811  -3.386  0.00  0.00    +0.000 A 
ATOM      3  C   UNL     1       2.128  -2.293  -2.226  0.00  0.00    +0.000 A 
ATOM      4  C   UNL     1       2.044  -1.485  -1.108  0.00  0.00    +0.008 A 
ATOM      5  C   UNL     1       2.537  -0.194  -1.150  0.00  0.00    +0.002 A 
ATOM      6  C   UNL     1       3.109   0.290  -2.312  0.00  0.00    +0.008 A 
ATOM      7  C   UNL     1       3.197  -0.519  -3.428  0.00  0.00    +0.000 A 
ENDBRANCH   1   5
BRANCH   1   8
ATOM      8  C   UNL     1       1.208   1.541  -0.020  0.00  0.00    +0.263 C 
ATOM      9  O   UNL     1       1.307   2.746  -0.116  0.00  0.00    -0.271 OA
ATOM     10  N   UNL     1      -0.011   0.966   0.007  0.00  0.00    -0.281 N 
ATOM     11  H   UNL     1      -0.102  -0.130   0.025  0.00  0.00    +0.155 HD
BRANCH  10  12
ATOM     12  C   UNL     1      -1.161   1.763   0.013  0.00  0.00    +0.052 A 
ATOM     13  C   UNL     1      -1.181   2.962  -0.688  0.00  0.00    +0.027 A 
ATOM     14  C   UNL     1      -2.317   3.746  -0.681  0.00  0.00    +0.034 A 
ATOM     15  C   UNL     1      -3.436   3.340   0.024  0.00  0.00    +0.128 A 
ATOM     16  C   UNL     1      -3.421   2.148   0.724  0.00  0.00    +0.054 A 
ATOM     17  C   UNL     1      -2.288   1.355   0.716  0.00  0.00    +0.064 A 
ATOM     18 CL   UNL     1      -2.272  -0.146   1.588  0.00  0.00    -0.082 Cl
BRANCH  15  19
ATOM     19  N   UNL     1      -4.652   4.184   0.029  0.00  0.00    +0.056 N 
ATOM     20  O   UNL     1      -4.667   5.234  -0.587  0.00  0.00    -0.126 OA
ATOM     21  O   UNL     1      -5.638   3.828   0.649  0.00  0.00    -0.126 OA
ENDBRANCH  15  19
ENDBRANCH  10  12
ENDBRANCH   1   8
BRANCH   1  22
ATOM     22  O   UNL     1       3.619   1.541   0.139  0.00  0.00    -0.447 OA
BRANCH  22  23
ATOM     23  C   UNL     1       4.679   1.067   0.812  0.00  0.00    +0.308 C 
ATOM     24  O   UNL     1       4.628  -0.025   1.326  0.00  0.00    -0.251 OA
BRANCH  23  25
ATOM     25  C   UNL     1       5.931   1.896   0.926  0.00  0.00    +0.125 C 
BRANCH  25  26
ATOM     26  C   UNL     1       6.978   1.130   1.737  0.00  0.00    +0.046 C 
BRANCH  26  27
ATOM     27  C   UNL     1       8.231   1.960   1.851  0.00  0.00    -0.043 A 
ATOM     28  C   UNL     1       9.226   1.842   0.899  0.00  0.00    +0.007 A 
ATOM     29  C   UNL     1      10.375   2.605   0.996  0.00  0.00    +0.050 A 
ATOM     30  C   UNL     1      10.536   3.482   2.056  0.00  0.00    +0.166 A 
ATOM     31  C   UNL     1       9.536   3.598   3.018  0.00  0.00    +0.166 A 
ATOM     32  C   UNL     1       8.385   2.834   2.911  0.00  0.00    +0.053 A 
ATOM     33  O   UNL     1       9.930   4.516   3.948  0.00  0.00    -0.453 OA
ATOM     34  C   UNL     1      11.351   4.661   3.768  0.00  0.00    +0.466 C 
ATOM     35  O   UNL     1      11.556   4.329   2.383  0.00  0.00    -0.453 OA
ENDBRANCH  26  27
ENDBRANCH  25  26
ENDBRANCH  23  25
ENDBRANCH  22  23
ENDBRANCH   1  22
TORSDOF 9
