REMARK  Name = ZINC28051975
REMARK  8 active torsions:
REMARK  status: ('A' for Active; 'I' for Inactive)
REMARK    1  A    between atoms: C_1  and  C_2
REMARK    2  A    between atoms: C_2  and  O_3
REMARK    3  A    between atoms: O_3  and  C_4
REMARK    4  A    between atoms: C_6  and  C_11
REMARK    5  A    between atoms: C_9  and  O_10
REMARK    6  A    between atoms: C_14  and  C_34
REMARK    7  A    between atoms: C_24  and  C_27
REMARK    8  A    between atoms: C_30  and  C_33
REMARK                            x       y       z     vdW  Elec       q    Type
REMARK                         _______ _______ _______ _____ _____    ______ ____
ROOT
ATOM      1  C   UNL     1      -2.513   0.978   0.020  0.00  0.00    +0.091 C 
ATOM      2  C   UNL     1      -3.308   1.334  -1.195  0.00  0.00    +0.049 A 
ATOM      3  C   UNL     1      -3.157   1.019  -2.542  0.00  0.00    +0.087 A 
ATOM      4  N   UNL     1      -4.149   1.604  -3.167  0.00  0.00    -0.081 NA
ATOM      5  O   UNL     1      -4.867   2.218  -2.402  0.00  0.00    -0.339 OA
ATOM      6  C   UNL     1      -4.435   2.114  -1.150  0.00  0.00    +0.226 A 
ATOM      7  N   UNL     1      -4.907   2.619   0.045  0.00  0.00    -0.286 N 
ATOM      8  C   UNL     1      -4.411   2.103   1.219  0.00  0.00    +0.019 C 
ATOM      9  C   UNL     1      -3.307   1.326   1.262  0.00  0.00    +0.024 C 
ATOM     10  C   UNL     1      -2.841   0.799   2.480  0.00  0.00    +0.162 C 
ATOM     11  O   UNL     1      -1.837   0.115   2.485  0.00  0.00    -0.292 OA
ATOM     12  C   UNL     1      -3.557   1.061   3.776  0.00  0.00    +0.088 C 
ATOM     13  C   UNL     1      -5.043   1.296   3.484  0.00  0.00    +0.032 C 
ATOM     14  C   UNL     1      -5.161   2.448   2.485  0.00  0.00    +0.059 C 
ATOM     15  C   UNL     1      -2.070   0.176  -3.159  0.00  0.00    +0.069 C 
ATOM     16  H   UNL     1      -5.663   3.417   0.044  0.00  0.00    +0.155 HD
ENDROOT
BRANCH  13  17
ATOM     17  C   UNL     1      -5.762   1.653   4.759  0.00  0.00    -0.043 A 
ATOM     18  C   UNL     1      -5.366   2.758   5.489  0.00  0.00    +0.004 A 
ATOM     19  C   UNL     1      -6.029   3.088   6.657  0.00  0.00    +0.003 A 
ATOM     20  C   UNL     1      -7.080   2.308   7.099  0.00  0.00    -0.050 A 
ATOM     21  C   UNL     1      -7.472   1.200   6.372  0.00  0.00    +0.003 A 
ATOM     22  C   UNL     1      -6.813   0.872   5.202  0.00  0.00    +0.004 A 
ATOM     23  C   UNL     1      -7.799   2.664   8.375  0.00  0.00    +0.044 C 
ENDBRANCH  13  17
BRANCH   1  26
ATOM     24  C   UNL     1       1.178   1.785   0.000  0.00  0.00    +0.162 A 
ATOM     25  C   UNL     1      -0.013   1.076   0.008  0.00  0.00    +0.054 A 
ATOM     26  C   UNL     1      -1.219   1.751   0.017  0.00  0.00    -0.032 A 
ATOM     27  C   UNL     1      -1.241   3.133   0.030  0.00  0.00    +0.008 A 
ATOM     28  C   UNL     1      -0.057   3.846   0.022  0.00  0.00    +0.049 A 
ATOM     29  C   UNL     1       1.155   3.176   0.008  0.00  0.00    +0.158 A 
BRANCH  29  30
ATOM     30  O   UNL     1       2.321   3.877  -0.000  0.00  0.00    -0.503 OA
ATOM     31  H   UNL     1       2.302   4.976   0.005  0.00  0.00    +0.292 HD
ENDBRANCH  29  30
BRANCH  24  32
ATOM     32  O   UNL     1       2.365   1.123  -0.015  0.00  0.00    -0.489 OA
BRANCH  32  34
ATOM     33  C   UNL     1       3.734  -0.869  -0.038  0.00  0.00    +0.048 C 
ATOM     34  C   UNL     1       2.312  -0.305  -0.022  0.00  0.00    +0.226 C 
ENDBRANCH  32  34
ENDBRANCH  24  32
ENDBRANCH   1  26
TORSDOF 5
