REMARK  Name = ZINC39325572
REMARK  7 active torsions:
REMARK  status: ('A' for Active; 'I' for Inactive)
REMARK    1  A    between atoms: C_1  and  C_2
REMARK    2  A    between atoms: C_8  and  C_14
REMARK    3  A    between atoms: C_14  and  N_15
REMARK    4  A    between atoms: N_15  and  C_16
REMARK    5  A    between atoms: N_15  and  S_22
REMARK    6  A    between atoms: S_22  and  C_25
REMARK    7  A    between atoms: C_26  and  C_34
REMARK                            x       y       z     vdW  Elec       q    Type
REMARK                         _______ _______ _______ _____ _____    ______ ____
ROOT
ATOM      1  N   UNL     1      -0.578  -2.054   6.723  0.00  0.00    -0.172 NA
ENDROOT
BRANCH   1   2
ATOM      2  C   UNL     1      -1.514  -0.971   7.036  0.00  0.00    +0.080 C 
ATOM      3  C   UNL     1      -1.398   0.126   5.976  0.00  0.00    +0.020 C 
ATOM      4  C   UNL     1      -2.375   1.257   6.303  0.00  0.00    +0.002 C 
ATOM      5  C   UNL     1      -3.803   0.709   6.317  0.00  0.00    +0.000 C 
ATOM      6  C   UNL     1      -3.919  -0.387   7.377  0.00  0.00    +0.002 C 
ATOM      7  C   UNL     1      -2.942  -1.518   7.050  0.00  0.00    +0.020 C 
ENDBRANCH   1   2
BRANCH   1   8
ATOM      8  S   UNL     1       0.610  -2.460   7.802  0.00  0.00    +0.063 S 
ATOM      9  O   UNL     1       0.179  -1.996   9.074  0.00  0.00    -0.153 OA
ATOM     10  O   UNL     1       0.934  -3.821   7.557  0.00  0.00    -0.153 OA
BRANCH   8  11
ATOM     11  C   UNL     1       2.039  -1.519   7.381  0.00  0.00    +0.136 A 
ATOM     12  C   UNL     1       2.242  -0.307   7.949  0.00  0.00    -0.022 A 
ATOM     13  C   UNL     1       3.362   0.465   7.640  0.00  0.00    +0.007 A 
ATOM     14  C   UNL     1       4.295   0.036   6.758  0.00  0.00    +0.031 A 
ATOM     15  C   UNL     1       4.149  -1.227   6.123  0.00  0.00    +0.102 A 
ATOM     16  C   UNL     1       2.980  -2.037   6.450  0.00  0.00    +0.126 A 
ATOM     17  N   UNL     1       2.950  -3.201   5.800  0.00  0.00    -0.189 NA
ATOM     18  S   UNL     1       4.278  -3.226   4.892  0.00  0.00    +0.117 S 
ATOM     19  N   UNL     1       4.958  -1.808   5.236  0.00  0.00    -0.191 NA
ATOM     20  C   UNL     1       1.234   0.221   8.938  0.00  0.00    +0.046 C 
ENDBRANCH   8  11
ENDBRANCH   1   8
BRANCH   1  21
ATOM     21  C   UNL     1      -0.695  -2.778   5.455  0.00  0.00    +0.126 C 
BRANCH  21  29
ATOM     22  C   UNL     1      -0.786  -8.742   6.904  0.00  0.00    +0.045 C 
ATOM     23  C   UNL     1      -1.074  -8.025   5.610  0.00  0.00    -0.029 A 
ATOM     24  C   UNL     1      -1.112  -8.725   4.446  0.00  0.00    +0.005 A 
ATOM     25  C   UNL     1      -1.373  -8.124   3.215  0.00  0.00    +0.001 A 
ATOM     26  C   UNL     1      -1.606  -6.789   3.114  0.00  0.00    +0.009 A 
ATOM     27  C   UNL     1      -1.579  -5.975   4.330  0.00  0.00    -0.007 A 
ATOM     28  C   UNL     1      -1.807  -4.632   4.277  0.00  0.00    -0.003 C 
ATOM     29  C   UNL     1      -1.761  -3.868   5.585  0.00  0.00    +0.114 C 
ATOM     30  C   UNL     1      -1.466  -4.656   6.841  0.00  0.00    +0.225 C 
ATOM     31  O   UNL     1      -1.417  -4.093   7.919  0.00  0.00    -0.275 OA
ATOM     32  N   UNL     1      -1.261  -5.960   6.764  0.00  0.00    -0.284 N 
ATOM     33  C   UNL     1      -1.306  -6.638   5.617  0.00  0.00    +0.043 A 
ATOM     34  H   UNL     1      -1.073  -6.448   7.582  0.00  0.00    +0.155 HD
ENDBRANCH  21  29
ENDBRANCH   1  21
TORSDOF 5
