REMARK  Name = ZINC41626789
REMARK  9 active torsions:
REMARK  status: ('A' for Active; 'I' for Inactive)
REMARK    1  A    between atoms: C_1  and  C_2
REMARK    2  A    between atoms: C_6  and  C_25
REMARK    3  A    between atoms: C_8  and  N_11
REMARK    4  A    between atoms: N_11  and  S_12
REMARK    5  A    between atoms: S_12  and  C_15
REMARK    6  A    between atoms: N_17  and  C_24
REMARK    7  A    between atoms: N_20  and  C_23
REMARK    8  A    between atoms: C_25  and  C_26
REMARK    9  A    between atoms: C_25  and  C_27
REMARK                            x       y       z     vdW  Elec       q    Type
REMARK                         _______ _______ _______ _____ _____    ______ ____
ROOT
ATOM      1  S   UNL     1       1.518   2.293   3.095  0.00  0.00    +0.065 S 
ATOM      2  O   UNL     1       1.211   3.672   2.942  0.00  0.00    -0.153 OA
ATOM      3  O   UNL     1       1.829   1.717   4.356  0.00  0.00    -0.153 OA
ENDROOT
BRANCH   1   4
ATOM      4  C   UNL     1       2.889   1.962   2.039  0.00  0.00    +0.186 A 
ATOM      5  C   UNL     1       3.871   1.124   2.435  0.00  0.00    +0.124 A 
ATOM      6  N   UNL     1       4.928   0.878   1.602  0.00  0.00    -0.301 N 
ATOM      7  C   UNL     1       4.998   1.463   0.392  0.00  0.00    +0.332 A 
ATOM      8  O   UNL     1       5.947   1.230  -0.332  0.00  0.00    -0.246 OA
ATOM      9  N   UNL     1       4.033   2.301  -0.028  0.00  0.00    -0.262 N 
ATOM     10  C   UNL     1       2.971   2.565   0.761  0.00  0.00    +0.283 A 
ATOM     11  O   UNL     1       2.095   3.320   0.379  0.00  0.00    -0.265 OA
ATOM     12  C   UNL     1       4.133   2.925  -1.350  0.00  0.00    +0.157 C 
ATOM     13  C   UNL     1       5.994  -0.030   2.031  0.00  0.00    +0.153 C 
ENDBRANCH   1   4
BRANCH   1  14
ATOM     14  N   UNL     1       0.224   1.450   2.497  0.00  0.00    -0.186 NA
ATOM     15  H   UNL     1      -0.547   1.927   2.152  0.00  0.00    +0.148 HD
BRANCH  14  21
ATOM     16  C   UNL     1      -0.275   1.522   0.049  0.00  0.00    +0.007 C 
ATOM     17  C   UNL     1      -0.254  -0.008   0.040  0.00  0.00    -0.013 C 
ATOM     18  C   UNL     1      -1.660  -0.538   0.325  0.00  0.00    +0.003 C 
ATOM     19  C   UNL     1      -2.125  -0.042   1.695  0.00  0.00    +0.005 C 
ATOM     20  C   UNL     1      -1.163  -0.545   2.773  0.00  0.00    +0.010 C 
ATOM     21  C   UNL     1       0.244  -0.015   2.489  0.00  0.00    +0.080 C 
ATOM     22  C   UNL     1       0.709  -0.511   1.118  0.00  0.00    +0.024 C 
BRANCH  20  23
ATOM     23  C   UNL     1      -1.628  -0.049   4.144  0.00  0.00    -0.013 C 
ATOM     24  C   UNL     1      -3.034  -0.580   4.428  0.00  0.00    +0.007 C 
ATOM     25  C   UNL     1      -0.666  -0.552   5.221  0.00  0.00    +0.007 C 
ENDBRANCH  20  23
ENDBRANCH  14  21
ENDBRANCH   1  14
TORSDOF 4
