REMARK  Name = ZINC40877988
REMARK  10 active torsions:
REMARK  status: ('A' for Active; 'I' for Inactive)
REMARK    1  A    between atoms: C_1  and  C_2
REMARK    2  A    between atoms: C_2  and  C_3
REMARK    3  A    between atoms: C_3  and  C_4
REMARK    4  A    between atoms: C_4  and  N_5
REMARK    5  A    between atoms: C_6  and  C_8
REMARK    6  A    between atoms: C_8  and  N_9
REMARK    7  A    between atoms: C_15  and  C_17
REMARK    8  A    between atoms: N_22  and  C_24
REMARK    9  A    between atoms: C_27  and  C_31
REMARK   10  A    between atoms: C_33  and  C_36
REMARK                            x       y       z     vdW  Elec       q    Type
REMARK                         _______ _______ _______ _____ _____    ______ ____
ROOT
ATOM      1  C   UNL     1      -6.764 -10.197  -0.963  0.00  0.00    +0.092 C 
ATOM      2  C   UNL     1      -6.569 -10.675   0.478  0.00  0.00    +0.016 C 
ATOM      3  C   UNL     1      -7.863 -11.319   0.983  0.00  0.00    +0.020 C 
ATOM      4  C   UNL     1      -8.196 -12.535   0.111  0.00  0.00    +0.105 C 
ATOM      5  N   UNL     1      -8.241 -12.110  -1.295  0.00  0.00    -0.327 N 
ATOM      6  C   UNL     1      -7.085 -11.399  -1.856  0.00  0.00    +0.118 C 
ENDROOT
BRANCH   1  13
ATOM      7  N   UNL     1      -5.180  -5.472  -1.405  0.00  0.00    -0.291 NA
ATOM      8  C   UNL     1      -4.297  -6.294  -2.243  0.00  0.00    +0.104 C 
ATOM      9  C   UNL     1      -3.985  -7.606  -1.516  0.00  0.00    +0.123 C 
ATOM     10  N   UNL     1      -5.255  -8.245  -1.139  0.00  0.00    -0.299 N 
ATOM     11  C   UNL     1      -6.251  -7.439  -0.415  0.00  0.00    +0.123 C 
ATOM     12  C   UNL     1      -6.473  -6.133  -1.185  0.00  0.00    +0.104 C 
ATOM     13  C   UNL     1      -5.501  -9.533  -1.447  0.00  0.00    +0.220 C 
ATOM     14  O   UNL     1      -4.705 -10.159  -2.115  0.00  0.00    -0.275 OA
BRANCH   7  15
ATOM     15  C   UNL     1      -5.365  -4.136  -1.988  0.00  0.00    +0.180 C 
BRANCH  15  17
ATOM     16  N   UNL     1      -3.980  -2.141  -2.459  0.00  0.00    -0.314 N 
ATOM     17  C   UNL     1      -4.052  -3.395  -1.971  0.00  0.00    +0.227 C 
ATOM     18  O   UNL     1      -3.061  -3.928  -1.519  0.00  0.00    -0.274 OA
ATOM     19  H   UNL     1      -4.773  -1.715  -2.821  0.00  0.00    +0.149 HD
BRANCH  16  20
ATOM     20  C   UNL     1      -2.704  -1.421  -2.444  0.00  0.00    +0.104 C 
BRANCH  20  21
ATOM     21  C   UNL     1      -2.896  -0.030  -3.050  0.00  0.00    +0.018 C 
BRANCH  21  23
ATOM     22  C   UNL     1      -1.755   2.113  -3.641  0.00  0.00    +0.004 C 
ATOM     23  C   UNL     1      -1.563   0.722  -3.034  0.00  0.00    -0.002 C 
ENDBRANCH  21  23
ENDBRANCH  20  21
ENDBRANCH  16  20
ENDBRANCH  15  17
ENDBRANCH   7  15
ENDBRANCH   1  13
BRANCH   5  24
ATOM     24  C   UNL     1      -9.363 -12.378  -2.082  0.00  0.00    +0.065 A 
ATOM     25  C   UNL     1     -10.402 -11.458  -2.145  0.00  0.00    +0.027 A 
ATOM     26  C   UNL     1     -11.510 -11.719  -2.922  0.00  0.00    +0.013 A 
ATOM     27  C   UNL     1     -11.589 -12.908  -3.646  0.00  0.00    +0.025 A 
ATOM     28  C   UNL     1     -10.545 -13.831  -3.583  0.00  0.00    +0.052 A 
ATOM     29  C   UNL     1      -9.435 -13.564  -2.808  0.00  0.00    +0.145 A 
ATOM     30  F   UNL     1      -8.421 -14.455  -2.750  0.00  0.00    -0.204 F 
BRANCH  27  31
ATOM     31  C   UNL     1     -12.780 -13.191  -4.482  0.00  0.00    +0.202 A 
ATOM     32  N   UNL     1     -12.977 -14.300  -5.220  0.00  0.00    -0.191 NA
ATOM     33  C   UNL     1     -14.125 -14.230  -5.831  0.00  0.00    +0.231 A 
ATOM     34  O   UNL     1     -14.710 -13.070  -5.507  0.00  0.00    -0.337 OA
ATOM     35  N   UNL     1     -13.821 -12.406  -4.621  0.00  0.00    -0.056 NA
BRANCH  33  36
ATOM     36  C   UNL     1     -14.698 -15.279  -6.749  0.00  0.00    +0.078 C 
ATOM     37  C   UNL     1     -15.966 -14.921  -7.526  0.00  0.00    +0.014 C 
ATOM     38  C   UNL     1     -16.038 -15.906  -6.357  0.00  0.00    +0.014 C 
ENDBRANCH  33  36
ENDBRANCH  27  31
ENDBRANCH   5  24
TORSDOF 9
