REMARK  Name = ZINC42535446
REMARK  7 active torsions:
REMARK  status: ('A' for Active; 'I' for Inactive)
REMARK    1  A    between atoms: C_1  and  C_2
REMARK    2  A    between atoms: C_6  and  N_9
REMARK    3  A    between atoms: C_7  and  C_8
REMARK    4  A    between atoms: C_10  and  C_12
REMARK    5  A    between atoms: C_12  and  C_14
REMARK    6  A    between atoms: C_12  and  N_15
REMARK    7  A    between atoms: C_18  and  N_21
REMARK                            x       y       z     vdW  Elec       q    Type
REMARK                         _______ _______ _______ _____ _____    ______ ____
ROOT
ATOM      1  N   UNL     1      -0.087  -6.342   3.417  0.00  0.00    +0.387 N 
ATOM      2  C   UNL     1      -0.070  -7.075   4.689  0.00  0.00    -0.076 C 
ATOM      3  C   UNL     1      -0.109  -8.580   4.415  0.00  0.00    +0.006 C 
ATOM      4  C   UNL     1       1.114  -8.973   3.582  0.00  0.00    +0.089 C 
ATOM      5  C   UNL     1       1.126  -8.149   2.291  0.00  0.00    +0.006 C 
ATOM      6  C   UNL     1       1.119  -6.660   2.643  0.00  0.00    -0.076 C 
ATOM      7  H   UNL     1      -0.904  -6.608   2.889  0.00  0.00    -0.081 HD
ENDROOT
BRANCH   4   8
ATOM      8  N   UNL     1       1.044 -10.399   3.252  0.00  0.00    -0.289 N 
ATOM      9  C   UNL     1       1.980 -11.365   3.611  0.00  0.00    +0.070 A 
ATOM     10  C   UNL     1       3.168 -11.320   4.324  0.00  0.00    +0.028 A 
ATOM     11  C   UNL     1       3.896 -12.478   4.522  0.00  0.00    +0.002 A 
ATOM     12  C   UNL     1       3.444 -13.682   4.010  0.00  0.00    +0.002 A 
ATOM     13  C   UNL     1       2.262 -13.737   3.298  0.00  0.00    +0.028 A 
ATOM     14  C   UNL     1       1.524 -12.580   3.095  0.00  0.00    +0.067 A 
ATOM     15  N   UNL     1       0.325 -12.314   2.438  0.00  0.00    -0.306 N 
ATOM     16  H   UNL     1      -0.227 -12.966   1.979  0.00  0.00    +0.170 HD
ATOM     17  C   UNL     1       0.061 -10.999   2.555  0.00  0.00    +0.328 A 
ATOM     18  O   UNL     1      -0.916 -10.437   2.096  0.00  0.00    -0.247 OA
ENDBRANCH   4   8
BRANCH   1  19
ATOM     19  C   UNL     1      -0.129  -4.898   3.686  0.00  0.00    +0.016 C 
ATOM     20  C   UNL     1      -1.421  -4.555   4.430  0.00  0.00    -0.004 C 
BRANCH  19  22
ATOM     21  N   UNL     1       0.418  -2.893   2.344  0.00  0.00    -0.287 N 
ATOM     22  C   UNL     1      -0.084  -4.143   2.382  0.00  0.00    +0.203 C 
ATOM     23  O   UNL     1      -0.501  -4.661   1.367  0.00  0.00    -0.277 OA
ATOM     24  H   UNL     1       0.821  -2.508   3.138  0.00  0.00    +0.155 HD
BRANCH  21  30
ATOM     25  C   UNL     1       2.102   0.808  -0.419  0.00  0.00    +0.044 C 
ATOM     26  C   UNL     1       1.164  -0.352  -0.206  0.00  0.00    -0.046 A 
ATOM     27  C   UNL     1       0.243  -0.683  -1.183  0.00  0.00    +0.004 A 
ATOM     28  C   UNL     1      -0.620  -1.747  -0.992  0.00  0.00    +0.002 A 
ATOM     29  C   UNL     1      -0.564  -2.482   0.176  0.00  0.00    +0.023 A 
ATOM     30  C   UNL     1       0.360  -2.151   1.159  0.00  0.00    +0.036 A 
ATOM     31  C   UNL     1       1.228  -1.086   0.962  0.00  0.00    -0.026 A 
ATOM     32  C   UNL     1       2.236  -0.727   2.023  0.00  0.00    +0.046 C 
ENDBRANCH  21  30
ENDBRANCH  19  22
ENDBRANCH   1  19
TORSDOF 4
