REMARK  Name = ZINC27100093
REMARK  11 active torsions:
REMARK  status: ('A' for Active; 'I' for Inactive)
REMARK    1  A    between atoms: C_1  and  C_2
REMARK    2  A    between atoms: C_2  and  O_3
REMARK    3  A    between atoms: O_3  and  C_4
REMARK    4  A    between atoms: C_4  and  C_6
REMARK    5  A    between atoms: C_9  and  O_12
REMARK    6  A    between atoms: O_12  and  C_13
REMARK    7  A    between atoms: C_14  and  C_39
REMARK    8  A    between atoms: C_22  and  O_38
REMARK    9  A    between atoms: C_23  and  C_24
REMARK   10  A    between atoms: C_24  and  N_25
REMARK   11  A    between atoms: C_30  and  C_32
REMARK                            x       y       z     vdW  Elec       q    Type
REMARK                         _______ _______ _______ _____ _____    ______ ____
ROOT
ATOM      1  C   UNL     1       3.334   3.465  -0.002  0.00  0.00    +0.213 A 
ATOM      2  C   UNL     1       2.117   4.031   0.125  0.00  0.00    +0.148 A 
ATOM      3  O   UNL     1       0.979   3.332   0.022  0.00  0.00    -0.456 OA
ATOM      4  C   UNL     1       0.965   2.005  -0.218  0.00  0.00    +0.144 A 
ATOM      5  C   UNL     1       2.178   1.310  -0.368  0.00  0.00    +0.068 A 
ATOM      6  C   UNL     1       3.436   2.068  -0.256  0.00  0.00    +0.235 A 
ATOM      7  O   UNL     1       4.520   1.522  -0.377  0.00  0.00    -0.283 OA
ATOM      8  C   UNL     1       2.176  -0.064  -0.616  0.00  0.00    +0.019 A 
ATOM      9  C   UNL     1       0.989  -0.733  -0.712  0.00  0.00    +0.046 A 
ATOM     10  C   UNL     1      -0.217  -0.052  -0.564  0.00  0.00    +0.122 A 
ATOM     11  C   UNL     1      -0.232   1.311  -0.318  0.00  0.00    +0.020 A 
ATOM     12  C   UNL     1       2.033   5.511   0.395  0.00  0.00    +0.090 C 
ENDROOT
BRANCH  10  13
ATOM     13  O   UNL     1      -1.389  -0.731  -0.661  0.00  0.00    -0.506 OA
ATOM     14  H   UNL     1      -2.344  -0.198  -0.546  0.00  0.00    +0.292 HD
ENDBRANCH  10  13
BRANCH   1  15
ATOM     15  O   UNL     1       4.458   4.225   0.114  0.00  0.00    -0.449 OA
BRANCH  15  19
ATOM     16  C   UNL     1       5.987   5.954  -3.308  0.00  0.00    +0.059 A 
ATOM     17  C   UNL     1       6.620   6.155  -2.077  0.00  0.00    +0.018 A 
ATOM     18  C   UNL     1       6.107   5.577  -0.939  0.00  0.00    +0.047 A 
ATOM     19  C   UNL     1       4.960   4.793  -1.011  0.00  0.00    +0.129 A 
ATOM     20  C   UNL     1       4.331   4.586  -2.233  0.00  0.00    +0.047 A 
ATOM     21  C   UNL     1       4.835   5.165  -3.376  0.00  0.00    +0.018 A 
BRANCH  16  22
ATOM     22  C   UNL     1       6.534   6.572  -4.530  0.00  0.00    +0.339 C 
ATOM     23  O   UNL     1       7.535   7.258  -4.468  0.00  0.00    -0.245 OA
BRANCH  22  24
ATOM     24  O   UNL     1       5.922   6.377  -5.715  0.00  0.00    -0.461 OA
BRANCH  24  26
ATOM     25  C   UNL     1       5.689   6.682  -8.119  0.00  0.00    +0.048 C 
ATOM     26  C   UNL     1       6.515   7.016  -6.876  0.00  0.00    +0.229 C 
ENDBRANCH  24  26
ENDBRANCH  22  24
ENDBRANCH  16  22
ENDBRANCH  15  19
ENDBRANCH   1  15
BRANCH  11  27
ATOM     27  C   UNL     1      -1.543   2.038  -0.166  0.00  0.00    -0.035 C 
BRANCH  27  28
ATOM     28  N   UNL     1      -1.865   2.175   1.260  0.00  0.00    +0.388 N 
ATOM     29  C   UNL     1      -1.956   0.860   1.908  0.00  0.00    -0.077 C 
ATOM     30  C   UNL     1      -2.147   1.044   3.415  0.00  0.00    -0.019 C 
ATOM     31  C   UNL     1      -3.425   1.848   3.668  0.00  0.00    -0.003 C 
ATOM     32  C   UNL     1      -3.325   3.193   2.943  0.00  0.00    -0.009 C 
ATOM     33  C   UNL     1      -3.100   2.947   1.450  0.00  0.00    -0.018 C 
ATOM     34  H   UNL     1      -1.046   2.729   1.742  0.00  0.00    -0.080 HD
BRANCH  33  35
ATOM     35  C   UNL     1      -2.981   4.268   0.735  0.00  0.00    +0.028 A 
ATOM     36  C   UNL     1      -4.121   4.907   0.287  0.00  0.00    +0.021 A 
ATOM     37  C   UNL     1      -4.001   6.123  -0.369  0.00  0.00    +0.003 A 
ATOM     38  C   UNL     1      -2.732   6.652  -0.550  0.00  0.00    +0.020 A 
ATOM     39  C   UNL     1      -1.637   5.955  -0.074  0.00  0.00    +0.111 A 
ATOM     40  N   UNL     1      -1.790   4.803   0.550  0.00  0.00    -0.262 NA
ENDBRANCH  33  35
ENDBRANCH  27  28
ENDBRANCH  11  27
TORSDOF 9
