REMARK  Name = ZINC02558737
REMARK  2 active torsions:
REMARK  status: ('A' for Active; 'I' for Inactive)
REMARK    1  A    between atoms: C_2  and  C_10
REMARK    2  A    between atoms: N_5  and  N_8
REMARK                            x       y       z     vdW  Elec       q    Type
REMARK                         _______ _______ _______ _____ _____    ______ ____
ROOT
ATOM      1  C   UNL     1      -0.016   1.402   0.051  0.00  0.00    +0.114 A 
ATOM      2  C   UNL     1       1.169   2.078   0.002  0.00  0.00    +0.166 A 
ATOM      3  N   UNL     1       2.318   1.408  -0.053  0.00  0.00    -0.209 NA
ATOM      4  C   UNL     1       2.344   0.090  -0.062  0.00  0.00    +0.214 A 
ATOM      5  N   UNL     1       1.195  -0.637  -0.015  0.00  0.00    -0.201 N 
ATOM      6  C   UNL     1       0.003  -0.004   0.042  0.00  0.00    +0.286 A 
ATOM      7  O   UNL     1      -1.037  -0.641   0.085  0.00  0.00    -0.265 OA
ATOM      8  N   UNL     1       3.549  -0.559  -0.119  0.00  0.00    -0.328 N 
ATOM      9 BR   UNL     1      -1.655   2.341   0.137  0.00  0.00    -0.042 Br
ATOM     10  H   UNL     1       4.373  -0.049  -0.153  0.00  0.00    +0.145 HD
ATOM     11  H   UNL     1       3.577  -1.528  -0.126  0.00  0.00    +0.145 HD
ENDROOT
BRANCH   2  12
ATOM     12  C   UNL     1       1.177   3.585   0.010  0.00  0.00    +0.436 C 
ATOM     13  F   UNL     1      -0.136   4.059  -0.090  0.00  0.00    -0.164 F 
ATOM     14  F   UNL     1       1.748   4.042   1.203  0.00  0.00    -0.164 F 
ATOM     15  F   UNL     1       1.925   4.053  -1.075  0.00  0.00    -0.164 F 
ENDBRANCH   2  12
BRANCH   5  16
ATOM     16  N   UNL     1       1.246  -2.002  -0.025  0.00  0.00    -0.293 N 
ATOM     17  H   UNL     1       0.320  -2.399   0.014  0.00  0.00    +0.163 HD
ATOM     18  H   UNL     1       1.750  -2.338  -0.832  0.00  0.00    +0.163 HD
ENDBRANCH   5  16
TORSDOF 2
