REMARK  Name = ZINC63374659
REMARK  8 active torsions:
REMARK  status: ('A' for Active; 'I' for Inactive)
REMARK    1  A    between atoms: C_1  and  C_2
REMARK    2  A    between atoms: C_5  and  C_8
REMARK    3  A    between atoms: N_26  and  C_29
REMARK    4  A    between atoms: C_34  and  C_35
REMARK    5  A    between atoms: N_37  and  C_38
REMARK    6  A    between atoms: C_38  and  C_39
REMARK    7  A    between atoms: C_39  and  C_40
REMARK    8  A    between atoms: C_39  and  C_41
REMARK                            x       y       z     vdW  Elec       q    Type
REMARK                         _______ _______ _______ _____ _____    ______ ____
ROOT
ATOM      1  C   UNL     1       0.059  -4.275  -0.021  0.00  0.00    +0.135 C 
ATOM      2  C   UNL     1       1.502  -4.782   0.125  0.00  0.00    +0.131 C 
ATOM      3  C   UNL     1       1.421  -6.259   0.486  0.00  0.00    -0.034 C 
ATOM      4  C   UNL     1       2.115  -6.909  -0.443  0.00  0.00    -0.001 A 
ATOM      5  C   UNL     1       2.447  -8.335  -0.596  0.00  0.00    +0.010 A 
ATOM      6  C   UNL     1       3.182  -8.664  -1.692  0.00  0.00    +0.001 A 
ATOM      7  C   UNL     1       3.615  -7.729  -2.637  0.00  0.00    +0.002 A 
ATOM      8  C   UNL     1       3.358  -6.399  -2.573  0.00  0.00    +0.026 A 
ATOM      9  C   UNL     1       2.596  -5.930  -1.464  0.00  0.00    +0.043 A 
ATOM     10  N   UNL     1       2.227  -4.702  -1.145  0.00  0.00    -0.375 N 
ATOM     11  C   UNL     1       0.619  -6.784   1.654  0.00  0.00    +0.065 C 
ATOM     12  C   UNL     1      -0.804  -6.220   1.496  0.00  0.00    +0.169 C 
ATOM     13  N   UNL     1      -0.695  -4.793   1.128  0.00  0.00    -0.264 N 
ATOM     14  C   UNL     1      -1.383  -4.103   2.046  0.00  0.00    +0.317 C 
ATOM     15  O   UNL     1      -1.594  -2.908   1.977  0.00  0.00    -0.252 OA
ATOM     16  N   UNL     1      -1.811  -4.882   3.048  0.00  0.00    -0.192 N 
ATOM     17  C   UNL     1      -1.502  -6.201   2.838  0.00  0.00    +0.248 C 
ATOM     18  O   UNL     1      -1.730  -7.149   3.559  0.00  0.00    -0.273 OA
ATOM     19  H   UNL     1       2.395  -3.893  -1.653  0.00  0.00    +0.160 HD
ENDROOT
BRANCH   1  24
ATOM     20  C   UNL     1      -0.018   1.503   0.012  0.00  0.00    +0.044 C 
ATOM     21  C   UNL     1       0.002  -0.004   0.003  0.00  0.00    -0.050 A 
ATOM     22  C   UNL     1      -0.535  -0.696  -1.066  0.00  0.00    +0.004 A 
ATOM     23  C   UNL     1      -0.516  -2.079  -1.074  0.00  0.00    +0.006 A 
ATOM     24  C   UNL     1       0.040  -2.768  -0.013  0.00  0.00    -0.025 A 
ATOM     25  C   UNL     1       0.578  -2.076   1.055  0.00  0.00    +0.006 A 
ATOM     26  C   UNL     1       0.563  -0.694   1.061  0.00  0.00    +0.004 A 
ENDBRANCH   1  24
BRANCH  16  27
ATOM     27  C   UNL     1      -2.497  -4.411   4.170  0.00  0.00    +0.058 A 
ATOM     28  C   UNL     1      -3.883  -4.342   4.162  0.00  0.00    +0.025 A 
ATOM     29  C   UNL     1      -4.559  -3.877   5.272  0.00  0.00    +0.002 A 
ATOM     30  C   UNL     1      -3.861  -3.476   6.400  0.00  0.00    +0.001 A 
ATOM     31  C   UNL     1      -2.485  -3.537   6.426  0.00  0.00    +0.015 A 
ATOM     32  C   UNL     1      -1.788  -4.011   5.312  0.00  0.00    +0.059 A 
BRANCH  32  33
ATOM     33  C   UNL     1      -0.315  -4.085   5.335  0.00  0.00    +0.246 C 
ATOM     34  O   UNL     1       0.289  -4.494   4.361  0.00  0.00    -0.270 OA
ATOM     35  N   UNL     1       0.363  -3.700   6.434  0.00  0.00    -0.311 N 
ATOM     36  H   UNL     1      -0.119  -3.374   7.211  0.00  0.00    +0.149 HD
BRANCH  35  37
ATOM     37  C   UNL     1       1.826  -3.774   6.457  0.00  0.00    +0.107 C 
BRANCH  37  38
ATOM     38  C   UNL     1       2.340  -3.282   7.811  0.00  0.00    -0.000 C 
ATOM     39  C   UNL     1       1.870  -4.234   8.912  0.00  0.00    +0.009 C 
ATOM     40  C   UNL     1       3.869  -3.240   7.792  0.00  0.00    +0.009 C 
ENDBRANCH  37  38
ENDBRANCH  35  37
ENDBRANCH  32  33
ENDBRANCH  16  27
TORSDOF 5
