REMARK  Name = ZINC35921364
REMARK  13 active torsions:
REMARK  status: ('A' for Active; 'I' for Inactive)
REMARK    1  A    between atoms: C_1  and  C_2
REMARK    2  A    between atoms: C_2  and  C_3
REMARK    3  A    between atoms: C_2  and  C_4
REMARK    4  A    between atoms: C_4  and  N_5
REMARK    5  A    between atoms: N_5  and  C_6
REMARK    6  A    between atoms: C_6  and  C_7
REMARK    7  A    between atoms: N_10  and  C_12
REMARK    8  A    between atoms: C_17  and  O_18
REMARK    9  A    between atoms: O_18  and  C_19
REMARK   10  A    between atoms: N_22  and  C_24
REMARK   11  A    between atoms: C_24  and  C_25
REMARK   12  A    between atoms: C_27  and  C_29
REMARK   13  A    between atoms: C_33  and  C_35
REMARK                            x       y       z     vdW  Elec       q    Type
REMARK                         _______ _______ _______ _____ _____    ______ ____
ROOT
ATOM      1  C   UNL     1      -2.757  -4.051   1.187  0.00  0.00    +0.082 A 
ATOM      2  C   UNL     1      -3.799  -3.647   2.015  0.00  0.00    -0.018 A 
ATOM      3  C   UNL     1      -4.623  -4.714   2.201  0.00  0.00    +0.045 A 
ATOM      4  N   UNL     1      -4.120  -5.749   1.511  0.00  0.00    -0.233 N 
ATOM      5  N   UNL     1      -2.947  -5.312   0.876  0.00  0.00    -0.169 NA
ATOM      6  C   UNL     1      -5.864  -4.651   3.056  0.00  0.00    +0.037 C 
ATOM      7  C   UNL     1      -5.772  -3.383   3.917  0.00  0.00    -0.072 C 
ATOM      8  N   UNL     1      -5.449  -2.229   3.068  0.00  0.00    +0.385 N 
ATOM      9  C   UNL     1      -4.043  -2.294   2.633  0.00  0.00    -0.039 C 
ATOM     10  H   UNL     1      -6.049  -2.232   2.257  0.00  0.00    -0.081 HD
ENDROOT
BRANCH   4  11
ATOM     11  C   UNL     1      -4.672  -7.037   1.434  0.00  0.00    +0.107 A 
ATOM     12  C   UNL     1      -6.022  -7.201   1.160  0.00  0.00    +0.031 A 
ATOM     13  C   UNL     1      -6.563  -8.470   1.085  0.00  0.00    +0.002 A 
ATOM     14  C   UNL     1      -5.761  -9.580   1.281  0.00  0.00    +0.004 A 
ATOM     15  C   UNL     1      -4.415  -9.425   1.554  0.00  0.00    +0.048 A 
ATOM     16  C   UNL     1      -3.864  -8.155   1.626  0.00  0.00    +0.145 A 
BRANCH  16  17
ATOM     17  O   UNL     1      -2.539  -8.002   1.888  0.00  0.00    -0.493 OA
ATOM     18  C   UNL     1      -1.772  -9.193   2.073  0.00  0.00    +0.277 C 
ENDBRANCH  16  17
ENDBRANCH   4  11
BRANCH   1  19
ATOM     19  C   UNL     1      -1.612  -3.189   0.721  0.00  0.00    +0.165 C 
BRANCH  19  20
ATOM     20  N   UNL     1      -1.949  -2.584  -0.570  0.00  0.00    -0.291 N 
ATOM     21  C   UNL     1      -1.752  -3.276  -1.710  0.00  0.00    +0.247 C 
ATOM     22  O   UNL     1      -1.198  -4.358  -1.676  0.00  0.00    -0.270 OA
BRANCH  21  23
ATOM     23  C   UNL     1      -2.208  -2.720  -3.001  0.00  0.00    +0.038 A 
ATOM     24  C   UNL     1      -1.920  -1.393  -3.333  0.00  0.00    +0.013 A 
ATOM     25  C   UNL     1      -2.346  -0.872  -4.538  0.00  0.00    +0.002 A 
ATOM     26  C   UNL     1      -3.059  -1.655  -5.423  0.00  0.00    +0.019 A 
ATOM     27  C   UNL     1      -3.354  -2.983  -5.104  0.00  0.00    +0.052 A 
ATOM     28  C   UNL     1      -2.922  -3.518  -3.892  0.00  0.00    +0.032 A 
BRANCH  27  29
ATOM     29  C   UNL     1      -4.094  -3.795  -6.024  0.00  0.00    +0.099 C 
ATOM     30  N   UNL     1      -4.681  -4.439  -6.753  0.00  0.00    -0.191 NA
ENDBRANCH  27  29
ENDBRANCH  21  23
BRANCH  20  31
ATOM     31  C   UNL     1      -2.500  -1.228  -0.622  0.00  0.00    +0.111 C 
BRANCH  31  33
ATOM     32  C   UNL     1      -1.916   1.199  -0.738  0.00  0.00    +0.009 C 
ATOM     33  C   UNL     1      -1.362  -0.211  -0.520  0.00  0.00    +0.000 C 
ATOM     34  C   UNL     1      -0.722  -0.298   0.867  0.00  0.00    +0.009 C 
ENDBRANCH  31  33
ENDBRANCH  20  31
ENDBRANCH  19  20
ENDBRANCH   1  19
BRANCH   8  35
ATOM     35  C   UNL     1      -5.667  -0.990   3.826  0.00  0.00    -0.051 C 
BRANCH  35  36
ATOM     36  C   UNL     1      -7.132  -0.850   4.150  0.00  0.00    -0.053 C 
ATOM     37  C   UNL     1      -7.516  -0.692   5.392  0.00  0.00    +0.002 C 
ENDBRANCH  35  36
ENDBRANCH   8  35
TORSDOF 10
