REMARK  Name = ZINC38577145
REMARK  8 active torsions:
REMARK  status: ('A' for Active; 'I' for Inactive)
REMARK    1  A    between atoms: C_1  and  C_2
REMARK    2  A    between atoms: C_6  and  N_8
REMARK    3  A    between atoms: C_9  and  C_11
REMARK    4  A    between atoms: C_13  and  N_22
REMARK    5  A    between atoms: C_23  and  C_25
REMARK    6  A    between atoms: C_28  and  C_31
REMARK    7  A    between atoms: C_34  and  C_38
REMARK    8  A    between atoms: C_36  and  O_37
REMARK                            x       y       z     vdW  Elec       q    Type
REMARK                         _______ _______ _______ _____ _____    ______ ____
ROOT
ATOM      1  C   UNL     1      -0.129  -4.898   3.686  0.00  0.00    +0.283 C 
ATOM      2  C   UNL     1      -1.478  -4.613   4.386  0.00  0.00    +0.156 C 
ATOM      3  C   UNL     1      -2.343  -5.749   3.875  0.00  0.00    +0.018 A 
ATOM      4  C   UNL     1      -3.706  -5.947   3.879  0.00  0.00    +0.009 A 
ATOM      5  C   UNL     1      -4.239  -7.099   3.326  0.00  0.00    +0.001 A 
ATOM      6  C   UNL     1      -3.398  -8.046   2.772  0.00  0.00    +0.004 A 
ATOM      7  C   UNL     1      -2.033  -7.851   2.770  0.00  0.00    +0.046 A 
ATOM      8  C   UNL     1      -1.488  -6.697   3.327  0.00  0.00    +0.127 A 
ATOM      9  O   UNL     1      -0.182  -6.315   3.448  0.00  0.00    -0.477 OA
ENDROOT
BRANCH   1  11
ATOM     10  N   UNL     1       0.052  -2.797   2.393  0.00  0.00    -0.282 N 
ATOM     11  C   UNL     1      -0.031  -4.143   2.385  0.00  0.00    +0.260 C 
ATOM     12  O   UNL     1      -0.028  -4.745   1.333  0.00  0.00    -0.271 OA
ATOM     13  H   UNL     1       0.127  -2.321   3.234  0.00  0.00    +0.155 HD
BRANCH  10  19
ATOM     14  C   UNL     1       1.523   1.062  -0.275  0.00  0.00    +0.044 C 
ATOM     15  C   UNL     1       0.734  -0.215  -0.134  0.00  0.00    -0.049 A 
ATOM     16  C   UNL     1      -0.013  -0.687  -1.199  0.00  0.00    +0.003 A 
ATOM     17  C   UNL     1      -0.737  -1.857  -1.073  0.00  0.00    +0.002 A 
ATOM     18  C   UNL     1      -0.718  -2.560   0.116  0.00  0.00    +0.023 A 
ATOM     19  C   UNL     1       0.031  -2.089   1.186  0.00  0.00    +0.034 A 
ATOM     20  C   UNL     1       0.762  -0.915   1.056  0.00  0.00    +0.026 A 
ENDBRANCH  10  19
ENDBRANCH   1  11
BRANCH   2  21
ATOM     21  N   UNL     1      -2.019  -3.316   3.972  0.00  0.00    -0.302 N 
ATOM     22  C   UNL     1      -2.867  -2.650   4.781  0.00  0.00    +0.244 C 
ATOM     23  O   UNL     1      -3.182  -3.125   5.851  0.00  0.00    -0.273 OA
ATOM     24  H   UNL     1      -1.766  -2.936   3.116  0.00  0.00    +0.150 HD
BRANCH  22  25
ATOM     25  C   UNL     1      -3.422  -1.315   4.356  0.00  0.00    +0.238 C 
ATOM     26  C   UNL     1      -2.432  -0.203   4.651  0.00  0.00    +0.041 C 
ATOM     27  C   UNL     1      -3.087   0.589   5.523  0.00  0.00    +0.095 C 
ATOM     28  N   UNL     1      -4.326   0.091   5.777  0.00  0.00    -0.153 NA
ATOM     29  N   UNL     1      -4.592  -0.955   5.173  0.00  0.00    -0.170 NA
BRANCH  27  30
ATOM     30  C   UNL     1      -2.534   1.828   6.121  0.00  0.00    +0.043 A 
ATOM     31  C   UNL     1      -3.296   2.572   7.019  0.00  0.00    +0.014 A 
ATOM     32  C   UNL     1      -2.777   3.725   7.572  0.00  0.00    +0.004 A 
ATOM     33  C   UNL     1      -1.501   4.145   7.239  0.00  0.00    -0.047 A 
ATOM     34  C   UNL     1      -0.737   3.415   6.349  0.00  0.00    +0.049 A 
ATOM     35  C   UNL     1      -1.243   2.252   5.790  0.00  0.00    +0.126 A 
ATOM     36  C   UNL     1      -0.943   5.406   7.848  0.00  0.00    +0.044 C 
BRANCH  35  37
ATOM     37  O   UNL     1      -0.491   1.530   4.919  0.00  0.00    -0.506 OA
ATOM     38  H   UNL     1      -0.600   1.791   3.994  0.00  0.00    +0.292 HD
ENDBRANCH  35  37
ENDBRANCH  27  30
ENDBRANCH  22  25
ENDBRANCH   2  21
TORSDOF 6
