REMARK  Name = ZINC04133254
REMARK  10 active torsions:
REMARK  status: ('A' for Active; 'I' for Inactive)
REMARK    1  A    between atoms: C_1  and  C_2
REMARK    2  A    between atoms: C_2  and  N_3
REMARK    3  A    between atoms: N_3  and  C_4
REMARK    4  A    between atoms: N_3  and  C_6
REMARK    5  A    between atoms: C_4  and  C_5
REMARK    6  A    between atoms: C_9  and  C_12
REMARK    7  A    between atoms: C_15  and  C_24
REMARK    8  A    between atoms: C_18  and  C_20
REMARK    9  A    between atoms: C_20  and  C_21
REMARK   10  A    between atoms: C_21  and  C_22
REMARK                            x       y       z     vdW  Elec       q    Type
REMARK                         _______ _______ _______ _____ _____    ______ ____
ROOT
ATOM      1  C   UNL     1      -2.554   3.866   0.047  0.00  0.00    +0.137 C 
ATOM      2  C   UNL     1      -3.163   3.919  -1.368  0.00  0.00    +0.087 C 
ATOM      3  C   UNL     1      -4.473   3.176  -1.228  0.00  0.00    +0.069 C 
ATOM      4  N   UNL     1      -4.612   2.774  -0.012  0.00  0.00    -0.181 NA
ATOM      5  N   UNL     1      -3.553   3.118   0.826  0.00  0.00    -0.185 N 
ATOM      6  C   UNL     1      -3.459   2.815   2.136  0.00  0.00    +0.236 C 
ATOM      7  O   UNL     1      -2.488   3.167   2.772  0.00  0.00    -0.274 OA
ENDROOT
BRANCH   3   8
ATOM      8  C   UNL     1      -5.442   2.946  -2.316  0.00  0.00    -0.002 A 
ATOM      9  C   UNL     1      -5.185   3.436  -3.598  0.00  0.00    +0.011 A 
ATOM     10  C   UNL     1      -6.092   3.213  -4.613  0.00  0.00    +0.016 A 
ATOM     11  C   UNL     1      -7.261   2.515  -4.359  0.00  0.00    +0.018 A 
ATOM     12  C   UNL     1      -7.524   2.032  -3.088  0.00  0.00    +0.016 A 
ATOM     13  C   UNL     1      -6.623   2.243  -2.067  0.00  0.00    +0.011 A 
ATOM     14 BR   UNL     1      -8.504   2.222  -5.754  0.00  0.00    -0.050 Br
ENDBRANCH   3   8
BRANCH   1  18
ATOM     15  C   UNL     1       1.180   1.788   0.000  0.00  0.00    +0.030 A 
ATOM     16  C   UNL     1      -0.013   1.076   0.008  0.00  0.00    +0.023 A 
ATOM     17  C   UNL     1      -1.217   1.751   0.017  0.00  0.00    +0.007 A 
ATOM     18  C   UNL     1      -1.237   3.134   0.030  0.00  0.00    -0.025 A 
ATOM     19  C   UNL     1      -0.051   3.845   0.022  0.00  0.00    +0.007 A 
ATOM     20  C   UNL     1       1.157   3.176   0.008  0.00  0.00    +0.023 A 
BRANCH  15  21
ATOM     21  N   UNL     1       2.401   1.108  -0.015  0.00  0.00    -0.330 N 
BRANCH  21  23
ATOM     22  C   UNL     1       4.109   2.114   1.417  0.00  0.00    +0.024 C 
ATOM     23  C   UNL     1       3.658   1.860  -0.023  0.00  0.00    +0.102 C 
ENDBRANCH  21  23
BRANCH  21  24
ATOM     24  C   UNL     1       2.423  -0.357  -0.023  0.00  0.00    +0.102 C 
ATOM     25  C   UNL     1       2.417  -0.859  -1.468  0.00  0.00    +0.024 C 
ENDBRANCH  21  24
ENDBRANCH  15  21
ENDBRANCH   1  18
BRANCH   6  26
ATOM     26  C   UNL     1      -4.561   2.040   2.811  0.00  0.00    +0.109 C 
BRANCH  26  27
ATOM     27  C   UNL     1      -4.210   1.831   4.285  0.00  0.00    +0.134 C 
BRANCH  27  28
ATOM     28  C   UNL     1      -5.312   1.056   4.960  0.00  0.00    +0.356 C 
ATOM     29  O   UNL     1      -6.279   0.706   4.326  0.00  0.00    -0.246 OA
ATOM     30  O   UNL     1      -5.219   0.754   6.264  0.00  0.00    -0.246 OA
ENDBRANCH  27  28
ENDBRANCH  26  27
ENDBRANCH   6  26
TORSDOF 8
