REMARK  Name = ZINC35453398
REMARK  4 active torsions:
REMARK  status: ('A' for Active; 'I' for Inactive)
REMARK    1  A    between atoms: C_1  and  C_2
REMARK    2  A    between atoms: C_7  and  O_8
REMARK    3  A    between atoms: O_8  and  C_9
REMARK    4  A    between atoms: C_14  and  N_15
REMARK                            x       y       z     vdW  Elec       q    Type
REMARK                         _______ _______ _______ _____ _____    ______ ____
ROOT
ATOM      1  C   UNL     1       0.053  -0.847   3.470  0.00  0.00    +0.151 A 
ATOM      2  C   UNL     1       0.136  -2.221   3.306  0.00  0.00    +0.075 A 
ATOM      3  C   UNL     1       0.165  -3.048   4.417  0.00  0.00    +0.079 A 
ATOM      4  C   UNL     1       0.111  -2.501   5.698  0.00  0.00    +0.144 A 
ATOM      5  C   UNL     1       0.029  -1.130   5.862  0.00  0.00    +0.074 A 
ATOM      6  C   UNL     1       0.006  -0.300   4.750  0.00  0.00    +0.071 A 
ATOM      7  O   UNL     1       0.139  -3.327   6.779  0.00  0.00    -0.481 OA
ATOM      8  C   UNL     1      -0.480  -4.607   6.627  0.00  0.00    +0.325 C 
ATOM      9  C   UNL     1      -0.039  -5.231   5.327  0.00  0.00    +0.255 C 
ATOM     10  O   UNL     1       0.056  -6.437   5.232  0.00  0.00    -0.272 OA
ATOM     11  N   UNL     1       0.250  -4.442   4.270  0.00  0.00    -0.280 N 
ATOM     12  H   UNL     1       0.512  -4.833   3.421  0.00  0.00    +0.155 HD
ENDROOT
BRANCH   6  13
ATOM     13  N   UNL     1      -0.071   1.089   4.915  0.00  0.00    -0.355 N 
ATOM     14  H   UNL     1      -0.091   1.669   4.137  0.00  0.00    +0.142 HD
ATOM     15  H   UNL     1      -0.104   1.471   5.806  0.00  0.00    +0.142 HD
ENDBRANCH   6  13
BRANCH   1  16
ATOM     16  O   UNL     1       0.025  -0.033   2.381  0.00  0.00    -0.454 OA
BRANCH  16  23
ATOM     17  C   UNL     1      -0.087   1.824   0.255  0.00  0.00    +0.047 C 
ATOM     18  C   UNL     1       1.208   1.405   0.901  0.00  0.00    -0.007 A 
ATOM     19  C   UNL     1       2.405   1.939   0.461  0.00  0.00    +0.027 A 
ATOM     20  C   UNL     1       3.594   1.555   1.055  0.00  0.00    +0.041 A 
ATOM     21  C   UNL     1       3.589   0.637   2.090  0.00  0.00    +0.023 A 
ATOM     22  C   UNL     1       2.395   0.101   2.533  0.00  0.00    +0.048 A 
ATOM     23  C   UNL     1       1.200   0.489   1.943  0.00  0.00    +0.131 A 
ATOM     24 CL   UNL     1       5.096   2.227   0.500  0.00  0.00    -0.084 Cl
ENDBRANCH  16  23
ENDBRANCH   1  16
TORSDOF 3
