REMARK  Name = ZINC40568652
REMARK  13 active torsions:
REMARK  status: ('A' for Active; 'I' for Inactive)
REMARK    1  A    between atoms: C_1  and  C_2
REMARK    2  A    between atoms: C_2  and  N_3
REMARK    3  A    between atoms: C_4  and  C_34
REMARK    4  A    between atoms: C_7  and  C_10
REMARK    5  A    between atoms: C_10  and  C_12
REMARK    6  A    between atoms: C_10  and  C_22
REMARK    7  A    between atoms: C_15  and  O_21
REMARK    8  A    between atoms: C_16  and  O_18
REMARK    9  A    between atoms: O_18  and  C_19
REMARK   10  A    between atoms: C_19  and  C_20
REMARK   11  A    between atoms: C_23  and  C_32
REMARK   12  A    between atoms: N_24  and  C_30
REMARK   13  A    between atoms: C_30  and  C_31
REMARK                            x       y       z     vdW  Elec       q    Type
REMARK                         _______ _______ _______ _____ _____    ______ ____
ROOT
ATOM      1  C   UNL     1      -4.160  -0.480  -3.149  0.00  0.00    +0.093 C 
ENDROOT
BRANCH   1   6
ATOM      2  N   UNL     1      -6.460   0.052  -0.224  0.00  0.00    -0.312 N 
ATOM      3  C   UNL     1      -7.182  -1.100  -0.214  0.00  0.00    +0.023 A 
ATOM      4  C   UNL     1      -6.957  -2.067  -1.129  0.00  0.00    +0.072 A 
ATOM      5  C   UNL     1      -5.962  -1.884  -2.111  0.00  0.00    +0.190 A 
ATOM      6  C   UNL     1      -5.232  -0.710  -2.115  0.00  0.00    +0.075 A 
ATOM      7  C   UNL     1      -5.505   0.265  -1.148  0.00  0.00    +0.259 A 
ATOM      8  O   UNL     1      -4.873   1.310  -1.141  0.00  0.00    -0.267 OA
ATOM      9  O   UNL     1      -5.723  -2.845  -3.035  0.00  0.00    -0.287 OA
ATOM     10  C   UNL     1      -8.247  -1.301   0.833  0.00  0.00    +0.064 C 
BRANCH   2  12
ATOM     11  C   UNL     1      -5.851   0.834   2.012  0.00  0.00    +0.027 C 
ATOM     12  C   UNL     1      -6.730   1.080   0.784  0.00  0.00    +0.122 C 
ENDBRANCH   2  12
ENDBRANCH   1   6
BRANCH   1  13
ATOM     13  C   UNL     1      -3.027  -1.448  -2.921  0.00  0.00    +0.031 A 
ATOM     14  C   UNL     1      -2.467  -2.093  -3.967  0.00  0.00    +0.027 A 
ATOM     15  N   UNL     1      -1.445  -2.968  -3.781  0.00  0.00    -0.312 N 
ATOM     16  C   UNL     1      -0.961  -3.219  -2.550  0.00  0.00    +0.255 A 
ATOM     17  O   UNL     1      -0.041  -4.009  -2.406  0.00  0.00    -0.268 OA
ATOM     18  C   UNL     1      -1.509  -2.574  -1.435  0.00  0.00    +0.121 A 
ATOM     19  C   UNL     1      -2.546  -1.679  -1.617  0.00  0.00    +0.190 A 
ATOM     20  O   UNL     1      -3.094  -1.036  -0.558  0.00  0.00    -0.287 OA
ATOM     21  C   UNL     1      -2.983  -1.838  -5.360  0.00  0.00    +0.064 C 
BRANCH  15  22
ATOM     22  C   UNL     1      -0.860  -3.651  -4.938  0.00  0.00    +0.122 C 
ATOM     23  C   UNL     1       0.191  -2.747  -5.585  0.00  0.00    +0.027 C 
ENDBRANCH  15  22
ENDBRANCH   1  13
BRANCH   1  24
ATOM     24  C   UNL     1      -3.645   0.931  -3.034  0.00  0.00    -0.031 A 
ATOM     25  C   UNL     1      -2.562   1.206  -2.220  0.00  0.00    +0.008 A 
ATOM     26  C   UNL     1      -2.087   2.500  -2.111  0.00  0.00    +0.049 A 
ATOM     27  C   UNL     1      -2.695   3.524  -2.820  0.00  0.00    +0.158 A 
ATOM     28  C   UNL     1      -3.785   3.247  -3.639  0.00  0.00    +0.162 A 
ATOM     29  C   UNL     1      -4.254   1.947  -3.748  0.00  0.00    +0.054 A 
BRANCH  27  30
ATOM     30  O   UNL     1      -2.228   4.797  -2.714  0.00  0.00    -0.503 OA
ATOM     31  H   UNL     1      -1.546   5.021  -3.361  0.00  0.00    +0.292 HD
ENDBRANCH  27  30
BRANCH  28  32
ATOM     32  O   UNL     1      -4.385   4.248  -4.337  0.00  0.00    -0.489 OA
BRANCH  32  33
ATOM     33  C   UNL     1      -5.498   3.890  -5.158  0.00  0.00    +0.226 C 
ATOM     34  C   UNL     1      -6.038   5.138  -5.859  0.00  0.00    +0.048 C 
ENDBRANCH  32  33
ENDBRANCH  28  32
ENDBRANCH   1  24
TORSDOF 8
