REMARK  Name = ZINC39853440
REMARK  9 active torsions:
REMARK  status: ('A' for Active; 'I' for Inactive)
REMARK    1  A    between atoms: C_1  and  C_2
REMARK    2  A    between atoms: C_2  and  O_3
REMARK    3  A    between atoms: O_3  and  C_4
REMARK    4  A    between atoms: C_4  and  C_6
REMARK    5  A    between atoms: N_9  and  C_12
REMARK    6  A    between atoms: C_12  and  C_14
REMARK    7  A    between atoms: C_12  and  C_21
REMARK    8  A    between atoms: C_25  and  N_26
REMARK    9  A    between atoms: C_27  and  C_29
REMARK                            x       y       z     vdW  Elec       q    Type
REMARK                         _______ _______ _______ _____ _____    ______ ____
ROOT
ATOM      1  C   UNL     1       1.960  -4.674  -5.649  0.00  0.00    -0.004 C 
ENDROOT
BRANCH   1   2
ATOM      2  C   UNL     1       2.148  -6.133  -5.978  0.00  0.00    -0.025 A 
ATOM      3  C   UNL     1       3.402  -6.606  -6.366  0.00  0.00    -0.033 A 
ATOM      4  C   UNL     1       3.492  -7.933  -6.647  0.00  0.00    -0.005 A 
ATOM      5  S   UNL     1       1.848  -8.539  -6.377  0.00  0.00    -0.078 S 
ATOM      6  C   UNL     1       1.098  -6.991  -5.892  0.00  0.00    +0.074 A 
ATOM      7  C   UNL     1       4.704  -8.692  -7.082  0.00  0.00    +0.043 C 
ATOM      8  C   UNL     1       5.773  -7.681  -7.526  0.00  0.00    +0.005 C 
ATOM      9  C   UNL     1       5.885  -6.586  -6.461  0.00  0.00    +0.005 C 
ATOM     10  C   UNL     1       4.632  -5.709  -6.479  0.00  0.00    +0.036 C 
BRANCH   6  11
ATOM     11  N   UNL     1      -0.225  -6.731  -5.523  0.00  0.00    -0.280 N 
ATOM     12  C   UNL     1      -1.093  -7.750  -5.367  0.00  0.00    +0.214 C 
ATOM     13  O   UNL     1      -0.727  -8.892  -5.546  0.00  0.00    -0.276 OA
ATOM     14  C   UNL     1      -2.519  -7.470  -4.968  0.00  0.00    +0.109 C 
ATOM     15  H   UNL     1      -0.517  -5.818  -5.379  0.00  0.00    +0.155 HD
ENDBRANCH   6  11
ENDBRANCH   1   2
BRANCH   1  19
ATOM     16  C   UNL     1       1.074  -3.781  -1.578  0.00  0.00    +0.094 C 
ATOM     17  C   UNL     1       0.382  -2.988  -2.690  0.00  0.00    -0.004 C 
ATOM     18  C   UNL     1       1.184  -3.132  -3.986  0.00  0.00    -0.077 C 
ATOM     19  N   UNL     1       1.257  -4.548  -4.365  0.00  0.00    +0.387 N 
ATOM     20  C   UNL     1       1.982  -5.303  -3.336  0.00  0.00    -0.077 C 
ATOM     21  C   UNL     1       1.212  -5.242  -2.016  0.00  0.00    -0.004 C 
ATOM     22  H   UNL     1       0.323  -4.920  -4.457  0.00  0.00    -0.080 HD
BRANCH  16  23
ATOM     23  C   UNL     1       0.249  -3.708  -0.319  0.00  0.00    +0.310 C 
ATOM     24  O   UNL     1      -0.185  -4.720   0.179  0.00  0.00    -0.251 OA
BRANCH  23  25
ATOM     25  O   UNL     1      -0.003  -2.519   0.250  0.00  0.00    -0.465 OA
BRANCH  25  27
ATOM     26  C   UNL     1      -0.973  -1.089   1.940  0.00  0.00    +0.048 C 
ATOM     27  C   UNL     1      -0.792  -2.524   1.442  0.00  0.00    +0.229 C 
ENDBRANCH  25  27
ENDBRANCH  23  25
ENDBRANCH  16  23
ENDBRANCH   1  19
BRANCH   1  28
ATOM     28  C   UNL     1       1.146  -4.016  -6.734  0.00  0.00    -0.057 A 
ATOM     29  C   UNL     1      -0.218  -3.858  -6.575  0.00  0.00    +0.004 A 
ATOM     30  C   UNL     1      -0.965  -3.254  -7.569  0.00  0.00    +0.020 A 
ATOM     31  C   UNL     1      -0.346  -2.808  -8.723  0.00  0.00    +0.041 A 
ATOM     32  C   UNL     1       1.019  -2.966  -8.882  0.00  0.00    +0.020 A 
ATOM     33  C   UNL     1       1.765  -3.564  -7.884  0.00  0.00    +0.004 A 
ATOM     34 CL   UNL     1      -1.284  -2.050  -9.973  0.00  0.00    -0.084 Cl
ENDBRANCH   1  28
TORSDOF 7
