REMARK  Name = ZINC40317588
REMARK  17 active torsions:
REMARK  status: ('A' for Active; 'I' for Inactive)
REMARK    1  A    between atoms: C_1  and  C_2
REMARK    2  A    between atoms: C_4  and  C_36
REMARK    3  A    between atoms: C_6  and  O_8
REMARK    4  A    between atoms: O_8  and  C_9
REMARK    5  A    between atoms: C_9  and  C_10
REMARK    6  A    between atoms: C_10  and  C_12
REMARK    7  A    between atoms: C_10  and  O_35
REMARK    8  A    between atoms: C_12  and  N_13
REMARK    9  A    between atoms: N_13  and  C_14
REMARK   10  A    between atoms: N_13  and  C_27
REMARK   11  A    between atoms: C_14  and  C_15
REMARK   12  A    between atoms: C_17  and  O_25
REMARK   13  A    between atoms: C_18  and  O_23
REMARK   14  A    between atoms: C_19  and  O_21
REMARK   15  A    between atoms: O_21  and  C_22
REMARK   16  A    between atoms: O_23  and  C_24
REMARK   17  A    between atoms: O_25  and  C_26
REMARK                            x       y       z     vdW  Elec       q    Type
REMARK                         _______ _______ _______ _____ _____    ______ ____
ROOT
ATOM      1  N   UNL     1       0.726  -2.534   7.390  0.00  0.00    +0.387 N 
ATOM      2  H   UNL     1       1.718  -2.695   7.481  0.00  0.00    -0.081 HD
ENDROOT
BRANCH   1   3
ATOM      3  C   UNL     1       0.188  -3.385   6.320  0.00  0.00    -0.045 C 
ATOM      4  C   UNL     1      -0.147  -4.777   6.881  0.00  0.00    +0.009 C 
ATOM      5  C   UNL     1      -0.406  -5.766   5.720  0.00  0.00    +0.164 C 
ATOM      6  S   UNL     1       0.618  -5.069   4.360  0.00  0.00    -0.033 S 
ATOM      7  O   UNL     1      -0.235  -4.680   3.292  0.00  0.00    -0.174 OA
ATOM      8  O   UNL     1       1.704  -5.948   4.103  0.00  0.00    -0.174 OA
ATOM      9  C   UNL     1       1.254  -3.558   5.201  0.00  0.00    +0.151 C 
ENDBRANCH   1   3
BRANCH   1  10
ATOM     10  C   UNL     1       0.486  -1.123   7.061  0.00  0.00    -0.043 C 
BRANCH  10  11
ATOM     11  C   UNL     1       1.589  -0.623   6.126  0.00  0.00    +0.135 C 
BRANCH  11  12
ATOM     12  O   UNL     1       2.865  -0.969   6.667  0.00  0.00    -0.390 OA
ATOM     13  H   UNL     1       3.038  -0.591   7.540  0.00  0.00    +0.210 HD
ENDBRANCH  11  12
BRANCH  11  14
ATOM     14  C   UNL     1       1.489   0.897   5.987  0.00  0.00    +0.258 C 
BRANCH  14  15
ATOM     15  O   UNL     1       2.443   1.351   5.024  0.00  0.00    -0.489 OA
BRANCH  15  21
ATOM     16  C   UNL     1       0.738   5.833   5.933  0.00  0.00    +0.044 C 
ATOM     17  C   UNL     1       1.671   4.902   5.203  0.00  0.00    -0.047 A 
ATOM     18  C   UNL     1       2.572   5.407   4.283  0.00  0.00    +0.007 A 
ATOM     19  C   UNL     1       3.429   4.556   3.612  0.00  0.00    -0.047 A 
ATOM     20  C   UNL     1       3.388   3.197   3.858  0.00  0.00    +0.049 A 
ATOM     21  C   UNL     1       2.486   2.688   4.780  0.00  0.00    +0.121 A 
ATOM     22  C   UNL     1       1.630   3.545   5.457  0.00  0.00    +0.049 A 
ATOM     23  C   UNL     1       4.409   5.110   2.610  0.00  0.00    +0.044 C 
ENDBRANCH  15  21
ENDBRANCH  14  15
ENDBRANCH  11  14
ENDBRANCH  10  11
ENDBRANCH   1  10
BRANCH   1  24
ATOM     24  C   UNL     1       0.059  -2.861   8.658  0.00  0.00    -0.042 C 
BRANCH  24  25
ATOM     25  C   UNL     1       0.627  -4.144   9.208  0.00  0.00    -0.057 A 
ATOM     26  C   UNL     1      -0.221  -5.166   9.589  0.00  0.00    +0.051 A 
ATOM     27  C   UNL     1       0.298  -6.348  10.097  0.00  0.00    +0.165 A 
ATOM     28  C   UNL     1       1.673  -6.504  10.221  0.00  0.00    +0.204 A 
ATOM     29  C   UNL     1       2.523  -5.474   9.835  0.00  0.00    +0.165 A 
ATOM     30  C   UNL     1       1.996  -4.297   9.324  0.00  0.00    +0.051 A 
BRANCH  29  31
ATOM     31  O   UNL     1       3.870  -5.621   9.955  0.00  0.00    -0.491 OA
ATOM     32  C   UNL     1       4.682  -4.521   9.539  0.00  0.00    +0.277 C 
ENDBRANCH  29  31
BRANCH  28  33
ATOM     33  O   UNL     1       2.187  -7.662  10.718  0.00  0.00    -0.488 OA
ATOM     34  C   UNL     1       2.483  -8.697   9.779  0.00  0.00    +0.277 C 
ENDBRANCH  28  33
BRANCH  27  35
ATOM     35  O   UNL     1      -0.538  -7.353  10.473  0.00  0.00    -0.491 OA
ATOM     36  C   UNL     1      -1.940  -7.123  10.318  0.00  0.00    +0.277 C 
ENDBRANCH  27  35
ENDBRANCH  24  25
ENDBRANCH   1  24
TORSDOF 12
