REMARK  Name = ZINC13095948
REMARK  11 active torsions:
REMARK  status: ('A' for Active; 'I' for Inactive)
REMARK    1  A    between atoms: C_1  and  C_2
REMARK    2  A    between atoms: C_5  and  N_8
REMARK    3  A    between atoms: N_8  and  C_9
REMARK    4  A    between atoms: N_8  and  S_10
REMARK    5  A    between atoms: S_10  and  C_13
REMARK    6  A    between atoms: C_17  and  C_19
REMARK    7  A    between atoms: N_21  and  C_22
REMARK    8  A    between atoms: C_22  and  C_24
REMARK    9  A    between atoms: C_22  and  C_35
REMARK   10  A    between atoms: C_35  and  C_36
REMARK   11  A    between atoms: C_35  and  C_37
REMARK                            x       y       z     vdW  Elec       q    Type
REMARK                         _______ _______ _______ _____ _____    ______ ____
ROOT
ATOM      1  C   UNL     1       0.969   4.554   3.626  0.00  0.00    +0.245 C 
ATOM      2  O   UNL     1       0.430   3.856   4.463  0.00  0.00    -0.270 OA
ATOM      3  N   UNL     1       1.682   5.633   4.007  0.00  0.00    -0.304 N 
ATOM      4  H   UNL     1       2.112   6.190   3.339  0.00  0.00    +0.150 HD
ENDROOT
BRANCH   1   9
ATOM      5  C   UNL     1      -0.009   2.797   0.454  0.00  0.00    +0.109 A 
ATOM      6  C   UNL     1       0.607   3.594  -0.495  0.00  0.00    +0.029 A 
ATOM      7  C   UNL     1       1.340   4.701  -0.108  0.00  0.00    +0.003 A 
ATOM      8  C   UNL     1       1.461   5.019   1.229  0.00  0.00    +0.013 A 
ATOM      9  C   UNL     1       0.843   4.220   2.192  0.00  0.00    +0.039 A 
ATOM     10  C   UNL     1       0.101   3.107   1.794  0.00  0.00    +0.041 A 
BRANCH   5  11
ATOM     11  S   UNL     1      -0.941   1.390  -0.050  0.00  0.00    +0.074 S 
ATOM     12  O   UNL     1      -1.482   1.697  -1.328  0.00  0.00    -0.150 OA
ATOM     13  O   UNL     1      -1.758   1.027   1.055  0.00  0.00    -0.150 OA
BRANCH  11  14
ATOM     14  N   UNL     1       0.131   0.148  -0.275  0.00  0.00    -0.206 N 
ATOM     15  C   UNL     1       0.750  -0.056  -1.587  0.00  0.00    +0.157 C 
BRANCH  14  20
ATOM     16  C   UNL     1       1.402  -3.316   4.031  0.00  0.00    +0.044 C 
ATOM     17  C   UNL     1       1.064  -2.396   2.886  0.00  0.00    -0.050 A 
ATOM     18  C   UNL     1       0.506  -2.909   1.730  0.00  0.00    +0.005 A 
ATOM     19  C   UNL     1       0.195  -2.068   0.680  0.00  0.00    +0.025 A 
ATOM     20  C   UNL     1       0.443  -0.706   0.786  0.00  0.00    +0.051 A 
ATOM     21  C   UNL     1       1.010  -0.194   1.947  0.00  0.00    +0.025 A 
ATOM     22  C   UNL     1       1.313  -1.040   2.995  0.00  0.00    +0.005 A 
ENDBRANCH  14  20
ENDBRANCH  11  14
ENDBRANCH   5  11
ENDBRANCH   1   9
BRANCH   3  23
ATOM     23  C   UNL     1       1.806   5.964   5.428  0.00  0.00    +0.106 C 
BRANCH  23  24
ATOM     24  C   UNL     1       3.066   6.761   5.650  0.00  0.00    -0.023 A 
ATOM     25  C   UNL     1       3.442   7.725   4.733  0.00  0.00    +0.009 A 
ATOM     26  C   UNL     1       4.594   8.464   4.933  0.00  0.00    +0.050 A 
ATOM     27  C   UNL     1       5.377   8.226   6.050  0.00  0.00    +0.162 A 
ATOM     28  C   UNL     1       5.003   7.255   6.967  0.00  0.00    +0.162 A 
ATOM     29  C   UNL     1       3.846   6.521   6.767  0.00  0.00    +0.055 A 
ATOM     30  O   UNL     1       5.781   7.029   8.066  0.00  0.00    -0.488 OA
ATOM     31  C   UNL     1       7.062   6.448   7.815  0.00  0.00    +0.232 C 
ATOM     32  C   UNL     1       8.079   7.519   7.453  0.00  0.00    +0.082 C 
ATOM     33  C   UNL     1       7.744   8.217   6.144  0.00  0.00    +0.232 C 
ATOM     34  O   UNL     1       6.519   8.945   6.256  0.00  0.00    -0.488 OA
ENDBRANCH  23  24
BRANCH  23  35
ATOM     35  C   UNL     1       0.596   6.792   5.867  0.00  0.00    +0.008 C 
ATOM     36  C   UNL     1       0.463   8.019   4.964  0.00  0.00    +0.009 C 
ATOM     37  C   UNL     1      -0.670   5.940   5.760  0.00  0.00    +0.009 C 
ENDBRANCH  23  35
ENDBRANCH   3  23
TORSDOF 7
