REMARK  Name = ZINC09545908
REMARK  11 active torsions:
REMARK  status: ('A' for Active; 'I' for Inactive)
REMARK    1  A    between atoms: C_1  and  C_2
REMARK    2  A    between atoms: C_2  and  C_4
REMARK    3  A    between atoms: C_2  and  N_14
REMARK    4  A    between atoms: C_15  and  C_17
REMARK    5  A    between atoms: C_17  and  O_18
REMARK    6  A    between atoms: O_18  and  C_19
REMARK    7  A    between atoms: C_19  and  C_21
REMARK    8  A    between atoms: C_24  and  S_30
REMARK    9  A    between atoms: C_25  and  N_27
REMARK   10  A    between atoms: S_30  and  C_31
REMARK   11  A    between atoms: N_35  and  C_36
REMARK                            x       y       z     vdW  Elec       q    Type
REMARK                         _______ _______ _______ _____ _____    ______ ____
ROOT
ATOM      1  O   UNL     1       1.173   4.322  -0.230  0.00  0.00    -0.452 OA
ENDROOT
BRANCH   1   2
ATOM      2  C   UNL     1       0.148   3.449  -0.177  0.00  0.00    +0.340 C 
ATOM      3  O   UNL     1      -0.997   3.856  -0.161  0.00  0.00    -0.245 OA
BRANCH   2   4
ATOM      4  C   UNL     1       0.415   2.000  -0.139  0.00  0.00    +0.061 A 
ATOM      5  C   UNL     1       1.733   1.530  -0.159  0.00  0.00    +0.016 A 
ATOM      6  C   UNL     1       1.977   0.186  -0.124  0.00  0.00    +0.018 A 
ATOM      7  C   UNL     1       0.916  -0.715  -0.069  0.00  0.00    +0.046 A 
ATOM      8  C   UNL     1      -0.396  -0.250  -0.049  0.00  0.00    +0.141 A 
ATOM      9  C   UNL     1      -0.647   1.092  -0.084  0.00  0.00    +0.048 A 
BRANCH   8  10
ATOM     10  N   UNL     1      -1.520  -1.211   0.010  0.00  0.00    +0.058 N 
ATOM     11  O   UNL     1      -2.669  -0.805   0.027  0.00  0.00    -0.126 OA
ATOM     12  O   UNL     1      -1.297  -2.408   0.041  0.00  0.00    -0.126 OA
ENDBRANCH   8  10
BRANCH   7  13
ATOM     13  S   UNL     1       1.236  -2.447  -0.024  0.00  0.00    -0.048 S 
BRANCH  13  14
ATOM     14  C   UNL     1       0.955  -2.766   1.686  0.00  0.00    +0.196 A 
ATOM     15  N   UNL     1       0.705  -1.874   2.615  0.00  0.00    -0.122 NA
ATOM     16  N   UNL     1       0.550  -2.458   3.750  0.00  0.00    -0.137 NA
ATOM     17  C   UNL     1       0.700  -3.745   3.615  0.00  0.00    +0.225 A 
ATOM     18  N   UNL     1       0.964  -3.988   2.296  0.00  0.00    -0.311 N 
ATOM     19  C   UNL     1       1.205  -5.289   1.667  0.00  0.00    +0.152 C 
ENDBRANCH  13  14
ENDBRANCH   7  13
ENDBRANCH   2   4
ENDBRANCH   1   2
BRANCH   1  20
ATOM     20  C   UNL     1       0.835   5.734  -0.266  0.00  0.00    +0.328 C 
BRANCH  20  22
ATOM     21  N   UNL     1       2.031   7.897  -0.363  0.00  0.00    -0.309 N 
ATOM     22  C   UNL     1       2.100   6.551  -0.323  0.00  0.00    +0.251 C 
ATOM     23  O   UNL     1       3.179   5.999  -0.333  0.00  0.00    -0.272 OA
ATOM     24  H   UNL     1       1.168   8.339  -0.355  0.00  0.00    +0.149 HD
BRANCH  21  26
ATOM     25  C   UNL     1       3.720   8.818  -1.873  0.00  0.00    +0.028 C 
ATOM     26  C   UNL     1       3.260   8.692  -0.419  0.00  0.00    +0.076 C 
BRANCH  26  27
ATOM     27  C   UNL     1       2.993  10.085   0.154  0.00  0.00    -0.010 C 
ATOM     28  C   UNL     1       2.534   9.958   1.608  0.00  0.00    +0.012 C 
ATOM     29  C   UNL     1       2.267  11.351   2.182  0.00  0.00    -0.010 C 
ATOM     30  C   UNL     1       3.550  12.182   2.123  0.00  0.00    +0.007 C 
ATOM     31  C   UNL     1       4.010  12.308   0.670  0.00  0.00    -0.010 C 
ATOM     32  C   UNL     1       4.277  10.915   0.096  0.00  0.00    +0.012 C 
ATOM     33  C   UNL     1       2.919  12.998  -0.152  0.00  0.00    +0.007 C 
ATOM     34  C   UNL     1       1.635  12.167  -0.094  0.00  0.00    -0.010 C 
ATOM     35  C   UNL     1       1.176  12.041   1.360  0.00  0.00    +0.007 C 
ATOM     36  C   UNL     1       1.902  10.774  -0.667  0.00  0.00    +0.012 C 
ENDBRANCH  26  27
ENDBRANCH  21  26
ENDBRANCH  20  22
ENDBRANCH   1  20
TORSDOF 9
