REMARK  Name = ZINC39575910
REMARK  6 active torsions:
REMARK  status: ('A' for Active; 'I' for Inactive)
REMARK    1  A    between atoms: C_1  and  O_2
REMARK    2  A    between atoms: O_2  and  C_3
REMARK    3  A    between atoms: C_6  and  C_9
REMARK    4  A    between atoms: C_13  and  S_27
REMARK    5  A    between atoms: N_15  and  N_16
REMARK    6  A    between atoms: C_17  and  C_18
REMARK                            x       y       z     vdW  Elec       q    Type
REMARK                         _______ _______ _______ _____ _____    ______ ____
ROOT
ATOM      1  C   UNL     1       2.086  -2.652  -4.902  0.00  0.00    +0.206 C 
ATOM      2  N   UNL     1       1.725  -2.021  -6.192  0.00  0.00    -0.229 NA
ATOM      3  N   UNL     1       1.507  -3.155  -7.104  0.00  0.00    -0.225 NA
ATOM      4  C   UNL     1       0.849  -4.163  -6.233  0.00  0.00    +0.231 C 
ATOM      5  N   UNL     1       1.528  -4.015  -4.928  0.00  0.00    -0.205 N 
ATOM      6  H   UNL     1       0.889  -1.464  -6.101  0.00  0.00    +0.143 HD
ATOM      7  H   UNL     1       0.905  -2.892  -7.871  0.00  0.00    +0.143 HD
ENDROOT
BRANCH   1  11
ATOM      8  C   UNL     1       0.387  -0.438  -1.665  0.00  0.00    +0.120 A 
ATOM      9  C   UNL     1       0.778   0.216  -2.825  0.00  0.00    +0.046 A 
ATOM     10  C   UNL     1       1.327  -0.502  -3.870  0.00  0.00    +0.010 A 
ATOM     11  C   UNL     1       1.487  -1.871  -3.760  0.00  0.00    -0.010 A 
ATOM     12  C   UNL     1       1.098  -2.525  -2.606  0.00  0.00    +0.010 A 
ATOM     13  C   UNL     1       0.554  -1.810  -1.556  0.00  0.00    +0.046 A 
BRANCH   8  15
ATOM     14  C   UNL     1      -0.295   1.677  -0.819  0.00  0.00    +0.277 C 
ATOM     15  O   UNL     1      -0.153   0.267  -0.636  0.00  0.00    -0.495 OA
ENDBRANCH   8  15
ENDBRANCH   1  11
BRANCH   5  16
ATOM     16  N   UNL     1       1.615  -4.904  -3.997  0.00  0.00    -0.188 NA
ATOM     17  C   UNL     1       2.445  -5.911  -4.126  0.00  0.00    +0.136 C 
BRANCH  17  18
ATOM     18  C   UNL     1       3.351  -5.937  -5.190  0.00  0.00    +0.000 C 
ATOM     19  C   UNL     1       4.218  -6.976  -5.536  0.00  0.00    +0.004 A 
ATOM     20  C   UNL     1       4.454  -8.248  -4.972  0.00  0.00    +0.010 A 
ATOM     21  C   UNL     1       5.378  -9.071  -5.531  0.00  0.00    +0.001 A 
ATOM     22  C   UNL     1       6.110  -8.691  -6.657  0.00  0.00    +0.002 A 
ATOM     23  C   UNL     1       5.936  -7.484  -7.250  0.00  0.00    +0.026 A 
ATOM     24  C   UNL     1       4.987  -6.570  -6.723  0.00  0.00    +0.043 A 
ATOM     25  N   UNL     1       4.636  -5.359  -7.109  0.00  0.00    -0.380 N 
ATOM     26  C   UNL     1       3.594  -4.848  -6.213  0.00  0.00    +0.150 C 
ATOM     27  H   UNL     1       5.006  -4.882  -7.867  0.00  0.00    +0.160 HD
ENDBRANCH  17  18
ENDBRANCH   5  16
BRANCH   4  28
ATOM     28  S   UNL     1      -0.923  -3.805  -6.074  0.00  0.00    -0.138 S 
ATOM     29  H   UNL     1      -1.368  -3.796  -7.344  0.00  0.00    +0.105 HD
ENDBRANCH   4  28
TORSDOF 5
