REMARK  Name = ZINC10294983
REMARK  6 active torsions:
REMARK  status: ('A' for Active; 'I' for Inactive)
REMARK    1  A    between atoms: C_1  and  C_2
REMARK    2  A    between atoms: C_2  and  O_3
REMARK    3  A    between atoms: O_3  and  C_4
REMARK    4  A    between atoms: C_6  and  C_11
REMARK    5  A    between atoms: C_9  and  O_10
REMARK    6  A    between atoms: C_18  and  C_19
REMARK                            x       y       z     vdW  Elec       q    Type
REMARK                         _______ _______ _______ _____ _____    ______ ____
ROOT
ATOM      1  C   UNL     1       0.067  -4.801  -0.007  0.00  0.00    +0.176 C 
ATOM      2  C   UNL     1       0.480  -5.548  -1.247  0.00  0.00    +0.036 A 
ATOM      3  C   UNL     1       0.219  -6.897  -1.420  0.00  0.00    +0.110 A 
ATOM      4  C   UNL     1       0.635  -7.507  -2.609  0.00  0.00    +0.310 A 
ATOM      5  N   UNL     1       1.263  -6.788  -3.525  0.00  0.00    -0.104 NA
ATOM      6  N   UNL     1       1.508  -5.539  -3.366  0.00  0.00    -0.145 NA
ATOM      7  C   UNL     1       1.150  -4.876  -2.274  0.00  0.00    +0.101 A 
ATOM      8  O   UNL     1       0.397  -8.827  -2.821  0.00  0.00    -0.262 OA
ATOM      9  N   UNL     1      -0.435  -7.647  -0.437  0.00  0.00    -0.278 N 
ATOM     10  C   UNL     1      -0.578  -7.064   0.813  0.00  0.00    +0.240 A 
ATOM     11  N   UNL     1      -0.343  -5.745   1.025  0.00  0.00    -0.201 N 
ATOM     12  N   UNL     1      -0.581  -5.542   2.385  0.00  0.00    -0.042 NA
ATOM     13  N   UNL     1      -0.930  -6.688   2.873  0.00  0.00    -0.021 NA
ATOM     14  N   UNL     1      -0.931  -7.585   1.954  0.00  0.00    -0.092 NA
ATOM     15  H   UNL     1      -0.775  -8.536  -0.622  0.00  0.00    +0.155 HD
ENDROOT
BRANCH   7  16
ATOM     16  C   UNL     1       1.458  -3.431  -2.143  0.00  0.00    +0.003 A 
ATOM     17  C   UNL     1       2.072  -2.949  -0.989  0.00  0.00    +0.011 A 
ATOM     18  C   UNL     1       2.357  -1.603  -0.872  0.00  0.00    +0.016 A 
ATOM     19  C   UNL     1       2.034  -0.734  -1.899  0.00  0.00    +0.018 A 
ATOM     20  C   UNL     1       1.423  -1.208  -3.048  0.00  0.00    +0.016 A 
ATOM     21  C   UNL     1       1.139  -2.552  -3.176  0.00  0.00    +0.011 A 
ATOM     22 BR   UNL     1       2.426   1.109  -1.733  0.00  0.00    -0.050 Br
ENDBRANCH   7  16
BRANCH   1  25
ATOM     23  C   UNL     1      -3.287  -3.558  -1.224  0.00  0.00    +0.162 A 
ATOM     24  C   UNL     1      -2.227  -4.398  -0.922  0.00  0.00    +0.055 A 
ATOM     25  C   UNL     1      -1.085  -3.886  -0.334  0.00  0.00    -0.015 A 
ATOM     26  C   UNL     1      -0.998  -2.537  -0.045  0.00  0.00    +0.010 A 
ATOM     27  C   UNL     1      -2.052  -1.694  -0.343  0.00  0.00    +0.049 A 
ATOM     28  C   UNL     1      -3.196  -2.199  -0.938  0.00  0.00    +0.158 A 
BRANCH  28  29
ATOM     29  O   UNL     1      -4.232  -1.369  -1.237  0.00  0.00    -0.503 OA
ATOM     30  H   UNL     1      -4.878  -1.274  -0.524  0.00  0.00    +0.292 HD
ENDBRANCH  28  29
BRANCH  23  31
ATOM     31  O   UNL     1      -4.411  -4.059  -1.803  0.00  0.00    -0.489 OA
BRANCH  31  33
ATOM     32  C   UNL     1      -5.852  -5.861  -2.522  0.00  0.00    +0.048 C 
ATOM     33  C   UNL     1      -4.479  -5.477  -1.966  0.00  0.00    +0.226 C 
ENDBRANCH  31  33
ENDBRANCH  23  31
ENDBRANCH   1  25
TORSDOF 5
