REMARK  Name = ZINC08859206
REMARK  10 active torsions:
REMARK  status: ('A' for Active; 'I' for Inactive)
REMARK    1  A    between atoms: C_1  and  C_2
REMARK    2  A    between atoms: C_5  and  C_8
REMARK    3  A    between atoms: C_8  and  C_9
REMARK    4  A    between atoms: N_11  and  C_12
REMARK    5  A    between atoms: C_12  and  C_14
REMARK    6  A    between atoms: C_12  and  N_18
REMARK    7  A    between atoms: N_18  and  C_19
REMARK    8  A    between atoms: C_19  and  N_21
REMARK    9  A    between atoms: N_21  and  C_22
REMARK   10  A    between atoms: C_25  and  N_29
REMARK                            x       y       z     vdW  Elec       q    Type
REMARK                         _______ _______ _______ _____ _____    ______ ____
ROOT
ATOM      1  C   UNL     1       3.631  -2.348   0.269  0.00  0.00    +0.211 C 
ENDROOT
BRANCH   1   4
ATOM      2  C   UNL     1       2.980  -3.207   2.454  0.00  0.00    +0.219 C 
ATOM      3  O   UNL     1       1.844  -3.310   2.043  0.00  0.00    -0.275 OA
ATOM      4  N   UNL     1       3.949  -2.735   1.645  0.00  0.00    -0.293 N 
ATOM      5  H   UNL     1       4.858  -2.653   1.974  0.00  0.00    +0.151 HD
BRANCH   2   6
ATOM      6  C   UNL     1       3.308  -3.605   3.870  0.00  0.00    +0.131 C 
BRANCH   6  11
ATOM      7  C   UNL     1      -1.482  -5.482   6.502  0.00  0.00    +0.044 C 
ATOM      8  C   UNL     1      -0.233  -4.993   5.816  0.00  0.00    -0.050 A 
ATOM      9  C   UNL     1       0.574  -5.883   5.132  0.00  0.00    +0.003 A 
ATOM     10  C   UNL     1       1.720  -5.434   4.503  0.00  0.00    +0.004 A 
ATOM     11  C   UNL     1       2.059  -4.095   4.556  0.00  0.00    -0.039 A 
ATOM     12  C   UNL     1       1.254  -3.205   5.244  0.00  0.00    +0.004 A 
ATOM     13  C   UNL     1       0.106  -3.654   5.870  0.00  0.00    +0.003 A 
ENDBRANCH   6  11
ENDBRANCH   2   6
ENDBRANCH   1   4
BRANCH   1  14
ATOM     14  C   UNL     1       4.695  -2.907  -0.678  0.00  0.00    +0.225 C 
ATOM     15 CL   UNL     1       6.309  -2.244  -0.225  0.00  0.00    -0.080 Cl
ATOM     16 CL   UNL     1       4.727  -4.705  -0.552  0.00  0.00    -0.080 Cl
ATOM     17 CL   UNL     1       4.303  -2.430  -2.372  0.00  0.00    -0.080 Cl
ENDBRANCH   1  14
BRANCH   1  18
ATOM     18  N   UNL     1       3.605  -0.887   0.166  0.00  0.00    -0.305 N 
ATOM     19  H   UNL     1       4.436  -0.386   0.161  0.00  0.00    +0.150 HD
BRANCH  18  20
ATOM     20  C   UNL     1       2.426  -0.238   0.079  0.00  0.00    +0.136 C 
ATOM     21  S   UNL     1       0.960  -1.122   0.089  0.00  0.00    -0.019 S 
BRANCH  20  22
ATOM     22  N   UNL     1       2.403   1.106  -0.015  0.00  0.00    -0.296 N 
ATOM     23  H   UNL     1       3.233   1.602  -0.083  0.00  0.00    +0.154 HD
BRANCH  22  24
ATOM     24  C   UNL     1       1.179   1.786  -0.014  0.00  0.00    +0.051 A 
ATOM     25  C   UNL     1       0.142   1.352  -0.829  0.00  0.00    +0.027 A 
ATOM     26  C   UNL     1      -1.062   2.029  -0.830  0.00  0.00    +0.034 A 
ATOM     27  C   UNL     1      -1.239   3.131  -0.014  0.00  0.00    +0.128 A 
ATOM     28  C   UNL     1      -0.209   3.566   0.799  0.00  0.00    +0.054 A 
ATOM     29  C   UNL     1       1.001   2.897   0.801  0.00  0.00    +0.064 A 
ATOM     30 CL   UNL     1       2.295   3.444   1.821  0.00  0.00    -0.082 Cl
BRANCH  27  31
ATOM     31  N   UNL     1      -2.533   3.850  -0.014  0.00  0.00    +0.056 N 
ATOM     32  O   UNL     1      -2.689   4.824   0.701  0.00  0.00    -0.126 OA
ATOM     33  O   UNL     1      -3.442   3.469  -0.730  0.00  0.00    -0.126 OA
ENDBRANCH  27  31
ENDBRANCH  22  24
ENDBRANCH  20  22
ENDBRANCH  18  20
ENDBRANCH   1  18
TORSDOF 9
