REMARK  Name = ZINC42484240
REMARK  4 active torsions:
REMARK  status: ('A' for Active; 'I' for Inactive)
REMARK    1  A    between atoms: C_4  and  C_7
REMARK    2  A    between atoms: C_9  and  C_12
REMARK    3  A    between atoms: C_12  and  N_13
REMARK    4  A    between atoms: C_22  and  C_24
REMARK                            x       y       z     vdW  Elec       q    Type
REMARK                         _______ _______ _______ _____ _____    ______ ____
ROOT
ATOM      1  N   UNL     1       5.866  -4.163  -1.472  0.00  0.00    -0.280 NA
ATOM      2  C   UNL     1       6.877  -3.347  -2.160  0.00  0.00    +0.092 C 
ATOM      3  C   UNL     1       6.762  -3.558  -3.677  0.00  0.00    +0.070 C 
ATOM      4  C   UNL     1       6.717  -5.042  -3.935  0.00  0.00    +0.042 A 
ATOM      5  C   UNL     1       6.466  -5.959  -2.973  0.00  0.00    +0.085 A 
ATOM      6  N   UNL     1       6.503  -7.167  -3.538  0.00  0.00    -0.239 NA
ATOM      7  H   UNL     1       7.103  -5.334  -5.965  0.00  0.00    +0.166 HD
ATOM      8  C   UNL     1       6.766  -7.036  -4.813  0.00  0.00    +0.197 A 
ATOM      9  N   UNL     1       6.905  -5.720  -5.097  0.00  0.00    -0.348 N 
ATOM     10  C   UNL     1       6.196  -5.597  -1.534  0.00  0.00    +0.157 C 
ENDROOT
BRANCH  10  11
ATOM     11  C   UNL     1       5.037  -6.408  -1.015  0.00  0.00    +0.064 A 
ATOM     12  C   UNL     1       5.265  -7.665  -0.488  0.00  0.00    +0.025 A 
ATOM     13  C   UNL     1       4.192  -8.403  -0.013  0.00  0.00    +0.003 A 
ATOM     14  C   UNL     1       2.924  -7.846  -0.086  0.00  0.00    +0.020 A 
ATOM     15  C   UNL     1       2.774  -6.583  -0.625  0.00  0.00    +0.111 A 
ATOM     16  N   UNL     1       3.818  -5.907  -1.063  0.00  0.00    -0.258 NA
ENDBRANCH  10  11
BRANCH   1  17
ATOM     17  C   UNL     1       5.692  -3.722  -0.082  0.00  0.00    +0.184 C 
BRANCH  17  20
ATOM     18  C   UNL     1       3.699  -0.689  -0.037  0.00  0.00    +0.202 A 
ATOM     19  N   UNL     1       3.853  -2.025  -0.051  0.00  0.00    -0.190 NA
ATOM     20  C   UNL     1       5.120  -2.328  -0.065  0.00  0.00    +0.242 A 
ATOM     21  O   UNL     1       5.828  -1.191  -0.059  0.00  0.00    -0.336 OA
ATOM     22  N   UNL     1       4.884  -0.131  -0.046  0.00  0.00    -0.056 NA
BRANCH  18  26
ATOM     23  C   UNL     1      -0.017   1.379   0.010  0.00  0.00    +0.000 A 
ATOM     24  C   UNL     1       1.169   2.092   0.002  0.00  0.00    +0.001 A 
ATOM     25  C   UNL     1       2.377   1.426  -0.013  0.00  0.00    +0.012 A 
ATOM     26  C   UNL     1       2.402   0.033  -0.021  0.00  0.00    +0.022 A 
ATOM     27  C   UNL     1       1.205  -0.680  -0.013  0.00  0.00    +0.012 A 
ATOM     28  C   UNL     1       0.002  -0.004   0.002  0.00  0.00    +0.001 A 
ENDBRANCH  18  26
ENDBRANCH  17  20
ENDBRANCH   1  17
TORSDOF 4
