REMARK  Name = ZINC12374761
REMARK  3 active torsions:
REMARK  status: ('A' for Active; 'I' for Inactive)
REMARK    1  A    between atoms: C_6  and  C_7
REMARK    2  A    between atoms: N_16  and  N_17
REMARK    3  A    between atoms: C_18  and  C_19
REMARK                            x       y       z     vdW  Elec       q    Type
REMARK                         _______ _______ _______ _____ _____    ______ ____
ROOT
ATOM      1  C   UNL     1       1.465   9.756  -0.163  0.00  0.00    +0.185 A 
ATOM      2  N   UNL     1       1.366  11.067  -0.047  0.00  0.00    -0.127 NA
ATOM      3  N   UNL     1       0.129  11.420  -0.070  0.00  0.00    -0.128 NA
ATOM      4  C   UNL     1      -0.637  10.348  -0.204  0.00  0.00    +0.178 A 
ATOM      5  N   UNL     1       0.199   9.261  -0.266  0.00  0.00    -0.191 N 
ATOM      6  N   UNL     1      -0.329   7.976  -0.409  0.00  0.00    -0.147 NA
ATOM      7  C   UNL     1      -1.628   7.795  -0.484  0.00  0.00    +0.159 A 
ATOM      8  C   UNL     1      -2.513   8.889  -0.429  0.00  0.00    +0.050 A 
ATOM      9  C   UNL     1      -2.029  10.152  -0.285  0.00  0.00    +0.053 A 
ATOM     10  N   UNL     1      -2.134   6.509  -0.626  0.00  0.00    -0.220 N 
ATOM     11  H   UNL     1      -1.530   5.760  -0.749  0.00  0.00    +0.176 HD
ENDROOT
BRANCH   1  17
ATOM     12  C   UNL     1       2.681   7.590   0.030  0.00  0.00    +0.013 A 
ATOM     13  C   UNL     1       3.852   6.862   0.009  0.00  0.00    +0.021 A 
ATOM     14  C   UNL     1       5.063   7.498  -0.208  0.00  0.00    +0.041 A 
ATOM     15  C   UNL     1       5.105   8.867  -0.410  0.00  0.00    +0.021 A 
ATOM     16  C   UNL     1       3.941   9.606  -0.397  0.00  0.00    +0.013 A 
ATOM     17  C   UNL     1       2.717   8.970  -0.179  0.00  0.00    +0.021 A 
ATOM     18 CL   UNL     1       6.533   6.575  -0.226  0.00  0.00    -0.084 Cl
ENDBRANCH   1  17
BRANCH  10  19
ATOM     19  N   UNL     1      -3.518   6.293  -0.591  0.00  0.00    -0.189 NA
ATOM     20  C   UNL     1      -3.988   5.083  -0.625  0.00  0.00    +0.140 C 
BRANCH  20  21
ATOM     21  C   UNL     1      -5.441   4.859  -0.701  0.00  0.00    +0.020 A 
ATOM     22  C   UNL     1      -6.073   3.663  -0.840  0.00  0.00    +0.093 A 
ATOM     23  N   UNL     1      -7.423   3.857  -0.875  0.00  0.00    -0.360 N 
ATOM     24  H   UNL     1      -8.083   3.152  -0.971  0.00  0.00    +0.165 HD
ATOM     25  C   UNL     1      -7.715   5.199  -0.748  0.00  0.00    +0.047 A 
ATOM     26  C   UNL     1      -6.495   5.886  -0.633  0.00  0.00    +0.009 A 
ATOM     27  C   UNL     1      -6.486   7.272  -0.492  0.00  0.00    +0.026 A 
ATOM     28  C   UNL     1      -7.678   7.963  -0.464  0.00  0.00    +0.019 A 
ATOM     29  C   UNL     1      -8.884   7.284  -0.577  0.00  0.00    +0.017 A 
ATOM     30  C   UNL     1      -8.908   5.914  -0.718  0.00  0.00    +0.027 A 
ATOM     31 BR   UNL     1      -7.671   9.844  -0.272  0.00  0.00    -0.050 Br
ENDBRANCH  20  21
ENDBRANCH  10  19
TORSDOF 3
