REMARK  Name = ZINC56718030
REMARK  9 active torsions:
REMARK  status: ('A' for Active; 'I' for Inactive)
REMARK    1  A    between atoms: C_1  and  C_2
REMARK    2  A    between atoms: C_5  and  O_25
REMARK    3  A    between atoms: C_6  and  C_8
REMARK    4  A    between atoms: C_8  and  C_10
REMARK    5  A    between atoms: C_8  and  N_11
REMARK    6  A    between atoms: N_14  and  C_15
REMARK    7  A    between atoms: C_18  and  O_22
REMARK    8  A    between atoms: O_22  and  C_23
REMARK    9  A    between atoms: O_25  and  C_26
REMARK                            x       y       z     vdW  Elec       q    Type
REMARK                         _______ _______ _______ _____ _____    ______ ____
ROOT
ATOM      1  N   UNL     1       0.494  -2.023   3.634  0.00  0.00    -0.292 N 
ATOM      2  C   UNL     1       1.161  -2.572   4.668  0.00  0.00    +0.304 C 
ATOM      3  O   UNL     1       1.160  -3.779   4.819  0.00  0.00    -0.252 OA
ATOM      4  N   UNL     1       1.829  -1.785   5.534  0.00  0.00    -0.269 N 
ATOM      5  H   UNL     1       0.495  -1.060   3.513  0.00  0.00    +0.151 HD
ATOM      6  H   UNL     1       1.768  -0.820   5.459  0.00  0.00    +0.156 HD
ENDROOT
BRANCH   4   7
ATOM      7  C   UNL     1       2.612  -2.361   6.544  0.00  0.00    +0.040 A 
ATOM      8  C   UNL     1       2.724  -1.734   7.778  0.00  0.00    +0.065 A 
ATOM      9  C   UNL     1       3.497  -2.302   8.774  0.00  0.00    +0.169 A 
ATOM     10  C   UNL     1       4.160  -3.499   8.541  0.00  0.00    +0.190 A 
ATOM     11  C   UNL     1       4.048  -4.126   7.308  0.00  0.00    +0.169 A 
ATOM     12  C   UNL     1       3.271  -3.560   6.313  0.00  0.00    +0.065 A 
ATOM     13  F   UNL     1       4.693  -5.291   7.081  0.00  0.00    -0.201 F 
ATOM     14  F   UNL     1       3.606  -1.691   9.975  0.00  0.00    -0.201 F 
BRANCH  10  15
ATOM     15  O   UNL     1       4.921  -4.057   9.522  0.00  0.00    -0.490 OA
ATOM     16  C   UNL     1       4.269  -4.968  10.409  0.00  0.00    +0.277 C 
ENDBRANCH  10  15
ENDBRANCH   4   7
BRANCH   1  17
ATOM     17  C   UNL     1      -0.232  -2.878   2.692  0.00  0.00    +0.105 C 
ATOM     18  C   UNL     1      -1.657  -3.101   3.200  0.00  0.00    +0.033 C 
BRANCH  17  24
ATOM     19  C   UNL     1      -0.201   1.278  -0.093  0.00  0.00    +0.044 C 
ATOM     20  C   UNL     1      -0.263  -0.224   0.007  0.00  0.00    -0.050 A 
ATOM     21  C   UNL     1      -0.362  -0.989  -1.141  0.00  0.00    +0.007 A 
ATOM     22  C   UNL     1      -0.420  -2.366  -1.052  0.00  0.00    +0.046 A 
ATOM     23  C   UNL     1      -0.377  -2.982   0.191  0.00  0.00    +0.125 A 
ATOM     24  C   UNL     1      -0.278  -2.213   1.341  0.00  0.00    +0.014 A 
ATOM     25  C   UNL     1      -0.215  -0.836   1.246  0.00  0.00    +0.012 A 
BRANCH  23  26
ATOM     26  O   UNL     1      -0.434  -4.337   0.281  0.00  0.00    -0.495 OA
ATOM     27  C   UNL     1      -0.537  -5.065  -0.944  0.00  0.00    +0.277 C 
ENDBRANCH  23  26
ENDBRANCH  17  24
ENDBRANCH   1  17
TORSDOF 5
