REMARK  Name = ZINC64707607
REMARK  5 active torsions:
REMARK  status: ('A' for Active; 'I' for Inactive)
REMARK    1  A    between atoms: C_6  and  C_29
REMARK    2  A    between atoms: C_8  and  C_11
REMARK    3  A    between atoms: C_11  and  C_12
REMARK    4  A    between atoms: C_12  and  C_13
REMARK    5  A    between atoms: C_17  and  C_26
REMARK                            x       y       z     vdW  Elec       q    Type
REMARK                         _______ _______ _______ _____ _____    ______ ____
ROOT
ATOM      1  C   UNL     1       0.691  -3.183  -0.009  0.00  0.00    +0.043 C 
ENDROOT
BRANCH   1   8
ATOM      2  C   UNL     1      -0.013   1.350   0.088  0.00  0.00    +0.001 A 
ATOM      3  C   UNL     1       1.169   2.103   0.097  0.00  0.00    +0.002 A 
ATOM      4  C   UNL     1       2.394   1.536   0.079  0.00  0.00    +0.026 A 
ATOM      5  C   UNL     1       2.531   0.121   0.050  0.00  0.00    +0.043 A 
ATOM      6  N   UNL     1       3.589  -0.653   0.028  0.00  0.00    -0.374 N 
ATOM      7  C   UNL     1       3.145  -2.051   0.002  0.00  0.00    +0.137 C 
ATOM      8  C   UNL     1       1.633  -2.006   0.011  0.00  0.00    -0.034 C 
ATOM      9  C   UNL     1       1.297  -0.697   0.040  0.00  0.00    -0.000 A 
ATOM     10  C   UNL     1       0.004  -0.002   0.061  0.00  0.00    +0.010 A 
ATOM     11  H   UNL     1       4.511  -0.352   0.029  0.00  0.00    +0.161 HD
BRANCH   7  12
ATOM     12  C   UNL     1       3.638  -2.730  -1.251  0.00  0.00    -0.021 A 
ATOM     13  C   UNL     1       3.661  -2.038  -2.447  0.00  0.00    +0.009 A 
ATOM     14  C   UNL     1       4.114  -2.659  -3.596  0.00  0.00    +0.039 A 
ATOM     15  C   UNL     1       4.544  -3.974  -3.548  0.00  0.00    +0.123 A 
ATOM     16  C   UNL     1       4.520  -4.666  -2.349  0.00  0.00    +0.039 A 
ATOM     17  C   UNL     1       4.072  -4.041  -1.200  0.00  0.00    +0.009 A 
ATOM     18  F   UNL     1       4.986  -4.582  -4.671  0.00  0.00    -0.205 F 
ENDBRANCH   7  12
ENDBRANCH   1   8
BRANCH   1  19
ATOM     19  C   UNL     1      -0.748  -2.686   0.138  0.00  0.00    +0.101 C 
BRANCH  19  20
ATOM     20  C   UNL     1      -1.679  -3.867   0.244  0.00  0.00    +0.220 C 
ATOM     21  O   UNL     1      -1.227  -4.992   0.298  0.00  0.00    -0.275 OA
ATOM     22  N   UNL     1      -3.012  -3.673   0.281  0.00  0.00    -0.264 N 
ATOM     23  C   UNL     1      -3.585  -2.317   0.303  0.00  0.00    +0.168 C 
ATOM     24  C   UNL     1      -4.793  -2.308  -0.644  0.00  0.00    +0.276 C 
ATOM     25  O   UNL     1      -5.729  -3.296  -0.207  0.00  0.00    -0.476 OA
ATOM     26  C   UNL     1      -5.257  -4.545   0.048  0.00  0.00    +0.143 A 
ATOM     27  C   UNL     1      -3.904  -4.759   0.292  0.00  0.00    +0.078 A 
ATOM     28  C   UNL     1      -3.439  -6.038   0.549  0.00  0.00    +0.027 A 
ATOM     29  C   UNL     1      -4.321  -7.104   0.557  0.00  0.00    +0.002 A 
ATOM     30  C   UNL     1      -5.664  -6.893   0.307  0.00  0.00    +0.004 A 
ATOM     31  C   UNL     1      -6.134  -5.620   0.062  0.00  0.00    +0.047 A 
BRANCH  24  32
ATOM     32  C   UNL     1      -5.443  -0.948  -0.621  0.00  0.00    +0.253 C 
ATOM     33  O   UNL     1      -6.569  -0.822  -0.190  0.00  0.00    -0.272 OA
ATOM     34  N   UNL     1      -4.772   0.128  -1.079  0.00  0.00    -0.326 N 
ATOM     35  H   UNL     1      -3.871   0.026  -1.423  0.00  0.00    +0.145 HD
ATOM     36  H   UNL     1      -5.190   1.003  -1.064  0.00  0.00    +0.145 HD
ENDBRANCH  24  32
ENDBRANCH  19  20
ENDBRANCH   1  19
TORSDOF 5
