REMARK  Name = ZINC67636630
REMARK  8 active torsions:
REMARK  status: ('A' for Active; 'I' for Inactive)
REMARK    1  A    between atoms: C_1  and  C_2
REMARK    2  A    between atoms: C_4  and  C_8
REMARK    3  A    between atoms: C_5  and  C_7
REMARK    4  A    between atoms: C_8  and  C_10
REMARK    5  A    between atoms: C_8  and  N_11
REMARK    6  A    between atoms: C_17  and  C_20
REMARK    7  A    between atoms: C_20  and  C_22
REMARK    8  A    between atoms: C_20  and  O_29
REMARK                            x       y       z     vdW  Elec       q    Type
REMARK                         _______ _______ _______ _____ _____    ______ ____
ROOT
ATOM      1  N   UNL     1      -3.058  -5.298   1.142  0.00  0.00    -0.293 N 
ATOM      2  C   UNL     1      -3.542  -4.045   1.030  0.00  0.00    +0.303 C 
ATOM      3  O   UNL     1      -2.828  -3.153   0.614  0.00  0.00    -0.253 OA
ATOM      4  N   UNL     1      -4.816  -3.780   1.378  0.00  0.00    -0.286 N 
ATOM      5  C   UNL     1      -5.394  -2.449   1.149  0.00  0.00    +0.109 C 
ATOM      6  C   UNL     1      -5.975  -1.930   2.468  0.00  0.00    +0.025 C 
ATOM      7  C   UNL     1      -6.964  -2.957   3.025  0.00  0.00    +0.025 C 
ATOM      8  C   UNL     1      -6.233  -4.272   3.304  0.00  0.00    +0.025 C 
ATOM      9  C   UNL     1      -5.657  -4.819   1.989  0.00  0.00    +0.109 C 
ATOM     10  H   UNL     1      -3.604  -5.994   1.541  0.00  0.00    +0.151 HD
ENDROOT
BRANCH   1  11
ATOM     11  C   UNL     1      -1.710  -5.608   0.663  0.00  0.00    +0.105 C 
ATOM     12  C   UNL     1      -0.691  -5.274   1.754  0.00  0.00    +0.033 C 
BRANCH  11  16
ATOM     13  C   UNL     1      -2.655 -10.610   0.452  0.00  0.00    +0.086 C 
ATOM     14  C   UNL     1      -2.044  -9.248   0.242  0.00  0.00    +0.103 A 
ATOM     15  C   UNL     1      -2.481  -8.098   0.786  0.00  0.00    +0.050 A 
ATOM     16  C   UNL     1      -1.622  -7.074   0.325  0.00  0.00    +0.013 A 
ATOM     17  C   UNL     1      -0.711  -7.660  -0.473  0.00  0.00    +0.107 A 
ATOM     18  O   UNL     1      -0.968  -8.978  -0.515  0.00  0.00    -0.465 OA
ATOM     19  C   UNL     1       0.411  -6.958  -1.193  0.00  0.00    +0.086 C 
ENDBRANCH  11  16
ENDBRANCH   1  11
BRANCH   7  20
ATOM     20  C   UNL     1      -7.572  -2.426   4.325  0.00  0.00    +0.148 C 
BRANCH  20  21
ATOM     21  C   UNL     1      -8.545  -3.437   4.873  0.00  0.00    -0.019 A 
ATOM     22  C   UNL     1      -9.820  -3.525   4.347  0.00  0.00    +0.007 A 
ATOM     23  C   UNL     1     -10.714  -4.452   4.850  0.00  0.00    +0.020 A 
ATOM     24  C   UNL     1     -10.332  -5.292   5.880  0.00  0.00    +0.041 A 
ATOM     25  C   UNL     1      -9.055  -5.204   6.407  0.00  0.00    +0.020 A 
ATOM     26  C   UNL     1      -8.161  -4.280   5.899  0.00  0.00    +0.007 A 
ATOM     27 CL   UNL     1     -11.453  -6.457   6.512  0.00  0.00    -0.084 Cl
ENDBRANCH  20  21
BRANCH  20  28
ATOM     28  O   UNL     1      -8.256  -1.199   4.065  0.00  0.00    -0.387 OA
ATOM     29  H   UNL     1      -8.976  -1.278   3.424  0.00  0.00    +0.210 HD
ENDBRANCH  20  28
ENDBRANCH   7  20
TORSDOF 5
