REMARK  Name = ZINC12703884
REMARK  10 active torsions:
REMARK  status: ('A' for Active; 'I' for Inactive)
REMARK    1  A    between atoms: C_1  and  C_2
REMARK    2  A    between atoms: C_5  and  C_7
REMARK    3  A    between atoms: C_7  and  C_9
REMARK    4  A    between atoms: C_7  and  N_17
REMARK    5  A    between atoms: N_11  and  C_12
REMARK    6  A    between atoms: N_17  and  C_18
REMARK    7  A    between atoms: C_18  and  C_19
REMARK    8  A    between atoms: C_24  and  C_26
REMARK    9  A    between atoms: C_26  and  N_27
REMARK   10  A    between atoms: C_29  and  C_32
REMARK                            x       y       z     vdW  Elec       q    Type
REMARK                         _______ _______ _______ _____ _____    ______ ____
ROOT
ATOM      1  N   UNL     1       1.785   3.744   1.379  0.00  0.00    -0.274 N 
ATOM      2  C   UNL     1       2.952   3.735   2.053  0.00  0.00    +0.240 C 
ATOM      3  O   UNL     1       3.003   4.175   3.182  0.00  0.00    -0.273 OA
ENDROOT
BRANCH   1   4
ATOM      4  C   UNL     1       0.579   4.285   2.009  0.00  0.00    +0.229 C 
BRANCH   4   9
ATOM      5  C   UNL     1       2.698   8.609   3.511  0.00  0.00    +0.086 C 
ATOM      6  C   UNL     1       1.698   7.632   2.948  0.00  0.00    +0.102 A 
ATOM      7  C   UNL     1       0.480   7.941   2.469  0.00  0.00    +0.045 A 
ATOM      8  C   UNL     1      -0.114   6.729   2.049  0.00  0.00    +0.047 A 
ATOM      9  C   UNL     1       0.777   5.752   2.295  0.00  0.00    +0.135 A 
ATOM     10  O   UNL     1       1.871   6.304   2.846  0.00  0.00    -0.462 OA
ENDBRANCH   4   9
BRANCH   4  11
ATOM     11  C   UNL     1       0.314   3.553   3.299  0.00  0.00    +0.241 C 
ATOM     12  O   UNL     1       1.060   2.666   3.657  0.00  0.00    -0.273 OA
ATOM     13  N   UNL     1      -0.751   3.884   4.056  0.00  0.00    -0.311 N 
ATOM     14  H   UNL     1      -1.348   4.593   3.769  0.00  0.00    +0.149 HD
BRANCH  13  15
ATOM     15  C   UNL     1      -1.009   3.172   5.310  0.00  0.00    +0.073 C 
ATOM     16  C   UNL     1      -1.865   1.917   5.039  0.00  0.00    +0.022 C 
ATOM     17  C   UNL     1      -2.811   1.831   6.262  0.00  0.00    +0.002 C 
ATOM     18  C   UNL     1      -3.146   3.318   6.540  0.00  0.00    +0.002 C 
ATOM     19  C   UNL     1      -1.824   4.062   6.264  0.00  0.00    +0.022 C 
ENDBRANCH  13  15
ENDBRANCH   4  11
ENDBRANCH   1   4
BRANCH   1  20
ATOM     20  C   UNL     1       1.723   3.212   0.015  0.00  0.00    +0.183 C 
BRANCH  20  21
ATOM     21  C   UNL     1       1.277   1.773   0.057  0.00  0.00    +0.122 A 
ATOM     22  C   UNL     1       0.002   1.346   0.095  0.00  0.00    +0.046 A 
ATOM     23  C   UNL     1       0.045  -0.067   0.125  0.00  0.00    +0.041 A 
ATOM     24  C   UNL     1       1.343  -0.419   0.103  0.00  0.00    +0.195 A 
ATOM     25  O   UNL     1       2.085   0.700   0.061  0.00  0.00    -0.466 OA
ENDBRANCH  20  21
ENDBRANCH   1  20
BRANCH   2  26
ATOM     26  C   UNL     1       4.193   3.178   1.405  0.00  0.00    +0.264 C 
BRANCH  26  27
ATOM     27  N   UNL     1       5.319   3.281   2.336  0.00  0.00    -0.154 N 
ATOM     28  N   UNL     1       6.123   4.284   2.424  0.00  0.00    -0.130 NA
ATOM     29  C   UNL     1       7.000   4.016   3.371  0.00  0.00    +0.205 A 
ATOM     30  N   UNL     1       6.694   2.800   3.845  0.00  0.00    -0.108 NA
ATOM     31  N   UNL     1       5.664   2.382   3.190  0.00  0.00    -0.045 NA
BRANCH  29  32
ATOM     32  C   UNL     1       8.114   4.888   3.821  0.00  0.00    +0.023 A 
ATOM     33  C   UNL     1       8.312   6.132   3.226  0.00  0.00    +0.013 A 
ATOM     34  C   UNL     1       9.345   6.941   3.652  0.00  0.00    +0.021 A 
ATOM     35  C   UNL     1      10.192   6.514   4.661  0.00  0.00    +0.041 A 
ATOM     36  C   UNL     1      10.002   5.277   5.252  0.00  0.00    +0.021 A 
ATOM     37  C   UNL     1       8.968   4.463   4.837  0.00  0.00    +0.013 A 
ATOM     38 CL   UNL     1      11.494   7.534   5.187  0.00  0.00    -0.084 Cl
ENDBRANCH  29  32
ENDBRANCH  26  27
ENDBRANCH   2  26
TORSDOF 9
