REMARK  Name = ZINC20707244
REMARK  3 active torsions:
REMARK  status: ('A' for Active; 'I' for Inactive)
REMARK    1  A    between atoms: C_4  and  O_32
REMARK    2  A    between atoms: C_5  and  C_7
REMARK    3  A    between atoms: C_20  and  C_23
REMARK                            x       y       z     vdW  Elec       q    Type
REMARK                         _______ _______ _______ _____ _____    ______ ____
ROOT
ATOM      1  C   UNL     1       1.729   4.194   0.458  0.00  0.00    +0.108 C 
ATOM      2  C   UNL     1       2.663   3.276   1.216  0.00  0.00    +0.029 C 
ATOM      3  C   UNL     1       4.119   3.709   1.425  0.00  0.00    +0.033 C 
ATOM      4  C   UNL     1       4.832   2.357   1.494  0.00  0.00    -0.030 C 
ATOM      5  C   UNL     1       4.137   1.444   0.823  0.00  0.00    -0.023 C 
ATOM      6  C   UNL     1       2.946   2.100   0.230  0.00  0.00    +0.049 C 
ATOM      7  C   UNL     1       1.661   1.395   0.030  0.00  0.00    -0.019 A 
ATOM      8  C   UNL     1       1.607   0.035  -0.185  0.00  0.00    +0.006 A 
ATOM      9  C   UNL     1       0.395  -0.604  -0.389  0.00  0.00    +0.001 A 
ATOM     10  C   UNL     1      -0.774   0.126  -0.385  0.00  0.00    +0.015 A 
ATOM     11  C   UNL     1      -0.738   1.502  -0.169  0.00  0.00    +0.058 A 
ATOM     12  C   UNL     1       0.490   2.158   0.056  0.00  0.00    +0.044 A 
ATOM     13  N   UNL     1       0.440   3.495   0.335  0.00  0.00    -0.336 N 
ATOM     14  H   UNL     1      -0.501   4.048   0.467  0.00  0.00    +0.147 HD
ENDROOT
BRANCH  11  15
ATOM     15  C   UNL     1      -1.991   2.278  -0.180  0.00  0.00    +0.248 C 
ATOM     16  O   UNL     1      -2.324   2.911   0.803  0.00  0.00    -0.270 OA
ATOM     17  N   UNL     1      -2.769   2.286  -1.281  0.00  0.00    -0.297 N 
ATOM     18  C   UNL     1      -2.290   1.622  -2.473  0.00  0.00    +0.108 C 
ATOM     19  C   UNL     1      -1.470   2.608  -3.330  0.00  0.00    +0.019 C 
ATOM     20  C   UNL     1      -2.356   3.607  -3.948  0.00  0.00    +0.002 C 
ATOM     21  C   UNL     1      -3.094   4.494  -2.950  0.00  0.00    +0.002 C 
ATOM     22  C   UNL     1      -4.352   3.796  -2.495  0.00  0.00    +0.019 C 
ATOM     23  C   UNL     1      -4.072   2.977  -1.222  0.00  0.00    +0.108 C 
ENDBRANCH  11  15
BRANCH   1  28
ATOM     24  C   UNL     1       2.445   3.954  -3.241  0.00  0.00    +0.001 A 
ATOM     25  C   UNL     1       3.321   5.008  -3.426  0.00  0.00    +0.004 A 
ATOM     26  C   UNL     1       3.683   5.802  -2.355  0.00  0.00    +0.046 A 
ATOM     27  C   UNL     1       3.168   5.540  -1.093  0.00  0.00    +0.122 A 
ATOM     28  C   UNL     1       2.290   4.482  -0.911  0.00  0.00    +0.014 A 
ATOM     29  C   UNL     1       1.934   3.688  -1.985  0.00  0.00    +0.009 A 
BRANCH  27  30
ATOM     30  O   UNL     1       3.523   6.319  -0.038  0.00  0.00    -0.506 OA
ATOM     31  H   UNL     1       3.114   6.111   0.962  0.00  0.00    +0.292 HD
ENDBRANCH  27  30
ENDBRANCH   1  28
TORSDOF 3
