REMARK  Name = ZINC33535718
REMARK  14 active torsions:
REMARK  status: ('A' for Active; 'I' for Inactive)
REMARK    1  A    between atoms: C_1  and  C_2
REMARK    2  A    between atoms: C_3  and  C_37
REMARK    3  A    between atoms: C_5  and  C_21
REMARK    4  A    between atoms: N_6  and  C_7
REMARK    5  A    between atoms: C_7  and  C_8
REMARK    6  A    between atoms: C_8  and  C_9
REMARK    7  A    between atoms: C_9  and  C_10
REMARK    8  A    between atoms: C_10  and  C_11
REMARK    9  A    between atoms: C_11  and  C_13
REMARK   10  A    between atoms: C_11  and  N_17
REMARK   11  A    between atoms: C_13  and  O_15
REMARK   12  A    between atoms: O_15  and  C_16
REMARK   13  A    between atoms: C_18  and  C_20
REMARK   14  A    between atoms: C_24  and  C_26
REMARK                            x       y       z     vdW  Elec       q    Type
REMARK                         _______ _______ _______ _____ _____    ______ ____
ROOT
ATOM      1  C   UNL     1      -2.926   0.537   8.103  0.00  0.00    +0.064 C 
ATOM      2  C   UNL     1      -2.585   0.322   6.651  0.00  0.00    +0.028 A 
ATOM      3  C   UNL     1      -2.199  -0.872   6.081  0.00  0.00    +0.058 A 
ATOM      4  C   UNL     1      -1.978  -0.619   4.701  0.00  0.00    +0.042 A 
ATOM      5  C   UNL     1      -2.234   0.698   4.491  0.00  0.00    +0.069 A 
ATOM      6  N   UNL     1      -2.599   1.266   5.686  0.00  0.00    -0.342 N 
ENDROOT
BRANCH   5   7
ATOM      7  C   UNL     1      -2.131   1.403   3.194  0.00  0.00    +0.095 A 
ATOM      8  C   UNL     1      -2.537   2.705   3.063  0.00  0.00    +0.076 A 
ATOM      9  S   UNL     1      -2.173   2.991   1.337  0.00  0.00    -0.076 S 
ATOM     10  C   UNL     1      -1.552   1.412   0.970  0.00  0.00    +0.123 A 
ATOM     11  N   UNL     1      -1.645   0.795   2.122  0.00  0.00    -0.239 NA
BRANCH  10  12
ATOM     12  C   UNL     1      -1.029   0.886  -0.342  0.00  0.00    +0.266 C 
ATOM     13  C   UNL     1       0.357   1.480  -0.624  0.00  0.00    +0.280 C 
ATOM     14  O   UNL     1       0.817   0.971  -1.880  0.00  0.00    -0.484 OA
ATOM     15  C   UNL     1      -0.072   0.990  -2.910  0.00  0.00    +0.162 A 
ATOM     16  C   UNL     1       0.390   0.859  -4.211  0.00  0.00    +0.049 A 
ATOM     17  C   UNL     1      -0.501   0.874  -5.267  0.00  0.00    +0.004 A 
ATOM     18  C   UNL     1      -1.856   1.018  -5.030  0.00  0.00    +0.004 A 
ATOM     19  C   UNL     1      -2.323   1.150  -3.736  0.00  0.00    +0.049 A 
ATOM     20  C   UNL     1      -1.434   1.138  -2.672  0.00  0.00    +0.163 A 
ATOM     21  O   UNL     1      -1.908   1.275  -1.404  0.00  0.00    -0.475 OA
ENDBRANCH  10  12
ENDBRANCH   5   7
BRANCH   3  22
ATOM     22  C   UNL     1      -2.045  -2.164   6.771  0.00  0.00    +0.243 C 
ATOM     23  O   UNL     1      -2.268  -2.246   7.964  0.00  0.00    -0.270 OA
ATOM     24  N   UNL     1      -1.658  -3.255   6.080  0.00  0.00    -0.325 N 
ATOM     25  H   UNL     1      -1.543  -4.220   6.596  0.00  0.00    +0.145 HD
ATOM     26  H   UNL     1      -1.457  -3.180   5.002  0.00  0.00    +0.145 HD
ENDBRANCH   3  22
BRANCH   6  27
ATOM     27  C   UNL     1      -2.952   2.674   5.883  0.00  0.00    +0.122 C 
BRANCH  27  28
ATOM     28  C   UNL     1      -4.426   2.884   5.534  0.00  0.00    +0.022 C 
BRANCH  28  29
ATOM     29  C   UNL     1      -4.795   4.354   5.740  0.00  0.00    +0.004 C 
BRANCH  29  30
ATOM     30  C   UNL     1      -6.269   4.564   5.391  0.00  0.00    +0.034 C 
BRANCH  30  31
ATOM     31  C   UNL     1      -6.638   6.035   5.596  0.00  0.00    +0.182 C 
BRANCH  31  32
ATOM     32  N   UNL     1      -6.524   6.373   7.018  0.00  0.00    -0.303 N 
ATOM     33  C   UNL     1      -6.300   7.648   7.391  0.00  0.00    +0.211 C 
ATOM     34  O   UNL     1      -6.191   8.516   6.551  0.00  0.00    -0.276 OA
ATOM     35  C   UNL     1      -6.183   7.996   8.853  0.00  0.00    +0.109 C 
ATOM     36  H   UNL     1      -6.622   5.586   7.779  0.00  0.00    +0.149 HD
ENDBRANCH  31  32
BRANCH  31  37
ATOM     37  C   UNL     1      -8.054   6.267   5.137  0.00  0.00    +0.327 C 
ATOM     38  O   UNL     1      -8.883   6.673   5.916  0.00  0.00    -0.249 OA
BRANCH  37  39
ATOM     39  O   UNL     1      -8.394   6.023   3.861  0.00  0.00    -0.467 OA
ATOM     40  C   UNL     1      -9.776   6.269   3.489  0.00  0.00    +0.280 C 
ENDBRANCH  37  39
ENDBRANCH  31  37
ENDBRANCH  30  31
ENDBRANCH  29  30
ENDBRANCH  28  29
ENDBRANCH  27  28
ENDBRANCH   6  27
TORSDOF 11
