REMARK  Name = ZINC35664212
REMARK  11 active torsions:
REMARK  status: ('A' for Active; 'I' for Inactive)
REMARK    1  A    between atoms: C_1  and  C_2
REMARK    2  A    between atoms: C_2  and  N_3
REMARK    3  A    between atoms: C_4  and  C_23
REMARK    4  A    between atoms: C_5  and  C_18
REMARK    5  A    between atoms: C_6  and  C_11
REMARK    6  A    between atoms: C_18  and  O_20
REMARK    7  A    between atoms: O_20  and  C_21
REMARK    8  A    between atoms: C_21  and  C_22
REMARK    9  A    between atoms: C_23  and  N_24
REMARK   10  A    between atoms: C_31  and  C_33
REMARK   11  A    between atoms: C_36  and  C_39
REMARK                            x       y       z     vdW  Elec       q    Type
REMARK                         _______ _______ _______ _____ _____    ______ ____
ROOT
ATOM      1  N   UNL     1      -2.224  -0.116  -0.022  0.00  0.00    -0.261 N 
ATOM      2  C   UNL     1      -2.292  -0.922   1.078  0.00  0.00    +0.010 C 
ATOM      3  C   UNL     1      -3.100  -2.004   1.100  0.00  0.00    +0.076 C 
ATOM      4  C   UNL     1      -3.928  -2.291  -0.136  0.00  0.00    +0.144 C 
ATOM      5  N   UNL     1      -3.783  -1.361  -1.268  0.00  0.00    -0.288 N 
ATOM      6  C   UNL     1      -2.937  -0.320  -1.138  0.00  0.00    +0.307 C 
ATOM      7  O   UNL     1      -2.812   0.456  -2.065  0.00  0.00    -0.252 OA
ATOM      8  H   UNL     1      -4.287  -1.492  -2.086  0.00  0.00    +0.151 HD
ENDROOT
BRANCH   4   9
ATOM      9  C   UNL     1      -3.573  -3.673  -0.622  0.00  0.00    -0.020 A 
ATOM     10  C   UNL     1      -2.421  -3.870  -1.361  0.00  0.00    +0.006 A 
ATOM     11  C   UNL     1      -2.093  -5.136  -1.807  0.00  0.00    +0.003 A 
ATOM     12  C   UNL     1      -2.918  -6.207  -1.517  0.00  0.00    +0.038 A 
ATOM     13  C   UNL     1      -4.072  -6.011  -0.778  0.00  0.00    +0.124 A 
ATOM     14  C   UNL     1      -4.396  -4.742  -0.326  0.00  0.00    +0.044 A 
ATOM     15  F   UNL     1      -4.879  -7.056  -0.494  0.00  0.00    -0.205 F 
ENDBRANCH   4   9
BRANCH   1  17
ATOM     16  C   UNL     1      -2.113   2.280   0.455  0.00  0.00    +0.025 C 
ATOM     17  C   UNL     1      -1.327   1.041   0.023  0.00  0.00    +0.111 C 
ENDBRANCH   1  17
BRANCH   3  18
ATOM     18  C   UNL     1      -3.171  -2.841   2.239  0.00  0.00    +0.339 C 
ATOM     19  O   UNL     1      -2.552  -2.551   3.246  0.00  0.00    -0.245 OA
BRANCH  18  20
ATOM     20  O   UNL     1      -3.924  -3.960   2.208  0.00  0.00    -0.462 OA
BRANCH  20  21
ATOM     21  C   UNL     1      -3.949  -4.758   3.393  0.00  0.00    +0.229 C 
ATOM     22  C   UNL     1      -4.848  -5.975   3.169  0.00  0.00    +0.048 C 
ENDBRANCH  20  21
ENDBRANCH  18  20
ENDBRANCH   3  18
BRANCH   2  23
ATOM     23  C   UNL     1      -1.451  -0.600   2.286  0.00  0.00    -0.026 C 
BRANCH  23  24
ATOM     24  N   UNL     1      -0.246  -1.440   2.283  0.00  0.00    +0.384 N 
ATOM     25  C   UNL     1       0.433  -1.278   3.566  0.00  0.00    -0.077 C 
ATOM     26  C   UNL     1       1.179  -2.550   3.901  0.00  0.00    +0.000 C 
ATOM     27  C   UNL     1       2.632  -2.438   3.405  0.00  0.00    +0.106 C 
ATOM     28  N   UNL     1       2.693  -1.773   2.088  0.00  0.00    -0.299 N 
ATOM     29  C   UNL     1       1.742  -2.054   1.032  0.00  0.00    +0.089 C 
ATOM     30  C   UNL     1       0.529  -1.103   1.151  0.00  0.00    -0.059 C 
ATOM     31  C   UNL     1       3.669  -0.871   1.861  0.00  0.00    +0.247 C 
ATOM     32  O   UNL     1       3.677  -0.232   0.826  0.00  0.00    -0.270 OA
ATOM     33  H   UNL     1      -0.533  -2.404   2.196  0.00  0.00    -0.081 HD
BRANCH  31  34
ATOM     34  C   UNL     1       4.729  -0.658   2.869  0.00  0.00    +0.037 A 
ATOM     35  C   UNL     1       5.213  -1.734   3.615  0.00  0.00    +0.013 A 
ATOM     36  C   UNL     1       6.202  -1.530   4.554  0.00  0.00    +0.004 A 
ATOM     37  C   UNL     1       6.714  -0.260   4.758  0.00  0.00    -0.050 A 
ATOM     38  C   UNL     1       6.238   0.811   4.023  0.00  0.00    +0.004 A 
ATOM     39  C   UNL     1       5.253   0.618   3.076  0.00  0.00    +0.013 A 
ATOM     40  C   UNL     1       7.794  -0.044   5.787  0.00  0.00    +0.044 C 
ENDBRANCH  31  34
ENDBRANCH  23  24
ENDBRANCH   2  23
TORSDOF 8
