REMARK  Name = ZINC65347159
REMARK  3 active torsions:
REMARK  status: ('A' for Active; 'I' for Inactive)
REMARK    1  A    between atoms: C_3  and  C_17
REMARK    2  A    between atoms: C_5  and  C_7
REMARK    3  A    between atoms: C_9  and  C_14
REMARK                            x       y       z     vdW  Elec       q    Type
REMARK                         _______ _______ _______ _____ _____    ______ ____
ROOT
ATOM      1  C   UNL     1       1.235  -2.171  -0.022  0.00  0.00    +0.047 A 
ATOM      2  C   UNL     1       0.746  -2.882   1.056  0.00  0.00    +0.030 A 
ATOM      3  C   UNL     1       0.779  -4.296   1.010  0.00  0.00    +0.080 A 
ATOM      4  C   UNL     1       1.297  -4.931  -0.104  0.00  0.00    +0.101 A 
ATOM      5  N   UNL     1       1.769  -4.222  -1.144  0.00  0.00    -0.328 N 
ATOM      6  C   UNL     1       1.749  -2.877  -1.140  0.00  0.00    +0.256 A 
ATOM      7  O   UNL     1       2.179  -2.262  -2.100  0.00  0.00    -0.267 OA
ATOM      8  H   UNL     1       2.128  -4.690  -1.914  0.00  0.00    +0.168 HD
ENDROOT
BRANCH   1  13
ATOM      9  C   UNL     1      -0.017   1.377   0.010  0.00  0.00    +0.002 A 
ATOM     10  C   UNL     1       1.166   2.089   0.002  0.00  0.00    +0.019 A 
ATOM     11  C   UNL     1       2.390   1.416  -0.014  0.00  0.00    +0.052 A 
ATOM     12  C   UNL     1       2.414   0.022  -0.021  0.00  0.00    +0.027 A 
ATOM     13  C   UNL     1       1.218  -0.689  -0.013  0.00  0.00    -0.011 A 
ATOM     14  C   UNL     1       0.002  -0.004   0.002  0.00  0.00    +0.009 A 
BRANCH  11  15
ATOM     15  C   UNL     1       3.616   2.155  -0.022  0.00  0.00    +0.099 C 
ATOM     16  N   UNL     1       4.589   2.742  -0.029  0.00  0.00    -0.191 NA
ENDBRANCH  11  15
ENDBRANCH   1  13
BRANCH   3  17
ATOM     17  C   UNL     1       0.267  -5.085   2.141  0.00  0.00    +0.388 C 
ATOM     18  O   UNL     1       0.297  -6.308   2.097  0.00  0.00    -0.241 OA
ATOM     19  O   UNL     1      -0.191  -4.519   3.125  0.00  0.00    -0.241 OA
ENDBRANCH   3  17
TORSDOF 3
