REMARK  Name = ZINC39133389
REMARK  3 active torsions:
REMARK  status: ('A' for Active; 'I' for Inactive)
REMARK    1  A    between atoms: C_9  and  C_10
REMARK    2  A    between atoms: C_12  and  C_23
REMARK    3  A    between atoms: C_14  and  C_16
REMARK                            x       y       z     vdW  Elec       q    Type
REMARK                         _______ _______ _______ _____ _____    ______ ____
ROOT
ATOM      1  C   UNL     1      -1.303  -0.758   0.011  0.00  0.00    +0.147 C 
ATOM      2  C   UNL     1      -1.878  -0.790   1.409  0.00  0.00    +0.069 C 
ATOM      3  C   UNL     1      -3.070  -0.164   1.333  0.00  0.00    +0.040 C 
ATOM      4  C   UNL     1      -3.296   0.273  -0.054  0.00  0.00    +0.062 C 
ATOM      5  N   UNL     1      -2.297  -0.061  -0.814  0.00  0.00    -0.372 N 
ATOM      6  H   UNL     1      -2.220   0.120  -1.764  0.00  0.00    +0.161 HD
ENDROOT
BRANCH   1  15
ATOM      7  C   UNL     1      -0.017   1.384   0.010  0.00  0.00    +0.007 A 
ATOM      8  C   UNL     1       1.176   2.081   0.002  0.00  0.00    +0.016 A 
ATOM      9  C   UNL     1       2.367   1.388  -0.013  0.00  0.00    +0.019 A 
ATOM     10  C   UNL     1       2.414  -0.024  -0.021  0.00  0.00    -0.010 A 
ATOM     11  C   UNL     1       3.756  -0.586  -0.037  0.00  0.00    +0.016 A 
ATOM     12  C   UNL     1       4.813   0.239  -0.043  0.00  0.00    +0.046 A 
ATOM     13  S   UNL     1       4.076   1.862  -0.027  0.00  0.00    -0.097 S 
ATOM     14  C   UNL     1       1.171  -0.699  -0.013  0.00  0.00    +0.015 A 
ATOM     15  C   UNL     1       0.002  -0.004   0.002  0.00  0.00    -0.020 A 
ENDBRANCH   1  15
BRANCH   4  16
ATOM     16  C   UNL     1      -4.504   0.997  -0.523  0.00  0.00    +0.092 A 
ATOM     17  C   UNL     1      -4.633   1.368  -1.863  0.00  0.00    +0.049 A 
ATOM     18  C   UNL     1      -5.779   2.042  -2.253  0.00  0.00    +0.116 A 
ATOM     19  N   UNL     1      -6.709   2.312  -1.353  0.00  0.00    -0.223 NA
ATOM     20  C   UNL     1      -6.559   1.948  -0.087  0.00  0.00    +0.213 A 
ATOM     21  N   UNL     1      -5.483   1.299   0.327  0.00  0.00    -0.213 NA
ATOM     22  N   UNL     1      -7.556   2.251   0.824  0.00  0.00    -0.327 N 
ATOM     23  H   UNL     1      -8.351   2.724   0.533  0.00  0.00    +0.145 HD
ATOM     24  H   UNL     1      -7.459   1.990   1.753  0.00  0.00    +0.145 HD
ENDBRANCH   4  16
BRANCH   2  25
ATOM     25  C   UNL     1      -1.265  -1.381   2.605  0.00  0.00    +0.385 C 
ATOM     26  O   UNL     1      -1.849  -1.333   3.679  0.00  0.00    -0.241 OA
ATOM     27  O   UNL     1      -0.170  -1.921   2.527  0.00  0.00    -0.241 OA
ENDBRANCH   2  25
TORSDOF 3
