REMARK  Name = ZINC39710496
REMARK  13 active torsions:
REMARK  status: ('A' for Active; 'I' for Inactive)
REMARK    1  A    between atoms: C_1  and  C_2
REMARK    2  A    between atoms: C_2  and  C_3
REMARK    3  A    between atoms: C_10  and  C_15
REMARK    4  A    between atoms: C_15  and  C_17
REMARK    5  A    between atoms: C_15  and  N_27
REMARK    6  A    between atoms: N_22  and  C_23
REMARK    7  A    between atoms: C_23  and  C_24
REMARK    8  A    between atoms: C_23  and  C_25
REMARK    9  A    between atoms: C_23  and  C_26
REMARK   10  A    between atoms: C_30  and  C_33
REMARK   11  A    between atoms: C_33  and  O_35
REMARK   12  A    between atoms: O_35  and  C_36
REMARK   13  A    between atoms: C_36  and  C_37
REMARK                            x       y       z     vdW  Elec       q    Type
REMARK                         _______ _______ _______ _____ _____    ______ ____
ROOT
ATOM      1  C   UNL     1       5.375  -3.216  -3.436  0.00  0.00    -0.010 C 
ENDROOT
BRANCH   1   9
ATOM      2  C   UNL     1       1.012  -0.048  -1.206  0.00  0.00    -0.047 A 
ATOM      3  C   UNL     1       0.321  -0.057  -2.418  0.00  0.00    +0.005 A 
ATOM      4  C   UNL     1       0.890  -0.466  -3.583  0.00  0.00    +0.024 A 
ATOM      5  C   UNL     1       2.227  -0.905  -3.609  0.00  0.00    +0.040 A 
ATOM      6  N   UNL     1       2.774  -1.304  -4.757  0.00  0.00    -0.285 N 
ATOM      7  C   UNL     1       4.023  -1.728  -4.852  0.00  0.00    +0.223 C 
ATOM      8  O   UNL     1       4.468  -2.079  -5.928  0.00  0.00    -0.275 OA
ATOM      9  C   UNL     1       4.896  -1.774  -3.618  0.00  0.00    +0.088 C 
ATOM     10  C   UNL     1       4.278  -1.322  -2.310  0.00  0.00    -0.006 C 
ATOM     11  C   UNL     1       2.980  -0.906  -2.343  0.00  0.00    -0.007 A 
ATOM     12  C   UNL     1       2.307  -0.448  -1.127  0.00  0.00    +0.013 A 
ATOM     13  H   UNL     1       2.231  -1.282  -5.560  0.00  0.00    +0.155 HD
BRANCH   2  15
ATOM     14  C   UNL     1       0.501   1.931   0.198  0.00  0.00    +0.009 C 
ATOM     15  C   UNL     1       0.307   0.422   0.040  0.00  0.00    +0.032 C 
ENDBRANCH   2  15
ENDBRANCH   1   9
BRANCH   1  16
ATOM     16  N   UNL     1       6.138  -3.632  -4.621  0.00  0.00    +0.385 N 
ATOM     17  C   UNL     1       6.696  -4.971  -4.396  0.00  0.00    -0.077 C 
ATOM     18  C   UNL     1       7.423  -5.442  -5.657  0.00  0.00    -0.004 C 
ATOM     19  C   UNL     1       8.555  -4.464  -5.984  0.00  0.00    +0.094 C 
ATOM     20  C   UNL     1       7.970  -3.057  -6.142  0.00  0.00    -0.004 C 
ATOM     21  C   UNL     1       7.223  -2.674  -4.863  0.00  0.00    -0.077 C 
ATOM     22  H   UNL     1       5.525  -3.655  -5.422  0.00  0.00    -0.081 HD
BRANCH  19  23
ATOM     23  C   UNL     1       9.225  -4.879  -7.268  0.00  0.00    +0.310 C 
ATOM     24  O   UNL     1       8.839  -5.857  -7.862  0.00  0.00    -0.251 OA
BRANCH  23  25
ATOM     25  O   UNL     1      10.252  -4.162  -7.751  0.00  0.00    -0.465 OA
BRANCH  25  26
ATOM     26  C   UNL     1      10.840  -4.613  -8.973  0.00  0.00    +0.229 C 
ATOM     27  C   UNL     1      11.986  -3.677  -9.364  0.00  0.00    +0.048 C 
ENDBRANCH  25  26
ENDBRANCH  23  25
ENDBRANCH  19  23
ENDBRANCH   1  16
BRANCH   1  28
ATOM     28  C   UNL     1       4.166  -4.137  -3.258  0.00  0.00    +0.205 C 
ATOM     29  N   UNL     1       3.255  -4.014  -4.404  0.00  0.00    -0.152 NA
ATOM     30  N   UNL     1       2.163  -3.607  -4.004  0.00  0.00    -0.070 NA
ATOM     31  N   UNL     1       2.135  -3.397  -2.625  0.00  0.00    -0.179 N 
ATOM     32  N   UNL     1       3.361  -3.712  -2.094  0.00  0.00    -0.183 NA
ATOM     33  H   UNL     1       1.369  -3.079  -2.121  0.00  0.00    +0.191 HD
BRANCH  32  34
ATOM     34  C   UNL     1       3.248  -4.795  -1.109  0.00  0.00    +0.035 C 
ATOM     35  C   UNL     1       4.644  -5.189  -0.622  0.00  0.00    +0.029 C 
ATOM     36  C   UNL     1       2.409  -4.319   0.079  0.00  0.00    +0.029 C 
ATOM     37  C   UNL     1       2.573  -6.006  -1.756  0.00  0.00    +0.029 C 
ENDBRANCH  32  34
ENDBRANCH   1  28
TORSDOF 8
