REMARK  Name = ZINC54624404
REMARK  13 active torsions:
REMARK  status: ('A' for Active; 'I' for Inactive)
REMARK    1  A    between atoms: C_1  and  C_2
REMARK    2  A    between atoms: C_2  and  C_3
REMARK    3  A    between atoms: C_3  and  O_4
REMARK    4  A    between atoms: O_4  and  C_5
REMARK    5  A    between atoms: C_10  and  C_11
REMARK    6  A    between atoms: C_13  and  C_31
REMARK    7  A    between atoms: C_14  and  C_30
REMARK    8  A    between atoms: C_19  and  S_21
REMARK    9  A    between atoms: S_21  and  C_22
REMARK   10  A    between atoms: C_22  and  C_23
REMARK   11  A    between atoms: C_31  and  O_33
REMARK   12  A    between atoms: O_33  and  C_34
REMARK   13  A    between atoms: C_34  and  C_35
REMARK                            x       y       z     vdW  Elec       q    Type
REMARK                         _______ _______ _______ _____ _____    ______ ____
ROOT
ATOM      1  C   UNL     1      -1.333  -4.798   0.085  0.00  0.00    +0.182 C 
ATOM      2  C   UNL     1      -1.169  -5.608  -1.173  0.00  0.00    +0.082 C 
ATOM      3  C   UNL     1      -1.402  -6.929  -1.229  0.00  0.00    +0.020 C 
ATOM      4  N   UNL     1      -1.800  -7.649  -0.131  0.00  0.00    -0.287 N 
ATOM      5  C   UNL     1      -1.703  -7.029   1.108  0.00  0.00    +0.219 A 
ATOM      6  N   UNL     1      -1.480  -5.697   1.226  0.00  0.00    -0.220 N 
ATOM      7  N   UNL     1      -1.433  -5.419   2.592  0.00  0.00    -0.141 NA
ATOM      8  C   UNL     1      -1.629  -6.560   3.217  0.00  0.00    +0.211 A 
ATOM      9  N   UNL     1      -1.794  -7.534   2.309  0.00  0.00    -0.187 NA
ATOM     10  C   UNL     1      -1.222  -7.645  -2.543  0.00  0.00    +0.061 C 
ATOM     11  H   UNL     1      -2.135  -8.555  -0.216  0.00  0.00    +0.155 HD
ENDROOT
BRANCH   1  17
ATOM     12  C   UNL     1      -2.442  -2.550   0.049  0.00  0.00    +0.126 A 
ATOM     13  C   UNL     1      -3.572  -1.753  -0.065  0.00  0.00    +0.046 A 
ATOM     14  C   UNL     1      -4.811  -2.335  -0.253  0.00  0.00    +0.004 A 
ATOM     15  C   UNL     1      -4.925  -3.711  -0.328  0.00  0.00    +0.001 A 
ATOM     16  C   UNL     1      -3.800  -4.507  -0.215  0.00  0.00    +0.009 A 
ATOM     17  C   UNL     1      -2.559  -3.930  -0.032  0.00  0.00    +0.023 A 
BRANCH  12  18
ATOM     18  O   UNL     1      -1.223  -1.979   0.234  0.00  0.00    -0.492 OA
BRANCH  18  19
ATOM     19  C   UNL     1      -1.178  -0.553   0.308  0.00  0.00    +0.229 C 
BRANCH  19  21
ATOM     20  C   UNL     1       0.315   1.429   0.595  0.00  0.00    +0.007 C 
ATOM     21  C   UNL     1       0.268  -0.098   0.516  0.00  0.00    +0.038 C 
ENDBRANCH  19  21
ENDBRANCH  18  19
ENDBRANCH  12  18
ENDBRANCH   1  17
BRANCH   2  22
ATOM     22  C   UNL     1      -0.752  -4.948  -2.350  0.00  0.00    +0.339 C 
ATOM     23  O   UNL     1       0.427  -4.705  -2.526  0.00  0.00    -0.245 OA
BRANCH  22  24
ATOM     24  O   UNL     1      -1.661  -4.586  -3.280  0.00  0.00    -0.462 OA
BRANCH  24  25
ATOM     25  C   UNL     1      -1.169  -3.922  -4.445  0.00  0.00    +0.229 C 
ATOM     26  C   UNL     1      -2.337  -3.593  -5.377  0.00  0.00    +0.048 C 
ENDBRANCH  24  25
ENDBRANCH  22  24
ENDBRANCH   2  22
BRANCH   8  27
ATOM     27  S   UNL     1      -1.668  -6.775   4.965  0.00  0.00    -0.080 S 
BRANCH  27  28
ATOM     28  C   UNL     1      -1.972  -8.550   5.183  0.00  0.00    +0.114 C 
BRANCH  28  29
ATOM     29  C   UNL     1      -2.030  -8.874   6.654  0.00  0.00    -0.019 A 
ATOM     30  C   UNL     1      -0.875  -9.218   7.331  0.00  0.00    +0.006 A 
ATOM     31  C   UNL     1      -0.928  -9.515   8.680  0.00  0.00    +0.000 A 
ATOM     32  C   UNL     1      -2.135  -9.467   9.353  0.00  0.00    +0.001 A 
ATOM     33  C   UNL     1      -3.290  -9.123   8.676  0.00  0.00    +0.020 A 
ATOM     34  C   UNL     1      -3.237  -8.820   7.327  0.00  0.00    +0.045 A 
ATOM     35 CL   UNL     1      -4.686  -8.381   6.478  0.00  0.00    -0.083 Cl
ENDBRANCH  28  29
ENDBRANCH  27  28
ENDBRANCH   8  27
TORSDOF 10
