REMARK  Name = ZINC22854919
REMARK  9 active torsions:
REMARK  status: ('A' for Active; 'I' for Inactive)
REMARK    1  A    between atoms: C_1  and  C_2
REMARK    2  A    between atoms: C_2  and  C_3
REMARK    3  A    between atoms: C_6  and  C_9
REMARK    4  A    between atoms: C_9  and  C_11
REMARK    5  A    between atoms: C_9  and  N_22
REMARK    6  A    between atoms: C_12  and  O_21
REMARK    7  A    between atoms: C_17  and  C_19
REMARK    8  A    between atoms: C_19  and  C_20
REMARK    9  A    between atoms: N_25  and  C_28
REMARK                            x       y       z     vdW  Elec       q    Type
REMARK                         _______ _______ _______ _____ _____    ______ ____
ROOT
ATOM      1  C   UNL     1       1.669   7.546  -1.035  0.00  0.00    +0.129 C 
ENDROOT
BRANCH   1   2
ATOM      2  C   UNL     1       1.003   7.937   0.260  0.00  0.00    +0.076 A 
ATOM      3  C   UNL     1       1.322   8.918   1.111  0.00  0.00    +0.228 A 
ATOM      4  N   UNL     1       0.583   9.124   2.252  0.00  0.00    -0.173 N 
ATOM      5  C   UNL     1      -0.466   8.285   2.474  0.00  0.00    +0.199 A 
ATOM      6  S   UNL     1      -0.415   7.206   1.064  0.00  0.00    -0.047 S 
ATOM      7  N   UNL     1      -1.056   8.609   3.593  0.00  0.00    -0.205 NA
ATOM      8  C   UNL     1      -0.428   9.650   4.135  0.00  0.00    +0.152 A 
ATOM      9  N   UNL     1       0.568  10.001   3.367  0.00  0.00    -0.147 NA
BRANCH   8  10
ATOM     10  C   UNL     1      -0.808  10.319   5.431  0.00  0.00    +0.075 C 
ATOM     11  C   UNL     1      -1.807  11.444   5.152  0.00  0.00    +0.012 C 
ENDBRANCH   8  10
BRANCH   3  12
ATOM     12  O   UNL     1       2.386   9.723   0.844  0.00  0.00    -0.492 OA
ATOM     13  H   UNL     1       2.653  10.531   1.540  0.00  0.00    +0.294 HD
ENDBRANCH   3  12
ENDBRANCH   1   2
BRANCH   1  17
ATOM     14  C   UNL     1      -0.749   8.817  -4.320  0.00  0.00    -0.048 A 
ATOM     15  C   UNL     1       0.423   9.488  -4.024  0.00  0.00    +0.004 A 
ATOM     16  C   UNL     1       1.205   9.077  -2.961  0.00  0.00    +0.006 A 
ATOM     17  C   UNL     1       0.816   7.995  -2.193  0.00  0.00    -0.025 A 
ATOM     18  C   UNL     1      -0.353   7.320  -2.493  0.00  0.00    +0.006 A 
ATOM     19  C   UNL     1      -1.138   7.735  -3.553  0.00  0.00    +0.004 A 
BRANCH  14  21
ATOM     20  C   UNL     1      -1.162   8.532  -6.748  0.00  0.00    +0.009 C 
ATOM     21  C   UNL     1      -1.601   9.265  -5.479  0.00  0.00    +0.032 C 
ENDBRANCH  14  21
ENDBRANCH   1  17
BRANCH   1  22
ATOM     22  N   UNL     1       1.830   6.087  -1.082  0.00  0.00    -0.288 NA
ATOM     23  C   UNL     1       2.530   5.674  -2.306  0.00  0.00    +0.104 C 
ATOM     24  C   UNL     1       2.607   4.146  -2.355  0.00  0.00    +0.120 C 
ATOM     25  N   UNL     1       3.308   3.655  -1.161  0.00  0.00    -0.327 N 
ATOM     26  C   UNL     1       2.609   4.069   0.064  0.00  0.00    +0.120 C 
ATOM     27  C   UNL     1       2.531   5.596   0.113  0.00  0.00    +0.104 C 
BRANCH  25  28
ATOM     28  C   UNL     1       3.462   2.266  -1.205  0.00  0.00    +0.030 A 
ATOM     29  C   UNL     1       4.103   1.604  -0.166  0.00  0.00    +0.026 A 
ATOM     30  C   UNL     1       4.253   0.232  -0.212  0.00  0.00    +0.040 A 
ATOM     31  C   UNL     1       3.766  -0.483  -1.293  0.00  0.00    +0.124 A 
ATOM     32  C   UNL     1       3.128   0.175  -2.330  0.00  0.00    +0.040 A 
ATOM     33  C   UNL     1       2.975   1.547  -2.289  0.00  0.00    +0.026 A 
ATOM     34  F   UNL     1       3.915  -1.825  -1.336  0.00  0.00    -0.205 F 
ENDBRANCH  25  28
ENDBRANCH   1  22
TORSDOF 7
