REMARK  Name = ZINC13634794
REMARK  3 active torsions:
REMARK  status: ('A' for Active; 'I' for Inactive)
REMARK    1  A    between atoms: C_3  and  N_21
REMARK    2  A    between atoms: C_6  and  C_7
REMARK    3  A    between atoms: CA_10  and  C_19
REMARK                            x       y       z     vdW  Elec       q    Type
REMARK                         _______ _______ _______ _____ _____    ______ ____
ROOT
ATOM      1  C   UNL     1      -3.972   4.636   3.322  0.00  0.00    +0.019 A 
ATOM      2  C   UNL     1      -4.086   4.894   1.973  0.00  0.00    +0.034 A 
ATOM      3  C   UNL     1      -3.065   4.528   1.112  0.00  0.00    +0.132 A 
ATOM      4  C   UNL     1      -1.931   3.904   1.585  0.00  0.00    +0.012 A 
ATOM      5  C   UNL     1      -1.794   3.615   2.946  0.00  0.00    +0.048 A 
ATOM      6  C   UNL     1      -2.834   4.002   3.818  0.00  0.00    +0.084 A 
ATOM      7  N   UNL     1      -0.712   2.950   3.495  0.00  0.00    -0.330 N 
ATOM      8  CA  UNL     1       0.401   2.625   2.588  0.00  0.00    +0.189 C 
ATOM      9  C   UNL     1      -0.209   2.206   1.268  0.00  0.00    +0.035 C 
ATOM     10  C   UNL     1      -0.823   3.518   0.684  0.00  0.00    +0.051 C 
ATOM     11  C   UNL     1      -1.032   3.184  -0.746  0.00  0.00    -0.023 C 
ATOM     12  C   UNL     1      -0.133   2.273  -1.102  0.00  0.00    -0.030 C 
ATOM     13  C   UNL     1       0.736   1.898   0.101  0.00  0.00    +0.033 C 
ATOM     14  H   UNL     1      -1.011   2.134   4.008  0.00  0.00    +0.147 HD
ENDROOT
BRANCH   6  15
ATOM     15  C   UNL     1      -2.716   3.735   5.261  0.00  0.00    +0.388 C 
ATOM     16  O   UNL     1      -1.726   3.182   5.698  0.00  0.00    -0.241 OA
ATOM     17  O   UNL     1      -3.706   4.103   6.098  0.00  0.00    -0.241 OA
ENDBRANCH   6  15
BRANCH   8  18
ATOM     18  C   UNL     1       1.215   1.493   3.160  0.00  0.00    +0.376 C 
ATOM     19  O   UNL     1       0.736   0.766   3.998  0.00  0.00    -0.244 OA
ATOM     20  OXT UNL     1       2.473   1.292   2.737  0.00  0.00    -0.244 OA
ENDBRANCH   8  18
BRANCH   3  21
ATOM     21  N   UNL     1      -3.193   4.812  -0.335  0.00  0.00    +0.057 N 
ATOM     22  O   UNL     1      -2.298   5.394  -0.923  0.00  0.00    -0.126 OA
ATOM     23  O   UNL     1      -4.192   4.464  -0.938  0.00  0.00    -0.126 OA
ENDBRANCH   3  21
TORSDOF 3
