REMARK  Name = ZINC20286608
REMARK  2 active torsions:
REMARK  status: ('A' for Active; 'I' for Inactive)
REMARK    1  A    between atoms: C_2  and  C_10
REMARK    2  A    between atoms: C_5  and  N_8
REMARK                            x       y       z     vdW  Elec       q    Type
REMARK                         _______ _______ _______ _____ _____    ______ ____
ROOT
ATOM      1  C   UNL     1      -0.013   1.076   0.008  0.00  0.00    +0.030 A 
ATOM      2  C   UNL     1      -1.232   1.759   0.017  0.00  0.00    +0.039 A 
ATOM      3  C   UNL     1      -1.247   3.157   0.030  0.00  0.00    +0.030 A 
ATOM      4  C   UNL     1      -0.061   3.857   0.023  0.00  0.00    +0.040 A 
ATOM      5  C   UNL     1       1.152   3.174   0.008  0.00  0.00    +0.053 A 
ATOM      6  C   UNL     1       1.170   1.781   0.001  0.00  0.00    +0.040 A 
ATOM      7 BR   UNL     1       2.820   0.858  -0.020  0.00  0.00    -0.048 Br
ATOM      8 BR   UNL     1      -0.081   5.748   0.034  0.00  0.00    -0.048 Br
ENDROOT
BRANCH   2   9
ATOM      9  C   UNL     1      -2.501   1.006   0.019  0.00  0.00    +0.242 C 
ATOM     10  O   UNL     1      -2.486  -0.210   0.013  0.00  0.00    -0.270 OA
ATOM     11  N   UNL     1      -3.676   1.666   0.029  0.00  0.00    -0.325 N 
ATOM     12  H   UNL     1      -4.622   1.105   0.030  0.00  0.00    +0.145 HD
ATOM     13  H   UNL     1      -3.689   2.766   0.035  0.00  0.00    +0.145 HD
ENDBRANCH   2   9
BRANCH   5  14
ATOM     14  N   UNL     1       2.349   3.884   0.001  0.00  0.00    -0.356 N 
ATOM     15  H   UNL     1       3.308   3.345  -0.010  0.00  0.00    +0.142 HD
ATOM     16  H   UNL     1       2.335   4.984   0.008  0.00  0.00    +0.142 HD
ENDBRANCH   5  14
TORSDOF 2
