REMARK  Name = ZINC12825304
REMARK  12 active torsions:
REMARK  status: ('A' for Active; 'I' for Inactive)
REMARK    1  A    between atoms: C_1  and  C_2
REMARK    2  A    between atoms: C_2  and  N_61
REMARK    3  A    between atoms: C_3  and  C_4
REMARK    4  A    between atoms: C_3  and  N_61
REMARK    5  A    between atoms: C_15  and  C_16
REMARK    6  A    between atoms: C_15  and  N_61
REMARK    7  A    between atoms: N_18  and  C_19
REMARK    8  A    between atoms: C_20  and  C_32
REMARK    9  A    between atoms: C_21  and  C_31
REMARK   10  A    between atoms: C_22  and  C_30
REMARK   11  A    between atoms: N_23  and  C_24
REMARK   12  A    between atoms: C_24  and  C_25
REMARK                            x       y       z     vdW  Elec       q    Type
REMARK                         _______ _______ _______ _____ _____    ______ ____
ROOT
ATOM      1  C   UNL     1       4.395   0.935  -2.426  0.00  0.00    +0.202 C 
ATOM      2  O   UNL     1       4.135  -0.212  -2.720  0.00  0.00    -0.278 OA
ATOM      3  N   UNL     1       5.306   1.624  -3.141  0.00  0.00    -0.272 N 
ATOM      4  H   UNL     1       5.542   2.529  -2.883  0.00  0.00    +0.156 HD
ENDROOT
BRANCH   3   5
ATOM      5  C   UNL     1       5.907   1.040  -4.246  0.00  0.00    +0.124 A 
ATOM      6  C   UNL     1       5.250   0.480  -5.333  0.00  0.00    +0.095 A 
ATOM      7  C   UNL     1       6.301  -0.002  -6.237  0.00  0.00    -0.011 A 
ATOM      8  C   UNL     1       7.475   0.283  -5.650  0.00  0.00    +0.022 A 
ATOM      9  N   UNL     1       7.243   0.909  -4.454  0.00  0.00    -0.324 N 
ATOM     10  C   UNL     1       8.834  -0.035  -6.218  0.00  0.00    +0.064 C 
ATOM     11  C   UNL     1       6.102  -0.687  -7.564  0.00  0.00    +0.047 C 
BRANCH   6  12
ATOM     12  C   UNL     1       3.834   0.392  -5.532  0.00  0.00    +0.103 C 
ATOM     13  N   UNL     1       2.712   0.323  -5.691  0.00  0.00    -0.191 NA
ENDBRANCH   6  12
BRANCH   9  14
ATOM     14  C   UNL     1       8.284   1.369  -3.532  0.00  0.00    +0.197 C 
BRANCH  14  15
ATOM     15  C   UNL     1       8.691   0.235  -2.627  0.00  0.00    +0.124 A 
ATOM     16  C   UNL     1       9.670  -0.654  -2.873  0.00  0.00    +0.046 A 
ATOM     17  C   UNL     1       9.709  -1.535  -1.768  0.00  0.00    +0.041 A 
ATOM     18  C   UNL     1       8.752  -1.132  -0.913  0.00  0.00    +0.195 A 
ATOM     19  O   UNL     1       8.142  -0.056  -1.437  0.00  0.00    -0.466 OA
ENDBRANCH  14  15
ENDBRANCH   9  14
ENDBRANCH   3   5
BRANCH   1  20
ATOM     20  C   UNL     1       3.700   1.590  -1.261  0.00  0.00    +0.019 C 
BRANCH  20  21
ATOM     21  N   UNL     1       2.843   0.586  -0.595  0.00  0.00    +0.388 N 
ATOM     22  H   UNL     1       3.354  -0.303  -0.539  0.00  0.00    -0.081 HD
BRANCH  21  24
ATOM     23  C   UNL     1       3.780   1.026   1.621  0.00  0.00    -0.017 C 
ATOM     24  C   UNL     1       2.507   1.035   0.772  0.00  0.00    -0.081 C 
ENDBRANCH  21  24
BRANCH  21  25
ATOM     25  C   UNL     1       1.606   0.380  -1.377  0.00  0.00    -0.030 C 
BRANCH  25  26
ATOM     26  C   UNL     1       0.847  -0.814  -0.795  0.00  0.00    +0.195 C 
ATOM     27  C   UNL     1      -0.424  -1.070  -1.615  0.00  0.00    +0.271 C 
ATOM     28  O   UNL     1      -1.102  -2.198  -1.052  0.00  0.00    -0.485 OA
ATOM     29  C   UNL     1      -0.339  -3.286  -0.757  0.00  0.00    +0.162 A 
ATOM     30  C   UNL     1      -0.953  -4.513  -0.552  0.00  0.00    +0.049 A 
ATOM     31  C   UNL     1      -0.192  -5.626  -0.249  0.00  0.00    +0.004 A 
ATOM     32  C   UNL     1       1.183  -5.520  -0.150  0.00  0.00    +0.004 A 
ATOM     33  C   UNL     1       1.801  -4.301  -0.354  0.00  0.00    +0.049 A 
ATOM     34  C   UNL     1       1.043  -3.180  -0.659  0.00  0.00    +0.162 A 
ATOM     35  O   UNL     1       1.667  -1.986  -0.861  0.00  0.00    -0.484 OA
ENDBRANCH  25  26
ENDBRANCH  21  25
ENDBRANCH  20  21
ENDBRANCH   1  20
TORSDOF 9
