REMARK  Name = ZINC16019887
REMARK  6 active torsions:
REMARK  status: ('A' for Active; 'I' for Inactive)
REMARK    1  A    between atoms: C_1  and  C_2
REMARK    2  A    between atoms: C_3  and  C_15
REMARK    3  A    between atoms: N_5  and  C_7
REMARK    4  A    between atoms: C_7  and  C_8
REMARK    5  A    between atoms: C_16  and  C_17
REMARK    6  A    between atoms: N_19  and  C_20
REMARK                            x       y       z     vdW  Elec       q    Type
REMARK                         _______ _______ _______ _____ _____    ______ ____
ROOT
ATOM      1  C   UNL     1       4.891  -4.043   0.224  0.00  0.00    +0.018 C 
ATOM      2  C   UNL     1       4.874  -2.695   0.132  0.00  0.00    +0.068 C 
ENDROOT
BRANCH   1   5
ATOM      3  C   UNL     1       5.643  -6.242   2.384  0.00  0.00    +0.068 C 
ATOM      4  C   UNL     1       6.522  -5.739   1.269  0.00  0.00    +0.069 A 
ATOM      5  C   UNL     1       6.172  -4.756   0.314  0.00  0.00    +0.034 A 
ATOM      6  C   UNL     1       7.267  -4.590  -0.519  0.00  0.00    +0.135 A 
ATOM      7  N   UNL     1       8.226  -5.431  -0.092  0.00  0.00    -0.248 N 
ATOM      8  N   UNL     1       7.739  -6.134   1.015  0.00  0.00    -0.174 NA
ATOM      9 CL   UNL     1       7.380  -3.498  -1.864  0.00  0.00    -0.062 Cl
BRANCH   7  10
ATOM     10  C   UNL     1       9.556  -5.585  -0.686  0.00  0.00    +0.180 C 
BRANCH  10  11
ATOM     11  C   UNL     1      10.514  -4.627  -0.028  0.00  0.00    -0.026 A 
ATOM     12  C   UNL     1      10.689  -3.357  -0.547  0.00  0.00    +0.005 A 
ATOM     13  C   UNL     1      11.565  -2.477   0.060  0.00  0.00    +0.000 A 
ATOM     14  C   UNL     1      12.274  -2.869   1.179  0.00  0.00    +0.000 A 
ATOM     15  C   UNL     1      12.103  -4.140   1.696  0.00  0.00    +0.000 A 
ATOM     16  C   UNL     1      11.223  -5.019   1.092  0.00  0.00    +0.005 A 
ENDBRANCH  10  11
ENDBRANCH   7  10
ENDBRANCH   1   5
BRANCH   2  17
ATOM     17  C   UNL     1       3.638  -2.007   0.045  0.00  0.00    +0.241 C 
ATOM     18  O   UNL     1       2.592  -2.630   0.055  0.00  0.00    -0.270 OA
ATOM     19  N   UNL     1       3.621  -0.662  -0.047  0.00  0.00    -0.282 N 
ATOM     20  H   UNL     1       4.453  -0.171  -0.122  0.00  0.00    +0.155 HD
BRANCH  19  21
ATOM     21  C   UNL     1       2.401   0.024  -0.035  0.00  0.00    +0.037 A 
ATOM     22  C   UNL     1       2.309   1.267   0.577  0.00  0.00    +0.027 A 
ATOM     23  C   UNL     1       1.105   1.944   0.591  0.00  0.00    +0.051 A 
ATOM     24  C   UNL     1      -0.016   1.385  -0.006  0.00  0.00    +0.162 A 
ATOM     25  C   UNL     1       0.073   0.142  -0.622  0.00  0.00    +0.164 A 
ATOM     26  C   UNL     1       1.282  -0.537  -0.634  0.00  0.00    +0.072 A 
ATOM     27  O   UNL     1      -1.013  -0.418  -1.220  0.00  0.00    -0.485 OA
ATOM     28  C   UNL     1      -2.292   0.118  -0.865  0.00  0.00    +0.270 C 
ATOM     29  C   UNL     1      -2.200   1.650  -0.908  0.00  0.00    +0.270 C 
ATOM     30  O   UNL     1      -1.196   2.064   0.026  0.00  0.00    -0.485 OA
ENDBRANCH  19  21
ENDBRANCH   2  17
TORSDOF 5
