REMARK  Name = ZINC49514510
REMARK  5 active torsions:
REMARK  status: ('A' for Active; 'I' for Inactive)
REMARK    1  A    between atoms: C_1  and  C_2
REMARK    2  A    between atoms: C_3  and  S_9
REMARK    3  A    between atoms: N_5  and  C_7
REMARK    4  A    between atoms: S_9  and  N_12
REMARK    5  A    between atoms: C_13  and  C_15
REMARK                            x       y       z     vdW  Elec       q    Type
REMARK                         _______ _______ _______ _____ _____    ______ ____
ROOT
ATOM      1  S   UNL     1      -0.009  -0.263  -2.808  0.00  0.00    +0.107 S 
ATOM      2  O   UNL     1      -0.548  -1.324  -3.583  0.00  0.00    -0.146 OA
ATOM      3  O   UNL     1      -0.579   1.039  -2.798  0.00  0.00    -0.146 OA
ENDROOT
BRANCH   1   6
ATOM      4  C   UNL     1      -0.018   1.503   0.010  0.00  0.00    +0.069 C 
ATOM      5  C   UNL     1       0.002  -0.004   0.002  0.00  0.00    +0.088 A 
ATOM      6  C   UNL     1       0.008  -0.818  -1.135  0.00  0.00    +0.171 A 
ATOM      7  C   UNL     1       0.028  -2.108  -0.724  0.00  0.00    +0.154 A 
ATOM      8  N   UNL     1       0.035  -2.109   0.626  0.00  0.00    -0.254 N 
ATOM      9  N   UNL     1       0.023  -0.777   1.058  0.00  0.00    -0.173 NA
ATOM     10  C   UNL     1       0.055  -3.294   1.487  0.00  0.00    +0.174 C 
ATOM     11 CL   UNL     1       0.043  -3.509  -1.749  0.00  0.00    -0.060 Cl
ENDBRANCH   1   6
BRANCH   1  12
ATOM     12  N   UNL     1       1.568  -0.085  -3.281  0.00  0.00    -0.085 NA
ATOM     13  C   UNL     1       1.845   0.320  -4.489  0.00  0.00    +0.302 C 
ATOM     14  O   UNL     1       0.844   0.595  -5.357  0.00  0.00    -0.263 OA
BRANCH  13  15
ATOM     15  C   UNL     1       3.244   0.477  -4.909  0.00  0.00    +0.081 A 
ATOM     16  C   UNL     1       3.747   0.895  -6.129  0.00  0.00    +0.022 A 
ATOM     17  C   UNL     1       5.119   0.944  -6.226  0.00  0.00    +0.024 A 
ATOM     18  C   UNL     1       5.867   0.590  -5.152  0.00  0.00    +0.056 A 
ATOM     19  S   UNL     1       4.736   0.188  -3.977  0.00  0.00    -0.077 S 
ATOM     20 BR   UNL     1       7.753   0.562  -5.008  0.00  0.00    -0.043 Br
ENDBRANCH  13  15
ENDBRANCH   1  12
TORSDOF 3
