REMARK  Name = ZINC21151311
REMARK  12 active torsions:
REMARK  status: ('A' for Active; 'I' for Inactive)
REMARK    1  A    between atoms: C_1  and  C_2
REMARK    2  A    between atoms: C_2  and  O_3
REMARK    3  A    between atoms: O_3  and  C_4
REMARK    4  A    between atoms: C_4  and  C_6
REMARK    5  A    between atoms: C_12  and  C_24
REMARK    6  A    between atoms: C_12  and  C_25
REMARK    7  A    between atoms: N_13  and  C_16
REMARK    8  A    between atoms: C_19  and  C_23
REMARK    9  A    between atoms: C_21  and  C_22
REMARK   10  A    between atoms: N_27  and  C_28
REMARK   11  A    between atoms: C_28  and  C_29
REMARK   12  A    between atoms: C_32  and  C_35
REMARK                            x       y       z     vdW  Elec       q    Type
REMARK                         _______ _______ _______ _____ _____    ______ ____
ROOT
ATOM      1  C   UNL     1       0.204   4.622  -3.237  0.00  0.00    +0.170 A 
ATOM      2  C   UNL     1       0.322   5.141  -1.927  0.00  0.00    +0.069 A 
ATOM      3  C   UNL     1      -0.375   4.286  -1.144  0.00  0.00    +0.125 A 
ATOM      4  N   UNL     1      -0.899   3.308  -1.963  0.00  0.00    -0.256 N 
ATOM      5  N   UNL     1      -0.536   3.527  -3.167  0.00  0.00    -0.164 NA
ATOM      6  C   UNL     1      -1.744   2.235  -1.422  0.00  0.00    +0.179 C 
ATOM      7  C   UNL     1      -1.330   1.944   0.019  0.00  0.00    +0.135 C 
ATOM      8  N   UNL     1      -1.185   3.157   0.817  0.00  0.00    -0.250 N 
ATOM      9  C   UNL     1      -0.612   4.275   0.309  0.00  0.00    +0.270 C 
ATOM     10  O   UNL     1      -0.310   5.218   1.016  0.00  0.00    -0.268 OA
ATOM     11  C   UNL     1      -2.390   1.051   0.665  0.00  0.00    +0.044 C 
ENDROOT
BRANCH   8  12
ATOM     12  C   UNL     1      -1.649   3.166   2.136  0.00  0.00    +0.041 A 
ATOM     13  C   UNL     1      -0.803   2.792   3.173  0.00  0.00    +0.024 A 
ATOM     14  C   UNL     1      -1.264   2.801   4.475  0.00  0.00    +0.005 A 
ATOM     15  C   UNL     1      -2.565   3.183   4.747  0.00  0.00    -0.050 A 
ATOM     16  C   UNL     1      -3.409   3.556   3.717  0.00  0.00    +0.008 A 
ATOM     17  C   UNL     1      -2.953   3.554   2.413  0.00  0.00    -0.029 A 
ATOM     18  C   UNL     1      -3.871   3.967   1.292  0.00  0.00    +0.045 C 
ATOM     19  C   UNL     1      -3.065   3.192   6.168  0.00  0.00    +0.044 C 
ENDBRANCH   8  12
BRANCH   7  20
ATOM     20  C   UNL     1      -0.014   1.209   0.009  0.00  0.00    +0.239 C 
ATOM     21  O   UNL     1       0.002  -0.004   0.002  0.00  0.00    -0.273 OA
ATOM     22  N   UNL     1       1.143   1.898   0.001  0.00  0.00    -0.309 N 
ATOM     23  H   UNL     1       1.129   2.998   0.007  0.00  0.00    +0.149 HD
BRANCH  22  24
ATOM     24  C   UNL     1       2.422   1.183  -0.015  0.00  0.00    +0.139 C 
BRANCH  24  25
ATOM     25  C   UNL     1       3.554   2.178  -0.020  0.00  0.00    -0.030 A 
ATOM     26  C   UNL     1       4.066   2.636  -1.220  0.00  0.00    +0.005 A 
ATOM     27  C   UNL     1       5.101   3.552  -1.225  0.00  0.00    +0.003 A 
ATOM     28  C   UNL     1       5.631   4.002  -0.030  0.00  0.00    -0.050 A 
ATOM     29  C   UNL     1       5.123   3.540   1.169  0.00  0.00    +0.003 A 
ATOM     30  C   UNL     1       4.085   2.628   1.174  0.00  0.00    +0.005 A 
ATOM     31  C   UNL     1       6.763   4.997  -0.036  0.00  0.00    +0.044 C 
ENDBRANCH  24  25
ENDBRANCH  22  24
ENDBRANCH   7  20
BRANCH   1  32
ATOM     32  C   UNL     1       0.797   5.197  -4.460  0.00  0.00    +0.359 C 
ATOM     33  O   UNL     1       1.460   6.213  -4.394  0.00  0.00    -0.243 OA
BRANCH  32  34
ATOM     34  O   UNL     1       0.603   4.596  -5.650  0.00  0.00    -0.460 OA
BRANCH  34  36
ATOM     35  C   UNL     1       0.888   4.398  -8.060  0.00  0.00    +0.048 C 
ATOM     36  C   UNL     1       1.216   5.217  -6.810  0.00  0.00    +0.229 C 
ENDBRANCH  34  36
ENDBRANCH  32  34
ENDBRANCH   1  32
TORSDOF 7
