REMARK  Name = ZINC40813617
REMARK  6 active torsions:
REMARK  status: ('A' for Active; 'I' for Inactive)
REMARK    1  A    between atoms: C_1  and  C_2
REMARK    2  A    between atoms: C_6  and  C_7
REMARK    3  A    between atoms: C_7  and  O_9
REMARK    4  A    between atoms: O_9  and  C_10
REMARK    5  A    between atoms: N_24  and  N_25
REMARK    6  A    between atoms: C_26  and  C_28
REMARK                            x       y       z     vdW  Elec       q    Type
REMARK                         _______ _______ _______ _____ _____    ______ ____
ROOT
ATOM      1  C   UNL     1      -0.237   1.354  -0.005  0.00  0.00    +0.048 C 
ATOM      2  C   UNL     1      -0.098  -0.146   0.012  0.00  0.00    +0.011 A 
ATOM      3  C   UNL     1      -0.046  -0.998  -1.098  0.00  0.00    +0.042 A 
ATOM      4  C   UNL     1       0.083  -2.284  -0.627  0.00  0.00    +0.115 A 
ATOM      5  O   UNL     1       0.113  -2.233   0.703  0.00  0.00    -0.452 OA
ATOM      6  C   UNL     1       0.009  -0.949   1.114  0.00  0.00    +0.215 A 
ATOM      7  C   UNL     1       0.166  -3.485  -1.534  0.00  0.00    +0.075 C 
ATOM      8  C   UNL     1      -0.415  -3.129  -2.904  0.00  0.00    +0.014 C 
ATOM      9  C   UNL     1       0.248  -1.864  -3.460  0.00  0.00    +0.058 C 
ATOM     10  C   UNL     1      -0.105  -0.700  -2.546  0.00  0.00    +0.070 C 
ATOM     11  N   UNL     1      -0.435   0.469  -3.004  0.00  0.00    -0.184 NA
ENDROOT
BRANCH  11  12
ATOM     12  N   UNL     1      -0.475   0.694  -4.386  0.00  0.00    -0.203 N 
ATOM     13  C   UNL     1      -0.818   1.908  -4.861  0.00  0.00    +0.264 C 
ATOM     14  O   UNL     1      -1.092   2.808  -4.090  0.00  0.00    -0.268 OA
ATOM     15  H   UNL     1      -0.256  -0.023  -5.001  0.00  0.00    +0.178 HD
BRANCH  13  16
ATOM     16  C   UNL     1      -0.860   2.146  -6.315  0.00  0.00    +0.046 A 
ATOM     17  C   UNL     1      -0.665   1.101  -7.210  0.00  0.00    +0.014 A 
ATOM     18  C   UNL     1      -0.705   1.328  -8.579  0.00  0.00    +0.001 A 
ATOM     19  C   UNL     1      -0.933   2.566  -9.096  0.00  0.00    +0.008 A 
ATOM     20  C   UNL     1      -1.138   3.669  -8.250  0.00  0.00    -0.017 A 
ATOM     21  C   UNL     1      -1.112   3.483  -6.846  0.00  0.00    -0.006 A 
ATOM     22  C   UNL     1      -1.322   4.579  -5.999  0.00  0.00    +0.009 A 
ATOM     23  C   UNL     1      -1.554   5.810  -6.535  0.00  0.00    +0.001 A 
ATOM     24  C   UNL     1      -1.586   5.995  -7.916  0.00  0.00    +0.001 A 
ATOM     25  C   UNL     1      -1.374   4.954  -8.768  0.00  0.00    +0.008 A 
ENDBRANCH  13  16
ENDBRANCH  11  12
BRANCH   6  26
ATOM     26  C   UNL     1       0.008  -0.494   2.507  0.00  0.00    +0.380 C 
ATOM     27  O   UNL     1      -0.094   0.691   2.760  0.00  0.00    -0.241 OA
BRANCH  26  28
ATOM     28  O   UNL     1       0.121  -1.390   3.510  0.00  0.00    -0.420 OA
BRANCH  28  29
ATOM     29  C   UNL     1       0.221  -0.917   4.779  0.00  0.00    +0.140 A 
ATOM     30  C   UNL     1       1.457  -0.720   5.351  0.00  0.00    +0.047 A 
ATOM     31  C   UNL     1       1.571  -0.237   6.651  0.00  0.00    +0.004 A 
ATOM     32  C   UNL     1       0.467   0.054   7.392  0.00  0.00    +0.009 A 
ATOM     33  C   UNL     1      -0.814  -0.133   6.845  0.00  0.00    -0.014 A 
ATOM     34  C   UNL     1      -0.941  -0.619   5.520  0.00  0.00    +0.025 A 
ATOM     35  C   UNL     1      -2.221  -0.801   4.972  0.00  0.00    +0.012 A 
ATOM     36  C   UNL     1      -3.321  -0.503   5.717  0.00  0.00    +0.001 A 
ATOM     37  C   UNL     1      -3.197  -0.019   7.018  0.00  0.00    +0.001 A 
ATOM     38  C   UNL     1      -1.972   0.159   7.585  0.00  0.00    +0.008 A 
ENDBRANCH  28  29
ENDBRANCH  26  28
ENDBRANCH   6  26
TORSDOF 5
