REMARK  Name = ZINC16286193
REMARK  12 active torsions:
REMARK  status: ('A' for Active; 'I' for Inactive)
REMARK    1  A    between atoms: C_1  and  C_2
REMARK    2  A    between atoms: C_8  and  N_10
REMARK    3  A    between atoms: C_14  and  C_16
REMARK    4  A    between atoms: C_16  and  O_17
REMARK    5  A    between atoms: O_17  and  C_18
REMARK    6  A    between atoms: C_18  and  C_20
REMARK    7  A    between atoms: C_21  and  C_22
REMARK    8  A    between atoms: C_25  and  O_30
REMARK    9  A    between atoms: C_26  and  O_28
REMARK   10  A    between atoms: O_28  and  C_29
REMARK   11  A    between atoms: O_30  and  C_31
REMARK   12  A    between atoms: C_31  and  C_32
REMARK                            x       y       z     vdW  Elec       q    Type
REMARK                         _______ _______ _______ _____ _____    ______ ____
ROOT
ATOM      1  C   UNL     1      -1.192  -0.633   0.010  0.00  0.00    +0.332 C 
ATOM      2  O   UNL     1      -2.221   0.016   0.023  0.00  0.00    -0.246 OA
ENDROOT
BRANCH   1   3
ATOM      3  C   UNL     1      -1.247  -2.050   0.003  0.00  0.00    +0.092 C 
ATOM      4  C   UNL     1      -2.442  -2.679   0.011  0.00  0.00    +0.015 C 
BRANCH   4   5
ATOM      5  C   UNL     1      -2.499  -4.148   0.004  0.00  0.00    -0.021 A 
ATOM      6  C   UNL     1      -1.316  -4.896  -0.012  0.00  0.00    +0.012 A 
ATOM      7  C   UNL     1      -1.373  -6.272  -0.019  0.00  0.00    +0.050 A 
ATOM      8  C   UNL     1      -2.600  -6.921  -0.010  0.00  0.00    +0.163 A 
ATOM      9  C   UNL     1      -3.783  -6.182   0.004  0.00  0.00    +0.162 A 
ATOM     10  C   UNL     1      -3.736  -4.802   0.018  0.00  0.00    +0.057 A 
BRANCH   9  11
ATOM     11  O   UNL     1      -4.984  -6.822   0.012  0.00  0.00    -0.491 OA
ATOM     12  C   UNL     1      -6.155  -6.003   0.028  0.00  0.00    +0.277 C 
ENDBRANCH   9  11
BRANCH   8  13
ATOM     13  O   UNL     1      -2.650  -8.278  -0.017  0.00  0.00    -0.479 OA
BRANCH  13  14
ATOM     14  C   UNL     1      -1.401  -8.972  -0.033  0.00  0.00    +0.324 C 
BRANCH  14  15
ATOM     15  C   UNL     1      -1.652 -10.458  -0.038  0.00  0.00    +0.248 C 
ATOM     16  O   UNL     1      -2.789 -10.881  -0.030  0.00  0.00    -0.272 OA
ATOM     17  N   UNL     1      -0.614 -11.317  -0.053  0.00  0.00    -0.327 N 
ATOM     18  H   UNL     1       0.295 -10.979  -0.060  0.00  0.00    +0.145 HD
ATOM     19  H   UNL     1      -0.775 -12.274  -0.057  0.00  0.00    +0.145 HD
ENDBRANCH  14  15
ENDBRANCH  13  14
ENDBRANCH   8  13
ENDBRANCH   4   5
ENDBRANCH   1   3
BRANCH   1  20
ATOM     20  O   UNL     1       0.002  -0.004   0.002  0.00  0.00    -0.452 OA
BRANCH  20  21
ATOM     21  C   UNL     1      -0.017   1.425   0.010  0.00  0.00    +0.328 C 
BRANCH  21  26
ATOM     22  N   UNL     1       3.118   5.069  -0.001  0.00  0.00    -0.296 N 
ATOM     23  C   UNL     1       2.889   3.741  -0.005  0.00  0.00    +0.306 C 
ATOM     24  O   UNL     1       3.824   2.964  -0.018  0.00  0.00    -0.252 OA
ATOM     25  N   UNL     1       1.625   3.275   0.004  0.00  0.00    -0.237 N 
ATOM     26  C   UNL     1       1.397   1.946  -0.001  0.00  0.00    +0.258 C 
ATOM     27  O   UNL     1       2.329   1.171  -0.014  0.00  0.00    -0.272 OA
ATOM     28  H   UNL     1       2.372   5.690   0.010  0.00  0.00    +0.151 HD
ATOM     29  H   UNL     1       0.879   3.895   0.015  0.00  0.00    +0.159 HD
BRANCH  22  36
ATOM     30  C   UNL     1       3.976   6.932  -2.045  0.00  0.00    +0.009 C 
ATOM     31  C   UNL     1       4.512   6.983  -0.613  0.00  0.00    +0.006 C 
ATOM     32  C   UNL     1       3.633   7.910   0.228  0.00  0.00    +0.005 C 
ATOM     33  C   UNL     1       4.168   7.961   1.660  0.00  0.00    +0.000 C 
ATOM     34  C   UNL     1       4.148   6.555   2.262  0.00  0.00    +0.002 C 
ATOM     35  C   UNL     1       5.028   5.627   1.421  0.00  0.00    +0.022 C 
ATOM     36  C   UNL     1       4.492   5.577  -0.011  0.00  0.00    +0.077 C 
ENDBRANCH  22  36
ENDBRANCH  21  26
ENDBRANCH  20  21
ENDBRANCH   1  20
TORSDOF 10
