REMARK  Name = ZINC01913210
REMARK  11 active torsions:
REMARK  status: ('A' for Active; 'I' for Inactive)
REMARK    1  A    between atoms: C_1  and  C_2
REMARK    2  A    between atoms: C_2  and  C_3
REMARK    3  A    between atoms: C_6  and  O_9
REMARK    4  A    between atoms: O_9  and  C_10
REMARK    5  A    between atoms: C_16  and  O_34
REMARK    6  A    between atoms: C_17  and  C_25
REMARK    7  A    between atoms: C_20  and  C_21
REMARK    8  A    between atoms: C_25  and  N_59
REMARK    9  A    between atoms: C_26  and  N_59
REMARK   10  A    between atoms: C_27  and  C_28
REMARK   11  A    between atoms: C_27  and  N_59
REMARK                            x       y       z     vdW  Elec       q    Type
REMARK                         _______ _______ _______ _____ _____    ______ ____
ROOT
ATOM      1  C   UNL     1      -2.268   4.099   5.166  0.00  0.00    +0.222 A 
ATOM      2  C   UNL     1      -1.237   4.156   6.146  0.00  0.00    +0.235 A 
ATOM      3  O   UNL     1      -0.675   3.146   6.537  0.00  0.00    -0.283 OA
ATOM      4  C   UNL     1      -0.873   5.486   6.665  0.00  0.00    +0.068 A 
ATOM      5  C   UNL     1       0.129   5.643   7.625  0.00  0.00    +0.019 A 
ATOM      6  C   UNL     1       0.434   6.892   8.086  0.00  0.00    +0.046 A 
ATOM      7  C   UNL     1      -0.248   8.008   7.604  0.00  0.00    +0.122 A 
ATOM      8  C   UNL     1      -1.244   7.868   6.653  0.00  0.00    +0.020 A 
ATOM      9  C   UNL     1      -1.567   6.606   6.174  0.00  0.00    +0.144 A 
ATOM     10  O   UNL     1      -2.533   6.442   5.248  0.00  0.00    -0.447 OA
ATOM     11  C   UNL     1      -2.868   5.238   4.765  0.00  0.00    +0.254 A 
ENDROOT
BRANCH  11  12
ATOM     12  C   UNL     1      -3.960   5.153   3.731  0.00  0.00    +0.454 C 
ATOM     13  F   UNL     1      -5.195   4.992   4.369  0.00  0.00    -0.163 F 
ATOM     14  F   UNL     1      -3.977   6.328   2.973  0.00  0.00    -0.163 F 
ATOM     15  F   UNL     1      -3.724   4.059   2.891  0.00  0.00    -0.163 F 
ENDBRANCH  11  12
BRANCH   7  16
ATOM     16  O   UNL     1       0.067   9.242   8.072  0.00  0.00    -0.506 OA
ATOM     17  H   UNL     1      -0.442   9.510   8.850  0.00  0.00    +0.292 HD
ENDBRANCH   7  16
BRANCH   1  18
ATOM     18  O   UNL     1      -2.649   2.902   4.642  0.00  0.00    -0.448 OA
BRANCH  18  22
ATOM     19  C   UNL     1      -0.718   1.572   1.248  0.00  0.00    -0.047 A 
ATOM     20  C   UNL     1      -0.359   2.779   1.818  0.00  0.00    +0.007 A 
ATOM     21  C   UNL     1      -1.008   3.230   2.951  0.00  0.00    +0.046 A 
ATOM     22  C   UNL     1      -2.013   2.464   3.524  0.00  0.00    +0.129 A 
ATOM     23  C   UNL     1      -2.368   1.250   2.953  0.00  0.00    +0.046 A 
ATOM     24  C   UNL     1      -1.720   0.807   1.817  0.00  0.00    +0.007 A 
BRANCH  19  26
ATOM     25  C   UNL     1      -0.753   1.593  -1.232  0.00  0.00    +0.009 C 
ATOM     26  C   UNL     1      -0.013   1.086   0.008  0.00  0.00    +0.032 C 
ENDBRANCH  19  26
ENDBRANCH  18  22
ENDBRANCH   1  18
BRANCH   8  27
ATOM     27  C   UNL     1      -1.976   9.082   6.140  0.00  0.00    -0.035 C 
BRANCH  27  29
ATOM     28  C   UNL     1      -2.758   9.714   8.343  0.00  0.00    -0.095 C 
ATOM     29  N   UNL     1      -3.169   9.310   6.982  0.00  0.00    +0.383 N 
ATOM     30  H   UNL     1      -3.707   8.437   7.042  0.00  0.00    -0.081 HD
BRANCH  29  31
ATOM     31  C   UNL     1      -4.020  10.357   6.379  0.00  0.00    -0.043 C 
BRANCH  31  32
ATOM     32  C   UNL     1      -5.326  10.414   7.129  0.00  0.00    -0.064 A 
ATOM     33  C   UNL     1      -6.386   9.622   6.732  0.00  0.00    +0.002 A 
ATOM     34  C   UNL     1      -7.583   9.671   7.423  0.00  0.00    +0.000 A 
ATOM     35  C   UNL     1      -7.721  10.520   8.505  0.00  0.00    +0.000 A 
ATOM     36  C   UNL     1      -6.662  11.317   8.899  0.00  0.00    +0.000 A 
ATOM     37  C   UNL     1      -5.465  11.264   8.211  0.00  0.00    +0.002 A 
ENDBRANCH  31  32
ENDBRANCH  29  31
ENDBRANCH  27  29
ENDBRANCH   8  27
TORSDOF 9
