REMARK  Name = ZINC40055333
REMARK  13 active torsions:
REMARK  status: ('A' for Active; 'I' for Inactive)
REMARK    1  A    between atoms: C_2  and  C_3
REMARK    2  A    between atoms: C_3  and  O_4
REMARK    3  A    between atoms: O_4  and  C_5
REMARK    4  A    between atoms: C_9  and  C_11
REMARK    5  A    between atoms: C_13  and  C_23
REMARK    6  A    between atoms: N_17  and  C_18
REMARK    7  A    between atoms: C_18  and  C_19
REMARK    8  A    between atoms: C_19  and  C_20
REMARK    9  A    between atoms: C_20  and  O_21
REMARK   10  A    between atoms: C_23  and  C_25
REMARK   11  A    between atoms: C_28  and  O_31
REMARK   12  A    between atoms: O_31  and  C_32
REMARK   13  A    between atoms: C_32  and  C_33
REMARK                            x       y       z     vdW  Elec       q    Type
REMARK                         _______ _______ _______ _____ _____    ______ ____
ROOT
ATOM      1  C   UNL     1       3.522  -5.192   2.540  0.00  0.00    +0.145 C 
ATOM      2  C   UNL     1       3.246  -6.643   2.222  0.00  0.00    +0.076 C 
ATOM      3  C   UNL     1       4.329  -7.345   2.629  0.00  0.00    +0.249 C 
ATOM      4  C   UNL     1       5.321  -6.415   3.208  0.00  0.00    +0.288 C 
ATOM      5  O   UNL     1       6.401  -6.740   3.662  0.00  0.00    -0.266 OA
ATOM      6  N   UNL     1       4.853  -5.153   3.158  0.00  0.00    -0.283 N 
ATOM      7  O   UNL     1       4.480  -8.685   2.523  0.00  0.00    -0.282 OA
ENDROOT
BRANCH   1  12
ATOM      8  C   UNL     1       2.442  -2.791  -0.171  0.00  0.00    +0.121 A 
ATOM      9  C   UNL     1       3.509  -2.875  -1.053  0.00  0.00    +0.045 A 
ATOM     10  C   UNL     1       4.575  -3.707  -0.769  0.00  0.00    +0.004 A 
ATOM     11  C   UNL     1       4.578  -4.455   0.393  0.00  0.00    +0.006 A 
ATOM     12  C   UNL     1       3.516  -4.374   1.274  0.00  0.00    -0.019 A 
ATOM     13  C   UNL     1       2.450  -3.539   0.997  0.00  0.00    +0.051 A 
BRANCH   8  14
ATOM     14  O   UNL     1       1.392  -1.974  -0.448  0.00  0.00    -0.488 OA
BRANCH  14  15
ATOM     15  C   UNL     1       1.452  -1.233  -1.669  0.00  0.00    +0.256 C 
BRANCH  15  17
ATOM     16  C   UNL     1       0.308   0.862  -2.183  0.00  0.00    +0.007 C 
ATOM     17  C   UNL     1       0.211  -0.388  -1.805  0.00  0.00    +0.006 C 
ENDBRANCH  15  17
ENDBRANCH  14  15
ENDBRANCH   8  14
ENDBRANCH   1  12
BRANCH   2  18
ATOM     18  C   UNL     1       2.038  -7.186   1.594  0.00  0.00    +0.195 C 
ATOM     19  O   UNL     1       2.107  -7.725   0.505  0.00  0.00    -0.287 OA
BRANCH  18  20
ATOM     20  C   UNL     1       0.736  -7.079   2.283  0.00  0.00    +0.022 A 
ATOM     21  C   UNL     1       0.670  -6.562   3.580  0.00  0.00    +0.015 A 
ATOM     22  C   UNL     1      -0.545  -6.464   4.219  0.00  0.00    +0.046 A 
ATOM     23  C   UNL     1      -1.706  -6.878   3.575  0.00  0.00    +0.121 A 
ATOM     24  C   UNL     1      -1.645  -7.394   2.285  0.00  0.00    +0.046 A 
ATOM     25  C   UNL     1      -0.434  -7.489   1.637  0.00  0.00    +0.015 A 
BRANCH  23  26
ATOM     26  O   UNL     1      -2.903  -6.780   4.208  0.00  0.00    -0.487 OA
BRANCH  26  27
ATOM     27  C   UNL     1      -4.055  -7.224   3.490  0.00  0.00    +0.264 C 
BRANCH  27  28
ATOM     28  C   UNL     1      -5.282  -7.040   4.345  0.00  0.00    -0.010 A 
ATOM     29  C   UNL     1      -5.696  -8.054   5.188  0.00  0.00    +0.010 A 
ATOM     30  C   UNL     1      -6.820  -7.886   5.973  0.00  0.00    +0.039 A 
ATOM     31  C   UNL     1      -7.533  -6.701   5.915  0.00  0.00    +0.123 A 
ATOM     32  C   UNL     1      -7.119  -5.685   5.071  0.00  0.00    +0.039 A 
ATOM     33  C   UNL     1      -5.990  -5.854   4.290  0.00  0.00    +0.010 A 
ATOM     34  F   UNL     1      -8.633  -6.535   6.682  0.00  0.00    -0.205 F 
ENDBRANCH  27  28
ENDBRANCH  26  27
ENDBRANCH  23  26
ENDBRANCH  18  20
ENDBRANCH   2  18
BRANCH   6  35
ATOM     35  C   UNL     1       5.547  -3.954   3.636  0.00  0.00    +0.111 C 
BRANCH  35  36
ATOM     36  C   UNL     1       5.188  -3.708   5.103  0.00  0.00    +0.047 C 
BRANCH  36  37
ATOM     37  C   UNL     1       5.913  -2.457   5.602  0.00  0.00    +0.157 C 
BRANCH  37  38
ATOM     38  O   UNL     1       5.578  -2.227   6.972  0.00  0.00    -0.395 OA
ATOM     39  H   UNL     1       6.003  -1.447   7.356  0.00  0.00    +0.209 HD
ENDBRANCH  37  38
ENDBRANCH  36  37
ENDBRANCH  35  36
ENDBRANCH   6  35
TORSDOF 13
