REMARK  Name = ZINC41083868
REMARK  7 active torsions:
REMARK  status: ('A' for Active; 'I' for Inactive)
REMARK    1  A    between atoms: C_1  and  C_2
REMARK    2  A    between atoms: C_2  and  S_3
REMARK    3  A    between atoms: S_3  and  C_6
REMARK    4  A    between atoms: C_12  and  C_13
REMARK    5  A    between atoms: C_15  and  C_27
REMARK    6  A    between atoms: N_16  and  C_19
REMARK    7  A    between atoms: C_17  and  C_18
REMARK                            x       y       z     vdW  Elec       q    Type
REMARK                         _______ _______ _______ _____ _____    ______ ____
ROOT
ATOM      1  C   UNL     1       2.129  -3.333  -2.308  0.00  0.00    +0.235 C 
ATOM      2  N   UNL     1       0.908  -3.780  -2.381  0.00  0.00    -0.145 NA
ATOM      3  N   UNL     1       0.643  -5.132  -2.415  0.00  0.00    -0.150 N 
ATOM      4  C   UNL     1      -0.629  -5.720  -2.582  0.00  0.00    +0.153 C 
ATOM      5  N   UNL     1      -1.639  -5.101  -3.135  0.00  0.00    -0.283 NA
ATOM      6  C   UNL     1      -0.707  -7.115  -2.068  0.00  0.00    +0.081 C 
ATOM      7  C   UNL     1      -1.867  -7.623  -1.518  0.00  0.00    +0.026 C 
ATOM      8  C   UNL     1       0.526  -7.930  -2.179  0.00  0.00    +0.273 C 
ATOM      9  O   UNL     1       0.472  -9.149  -2.227  0.00  0.00    -0.268 OA
ATOM     10  N   UNL     1       1.710  -7.286  -2.225  0.00  0.00    -0.152 NA
ATOM     11  C   UNL     1       1.725  -5.980  -2.302  0.00  0.00    +0.182 C 
ATOM     12  S   UNL     1       3.085  -4.843  -2.275  0.00  0.00    -0.015 S 
ATOM     13  H   UNL     1      -1.534  -4.190  -3.453  0.00  0.00    +0.188 HD
ENDROOT
BRANCH   7  14
ATOM     14  C   UNL     1      -1.855  -8.893  -0.886  0.00  0.00    -0.003 A 
ATOM     15  C   UNL     1      -0.752  -9.490  -0.119  0.00  0.00    +0.031 A 
ATOM     16  C   UNL     1      -1.184 -10.694   0.293  0.00  0.00    +0.022 A 
ATOM     17  N   UNL     1      -2.461 -10.891  -0.155  0.00  0.00    -0.317 N 
ATOM     18  C   UNL     1      -2.882  -9.822  -0.859  0.00  0.00    +0.028 A 
ATOM     19  C   UNL     1      -4.234  -9.665  -1.506  0.00  0.00    +0.064 C 
ATOM     20  C   UNL     1      -0.387 -11.671   1.117  0.00  0.00    +0.064 C 
BRANCH  17  21
ATOM     21  C   UNL     1      -3.224 -12.041   0.087  0.00  0.00    +0.048 A 
ATOM     22  C   UNL     1      -3.593 -12.866  -0.968  0.00  0.00    +0.029 A 
ATOM     23  C   UNL     1      -4.346 -13.999  -0.728  0.00  0.00    +0.042 A 
ATOM     24  C   UNL     1      -4.732 -14.314   0.564  0.00  0.00    +0.142 A 
ATOM     25  C   UNL     1      -4.366 -13.493   1.618  0.00  0.00    +0.078 A 
ATOM     26  C   UNL     1      -3.608 -12.361   1.382  0.00  0.00    +0.049 A 
ATOM     27 CL   UNL     1      -4.853 -13.889   3.237  0.00  0.00    -0.081 Cl
ATOM     28  F   UNL     1      -5.468 -15.423   0.796  0.00  0.00    -0.204 F 
ENDBRANCH  17  21
ENDBRANCH   7  14
BRANCH   1  29
ATOM     29  S   UNL     1       2.695  -1.664  -2.262  0.00  0.00    +0.022 S 
ATOM     30  O   UNL     1       1.623  -0.903  -2.803  0.00  0.00    -0.167 OA
ATOM     31  O   UNL     1       3.961  -1.693  -2.906  0.00  0.00    -0.167 OA
BRANCH  29  33
ATOM     32  C   UNL     1       3.392   0.149  -0.336  0.00  0.00    +0.028 C 
ATOM     33  C   UNL     1       2.898  -1.290  -0.498  0.00  0.00    +0.171 C 
ENDBRANCH  29  33
ENDBRANCH   1  29
TORSDOF 4
