REMARK  Name = ZINC35361600
REMARK  9 active torsions:
REMARK  status: ('A' for Active; 'I' for Inactive)
REMARK    1  A    between atoms: C_1  and  C_2
REMARK    2  A    between atoms: C_5  and  C_35
REMARK    3  A    between atoms: N_8  and  S_10
REMARK    4  A    between atoms: S_10  and  C_13
REMARK    5  A    between atoms: C_16  and  C_19
REMARK    6  A    between atoms: N_21  and  C_22
REMARK    7  A    between atoms: C_22  and  C_23
REMARK    8  A    between atoms: C_23  and  C_25
REMARK    9  A    between atoms: C_23  and  N_30
REMARK                            x       y       z     vdW  Elec       q    Type
REMARK                         _______ _______ _______ _____ _____    ______ ____
ROOT
ATOM      1  C   UNL     1       1.543  -3.194   3.642  0.00  0.00    +0.106 A 
ATOM      2  C   UNL     1       2.498  -4.145   3.329  0.00  0.00    +0.029 A 
ATOM      3  C   UNL     1       3.626  -4.278   4.112  0.00  0.00    +0.015 A 
ATOM      4  C   UNL     1       3.803  -3.451   5.222  0.00  0.00    +0.037 A 
ATOM      5  C   UNL     1       2.835  -2.494   5.533  0.00  0.00    +0.015 A 
ATOM      6  C   UNL     1       1.715  -2.367   4.738  0.00  0.00    +0.029 A 
ENDROOT
BRANCH   4   7
ATOM      7  C   UNL     1       5.009  -3.588   6.066  0.00  0.00    +0.244 C 
ATOM      8  O   UNL     1       5.849  -4.423   5.794  0.00  0.00    -0.270 OA
ATOM      9  N   UNL     1       5.176  -2.788   7.138  0.00  0.00    -0.312 N 
ATOM     10  H   UNL     1       4.505  -2.122   7.355  0.00  0.00    +0.149 HD
BRANCH   9  11
ATOM     11  C   UNL     1       6.372  -2.924   7.974  0.00  0.00    +0.097 C 
BRANCH  11  12
ATOM     12  C   UNL     1       6.366  -1.839   9.052  0.00  0.00    +0.016 C 
BRANCH  12  13
ATOM     13  N   UNL     1       7.626  -1.891   9.806  0.00  0.00    +0.387 N 
ATOM     14  C   UNL     1       8.772  -1.591   8.910  0.00  0.00    -0.078 C 
ATOM     15  C   UNL     1       9.879  -1.133   9.891  0.00  0.00    -0.020 C 
ATOM     16  C   UNL     1       9.091  -0.330  10.952  0.00  0.00    -0.020 C 
ATOM     17  C   UNL     1       7.642  -0.839  10.846  0.00  0.00    -0.078 C 
ATOM     18  H   UNL     1       7.742  -2.800  10.229  0.00  0.00    -0.081 HD
ENDBRANCH  12  13
BRANCH  12  19
ATOM     19  C   UNL     1       5.209  -2.068   9.990  0.00  0.00    +0.093 A 
ATOM     20  C   UNL     1       4.028  -1.425   9.956  0.00  0.00    +0.043 A 
ATOM     21  C   UNL     1       3.245  -1.950  11.009  0.00  0.00    +0.041 A 
ATOM     22  C   UNL     1       3.994  -2.883  11.624  0.00  0.00    +0.195 A 
ATOM     23  O   UNL     1       5.181  -2.954  11.000  0.00  0.00    -0.469 OA
ENDBRANCH  12  19
ENDBRANCH  11  12
ENDBRANCH   9  11
ENDBRANCH   4   7
BRANCH   1  24
ATOM     24  S   UNL     1       0.105  -3.031   2.637  0.00  0.00    +0.061 S 
ATOM     25  O   UNL     1      -0.894  -2.434   3.452  0.00  0.00    -0.153 OA
ATOM     26  O   UNL     1      -0.084  -4.283   1.992  0.00  0.00    -0.153 OA
BRANCH  24  32
ATOM     27  C   UNL     1      -0.804   1.535   0.614  0.00  0.00    +0.009 C 
ATOM     28  C   UNL     1      -0.646   0.018   0.491  0.00  0.00    +0.002 C 
ATOM     29  C   UNL     1       0.039  -0.319  -0.835  0.00  0.00    +0.009 C 
ATOM     30  C   UNL     1       0.168  -1.838  -0.973  0.00  0.00    +0.002 C 
ATOM     31  C   UNL     1       1.034  -2.378   0.169  0.00  0.00    +0.112 C 
ATOM     32  N   UNL     1       0.462  -1.935   1.447  0.00  0.00    -0.176 NA
ATOM     33  C   UNL     1       0.211  -0.502   1.651  0.00  0.00    +0.112 C 
ATOM     34  C   UNL     1       0.822  -2.175  -2.315  0.00  0.00    +0.009 C 
ENDBRANCH  24  32
ENDBRANCH   1  24
TORSDOF 7
