REMARK  Name = ZINC21255743
REMARK  9 active torsions:
REMARK  status: ('A' for Active; 'I' for Inactive)
REMARK    1  A    between atoms: C_1  and  C_2
REMARK    2  A    between atoms: C_2  and  O_3
REMARK    3  A    between atoms: O_3  and  C_4
REMARK    4  A    between atoms: C_7  and  C_10
REMARK    5  A    between atoms: C_15  and  C_21
REMARK    6  A    between atoms: C_26  and  O_27
REMARK    7  A    between atoms: O_27  and  C_28
REMARK    8  A    between atoms: C_28  and  C_29
REMARK    9  A    between atoms: C_28  and  C_30
REMARK                            x       y       z     vdW  Elec       q    Type
REMARK                         _______ _______ _______ _____ _____    ______ ____
ROOT
ATOM      1  C   UNL     1       4.248   1.700   1.046  0.00  0.00    +0.032 C 
ATOM      2  C   UNL     1       3.202   1.052   0.136  0.00  0.00    +0.059 C 
ATOM      3  C   UNL     1       1.857   1.691   0.375  0.00  0.00    +0.018 C 
ATOM      4  C   UNL     1       1.762   2.983   0.753  0.00  0.00    +0.020 C 
ATOM      5  C   UNL     1       0.404   3.605   0.978  0.00  0.00    +0.066 C 
ATOM      6  C   UNL     1      -0.596   3.013  -0.017  0.00  0.00    +0.109 C 
ATOM      7  C   UNL     1      -0.470   1.511  -0.012  0.00  0.00    +0.218 C 
ATOM      8  O   UNL     1      -1.450   0.821  -0.195  0.00  0.00    -0.275 OA
ATOM      9  N   UNL     1       0.726   0.935   0.198  0.00  0.00    -0.289 N 
ATOM     10  C   UNL     1       2.907   3.775   0.947  0.00  0.00    +0.162 C 
ATOM     11  O   UNL     1       2.782   4.938   1.275  0.00  0.00    -0.292 OA
ATOM     12  C   UNL     1       4.286   3.204   0.753  0.00  0.00    +0.088 C 
ATOM     13  H   UNL     1       0.789  -0.163   0.226  0.00  0.00    +0.155 HD
ENDROOT
BRANCH   1  17
ATOM     14  C   UNL     1       8.085  -0.011   0.267  0.00  0.00    +0.121 A 
ATOM     15  C   UNL     1       7.527  -0.104   1.534  0.00  0.00    +0.046 A 
ATOM     16  C   UNL     1       6.287   0.450   1.783  0.00  0.00    +0.007 A 
ATOM     17  C   UNL     1       5.601   1.097   0.771  0.00  0.00    -0.043 A 
ATOM     18  C   UNL     1       6.153   1.186  -0.494  0.00  0.00    +0.007 A 
ATOM     19  C   UNL     1       7.396   0.638  -0.747  0.00  0.00    +0.046 A 
BRANCH  14  20
ATOM     20  O   UNL     1       9.306  -0.555   0.019  0.00  0.00    -0.492 OA
BRANCH  20  22
ATOM     21  C   UNL     1      11.192  -1.090  -1.394  0.00  0.00    +0.048 C 
ATOM     22  C   UNL     1       9.819  -0.421  -1.308  0.00  0.00    +0.225 C 
ENDBRANCH  20  22
ENDBRANCH  14  20
ENDBRANCH   1  17
BRANCH   5  23
ATOM     23  C   UNL     1      -0.055   3.316   2.384  0.00  0.00    +0.002 A 
ATOM     24  C   UNL     1      -0.212   2.010   2.805  0.00  0.00    +0.008 A 
ATOM     25  C   UNL     1      -0.633   1.744   4.095  0.00  0.00    +0.001 A 
ATOM     26  C   UNL     1      -0.897   2.785   4.967  0.00  0.00    +0.004 A 
ATOM     27  C   UNL     1      -0.740   4.092   4.551  0.00  0.00    +0.046 A 
ATOM     28  C   UNL     1      -0.314   4.362   3.258  0.00  0.00    +0.125 A 
BRANCH  28  29
ATOM     29  O   UNL     1      -0.154   5.647   2.848  0.00  0.00    -0.489 OA
BRANCH  29  30
ATOM     30  C   UNL     1      -0.326   6.668   3.833  0.00  0.00    +0.167 C 
ATOM     31  C   UNL     1       0.459   7.914   3.417  0.00  0.00    +0.051 C 
ATOM     32  C   UNL     1      -1.811   7.018   3.951  0.00  0.00    +0.051 C 
ENDBRANCH  29  30
ENDBRANCH  28  29
ENDBRANCH   5  23
TORSDOF 6
