REMARK  Name = ZINC27520962
REMARK  11 active torsions:
REMARK  status: ('A' for Active; 'I' for Inactive)
REMARK    1  A    between atoms: C_1  and  C_2
REMARK    2  A    between atoms: C_2  and  O_3
REMARK    3  A    between atoms: O_3  and  C_4
REMARK    4  A    between atoms: C_4  and  C_6
REMARK    5  A    between atoms: C_7  and  C_35
REMARK    6  A    between atoms: C_8  and  C_34
REMARK    7  A    between atoms: C_10  and  N_11
REMARK    8  A    between atoms: C_13  and  C_24
REMARK    9  A    between atoms: C_19  and  O_22
REMARK   10  A    between atoms: O_22  and  C_23
REMARK   11  A    between atoms: N_26  and  C_27
REMARK                            x       y       z     vdW  Elec       q    Type
REMARK                         _______ _______ _______ _____ _____    ______ ____
ROOT
ATOM      1  N   UNL     1       4.764  -4.383  -0.920  0.00  0.00    -0.319 N 
ATOM      2  C   UNL     1       3.694  -4.948  -0.391  0.00  0.00    +0.212 A 
ATOM      3  C   UNL     1       2.430  -4.202  -0.256  0.00  0.00    +0.098 A 
ATOM      4  C   UNL     1       1.254  -4.943  -0.251  0.00  0.00    +0.030 A 
ATOM      5  C   UNL     1       1.376  -6.397  -0.374  0.00  0.00    +0.022 A 
ATOM      6  C   UNL     1       0.253  -7.191  -0.644  0.00  0.00    +0.012 A 
ATOM      7  C   UNL     1       0.391  -8.545  -0.760  0.00  0.00    +0.004 A 
ATOM      8  C   UNL     1       1.633  -9.144  -0.612  0.00  0.00    +0.049 A 
ATOM      9  C   UNL     1       2.756  -8.381  -0.343  0.00  0.00    +0.163 A 
ATOM     10  C   UNL     1       2.638  -6.999  -0.220  0.00  0.00    +0.179 A 
ATOM     11  O   UNL     1       3.723  -6.233   0.050  0.00  0.00    -0.435 OA
ATOM     12  H   UNL     1       4.721  -3.341  -1.267  0.00  0.00    +0.169 HD
ENDROOT
BRANCH   1  17
ATOM     13  C   UNL     1       7.145  -4.674  -1.560  0.00  0.00    +0.093 A 
ATOM     14  C   UNL     1       8.205  -5.652  -1.552  0.00  0.00    -0.024 A 
ATOM     15  C   UNL     1       7.950  -6.873  -1.050  0.00  0.00    -0.008 A 
ATOM     16  S   UNL     1       6.244  -6.767  -0.547  0.00  0.00    -0.075 S 
ATOM     17  C   UNL     1       5.909  -5.084  -1.034  0.00  0.00    +0.095 A 
ATOM     18  C   UNL     1       8.886  -8.048  -0.934  0.00  0.00    +0.052 C 
ATOM     19  C   UNL     1       9.569  -5.312  -2.095  0.00  0.00    +0.045 C 
BRANCH  13  20
ATOM     20  C   UNL     1       7.341  -3.367  -2.074  0.00  0.00    +0.342 C 
ATOM     21  O   UNL     1       7.722  -2.475  -1.338  0.00  0.00    -0.245 OA
BRANCH  20  22
ATOM     22  O   UNL     1       7.104  -3.111  -3.377  0.00  0.00    -0.461 OA
BRANCH  22  24
ATOM     23  C   UNL     1       7.003  -1.677  -5.319  0.00  0.00    +0.048 C 
ATOM     24  C   UNL     1       7.322  -1.772  -3.826  0.00  0.00    +0.229 C 
ENDBRANCH  22  24
ENDBRANCH  20  22
ENDBRANCH  13  20
ENDBRANCH   1  17
BRANCH   3  25
ATOM     25  C   UNL     1       2.414  -2.733  -0.137  0.00  0.00    +0.253 C 
ATOM     26  O   UNL     1       3.459  -2.111  -0.144  0.00  0.00    -0.270 OA
ATOM     27  N   UNL     1       1.241  -2.080  -0.021  0.00  0.00    -0.279 N 
ATOM     28  H   UNL     1       0.303  -2.646   0.078  0.00  0.00    +0.155 HD
BRANCH  27  29
ATOM     29  C   UNL     1       1.216  -0.680  -0.025  0.00  0.00    +0.069 A 
ATOM     30  C   UNL     1       2.237   0.032  -0.639  0.00  0.00    +0.026 A 
ATOM     31  C   UNL     1       2.210   1.413  -0.641  0.00  0.00    +0.002 A 
ATOM     32  C   UNL     1       1.168   2.087  -0.032  0.00  0.00    +0.003 A 
ATOM     33  C   UNL     1       0.148   1.383   0.581  0.00  0.00    +0.040 A 
ATOM     34  C   UNL     1       0.169  -0.000   0.587  0.00  0.00    +0.144 A 
ATOM     35  F   UNL     1      -0.828  -0.689   1.186  0.00  0.00    -0.204 F 
ENDBRANCH  27  29
ENDBRANCH   3  25
BRANCH   9  36
ATOM     36  O   UNL     1       3.970  -8.978  -0.199  0.00  0.00    -0.491 OA
ATOM     37  C   UNL     1       4.014 -10.399  -0.338  0.00  0.00    +0.277 C 
ENDBRANCH   9  36
TORSDOF 7
