REMARK  Name = ZINC38959029
REMARK  13 active torsions:
REMARK  status: ('A' for Active; 'I' for Inactive)
REMARK    1  A    between atoms: C_1  and  C_2
REMARK    2  A    between atoms: C_9  and  C_14
REMARK    3  A    between atoms: C_14  and  N_15
REMARK    4  A    between atoms: N_15  and  C_16
REMARK    5  A    between atoms: C_20  and  O_22
REMARK    6  A    between atoms: O_22  and  C_23
REMARK    7  A    between atoms: C_24  and  C_26
REMARK    8  A    between atoms: C_28  and  O_36
REMARK    9  A    between atoms: C_29  and  O_34
REMARK   10  A    between atoms: C_30  and  O_32
REMARK   11  A    between atoms: O_32  and  C_33
REMARK   12  A    between atoms: O_34  and  C_35
REMARK   13  A    between atoms: O_36  and  C_37
REMARK                            x       y       z     vdW  Elec       q    Type
REMARK                         _______ _______ _______ _____ _____    ______ ____
ROOT
ATOM      1  N   UNL     1       3.090  -6.111   4.900  0.00  0.00    -0.266 N 
ATOM      2  C   UNL     1       1.878  -6.587   5.248  0.00  0.00    +0.251 C 
ATOM      3  O   UNL     1       1.574  -7.733   4.976  0.00  0.00    -0.270 OA
ENDROOT
BRANCH   1   4
ATOM      4  C   UNL     1       4.066  -6.979   4.401  0.00  0.00    +0.040 A 
ATOM      5  C   UNL     1       5.364  -6.526   4.203  0.00  0.00    +0.024 A 
ATOM      6  C   UNL     1       6.328  -7.384   3.709  0.00  0.00    +0.005 A 
ATOM      7  C   UNL     1       6.004  -8.694   3.411  0.00  0.00    +0.046 A 
ATOM      8  C   UNL     1       4.709  -9.152   3.607  0.00  0.00    +0.122 A 
ATOM      9  C   UNL     1       3.740  -8.296   4.107  0.00  0.00    +0.069 A 
BRANCH   8  10
ATOM     10  O   UNL     1       4.391 -10.440   3.314  0.00  0.00    -0.495 OA
ATOM     11  C   UNL     1       5.462 -11.297   2.912  0.00  0.00    +0.277 C 
ENDBRANCH   8  10
ENDBRANCH   1   4
BRANCH   2  12
ATOM     12  C   UNL     1       0.920  -5.719   5.959  0.00  0.00    +0.044 A 
ATOM     13  C   UNL     1       0.761  -4.386   5.570  0.00  0.00    +0.062 A 
ATOM     14  C   UNL     1      -0.137  -3.575   6.238  0.00  0.00    +0.166 A 
ATOM     15  C   UNL     1      -0.883  -4.085   7.297  0.00  0.00    +0.204 A 
ATOM     16  C   UNL     1      -0.727  -5.412   7.686  0.00  0.00    +0.166 A 
ATOM     17  C   UNL     1       0.165  -6.229   7.018  0.00  0.00    +0.062 A 
BRANCH  16  18
ATOM     18  O   UNL     1      -1.458  -5.907   8.721  0.00  0.00    -0.491 OA
ATOM     19  C   UNL     1      -1.247  -7.277   9.067  0.00  0.00    +0.277 C 
ENDBRANCH  16  18
BRANCH  15  20
ATOM     20  O   UNL     1      -1.765  -3.285   7.952  0.00  0.00    -0.488 OA
ATOM     21  C   UNL     1      -3.103  -3.249   7.452  0.00  0.00    +0.277 C 
ENDBRANCH  15  20
BRANCH  14  22
ATOM     22  O   UNL     1      -0.291  -2.277   5.860  0.00  0.00    -0.491 OA
ATOM     23  C   UNL     1       0.192  -1.917   4.564  0.00  0.00    +0.277 C 
ENDBRANCH  14  22
ENDBRANCH   2  12
BRANCH   1  24
ATOM     24  C   UNL     1       3.385  -4.683   5.046  0.00  0.00    +0.131 C 
BRANCH  24  33
ATOM     25  C   UNL     1       6.018   1.518   2.674  0.00  0.00    +0.044 C 
ATOM     26  C   UNL     1       5.702   0.050   2.540  0.00  0.00    -0.050 A 
ATOM     27  C   UNL     1       6.429  -0.725   1.637  0.00  0.00    +0.005 A 
ATOM     28  C   UNL     1       6.202  -2.053   1.461  0.00  0.00    +0.024 A 
ATOM     29  C   UNL     1       5.202  -2.710   2.201  0.00  0.00    +0.040 A 
ATOM     30  N   UNL     1       4.988  -4.013   2.021  0.00  0.00    -0.284 N 
ATOM     31  C   UNL     1       4.066  -4.692   2.683  0.00  0.00    +0.226 C 
ATOM     32  O   UNL     1       3.917  -5.881   2.476  0.00  0.00    -0.275 OA
ATOM     33  C   UNL     1       3.197  -3.984   3.698  0.00  0.00    +0.116 C 
ATOM     34  C   UNL     1       3.437  -2.501   3.907  0.00  0.00    -0.003 C 
ATOM     35  C   UNL     1       4.419  -1.916   3.163  0.00  0.00    -0.007 A 
ATOM     36  C   UNL     1       4.720  -0.491   3.306  0.00  0.00    +0.012 A 
ATOM     37  H   UNL     1       5.535  -4.487   1.375  0.00  0.00    +0.155 HD
ENDBRANCH  24  33
ENDBRANCH   1  24
TORSDOF 8
