REMARK  Name = ZINC40149326
REMARK  9 active torsions:
REMARK  status: ('A' for Active; 'I' for Inactive)
REMARK    1  A    between atoms: C_1  and  C_2
REMARK    2  A    between atoms: N_5  and  C_8
REMARK    3  A    between atoms: C_8  and  C_9
REMARK    4  A    between atoms: N_21  and  C_22
REMARK    5  A    between atoms: C_22  and  C_24
REMARK    6  A    between atoms: C_22  and  C_25
REMARK    7  A    between atoms: C_28  and  N_31
REMARK    8  A    between atoms: N_31  and  S_32
REMARK    9  A    between atoms: S_32  and  C_35
REMARK                            x       y       z     vdW  Elec       q    Type
REMARK                         _______ _______ _______ _____ _____    ______ ____
ROOT
ATOM      1  C   UNL     1      -0.282  -4.807   2.118  0.00  0.00    +0.116 A 
ATOM      2  N   UNL     1       1.021  -4.988   2.243  0.00  0.00    -0.219 NA
ATOM      3  C   UNL     1       1.587  -5.253   3.410  0.00  0.00    +0.131 A 
ATOM      4  C   UNL     1       0.767  -5.346   4.568  0.00  0.00    +0.051 A 
ATOM      5  C   UNL     1       1.171  -5.628   5.955  0.00  0.00    -0.025 A 
ATOM      6  C   UNL     1       0.195  -5.663   6.876  0.00  0.00    -0.004 A 
ATOM      7  S   UNL     1      -1.302  -5.326   5.977  0.00  0.00    -0.073 S 
ATOM      8  C   UNL     1      -0.609  -5.141   4.357  0.00  0.00    +0.114 A 
ATOM      9  N   UNL     1      -1.090  -4.876   3.158  0.00  0.00    -0.227 NA
ATOM     10  C   UNL     1       0.723  -5.964   8.253  0.00  0.00    +0.043 C 
ATOM     11  C   UNL     1       2.134  -6.543   8.009  0.00  0.00    +0.010 C 
ATOM     12  C   UNL     1       2.504  -5.905   6.656  0.00  0.00    +0.037 C 
ATOM     13  N   UNL     1       2.955  -5.437   3.501  0.00  0.00    -0.322 N 
ATOM     14  H   UNL     1       3.362  -5.630   4.360  0.00  0.00    +0.148 HD
ENDROOT
BRANCH  13  15
ATOM     15  C   UNL     1       3.789  -5.339   2.301  0.00  0.00    +0.099 C 
ATOM     16  C   UNL     1       4.151  -3.873   2.050  0.00  0.00    +0.033 C 
BRANCH  15  17
ATOM     17  C   UNL     1       5.050  -6.140   2.499  0.00  0.00    -0.027 A 
ATOM     18  C   UNL     1       5.690  -6.129   3.724  0.00  0.00    +0.007 A 
ATOM     19  C   UNL     1       6.845  -6.862   3.909  0.00  0.00    +0.025 A 
ATOM     20  C   UNL     1       7.364  -7.612   2.861  0.00  0.00    +0.048 A 
ATOM     21  C   UNL     1       6.719  -7.622   1.631  0.00  0.00    +0.025 A 
ATOM     22  C   UNL     1       5.561  -6.890   1.455  0.00  0.00    +0.007 A 
BRANCH  20  23
ATOM     23  N   UNL     1       8.533  -8.355   3.044  0.00  0.00    -0.221 N 
ATOM     24  H   UNL     1       9.370  -8.042   2.667  0.00  0.00    +0.173 HD
BRANCH  23  25
ATOM     25  S   UNL     1       8.489  -9.769   3.905  0.00  0.00    +0.040 S 
ATOM     26  O   UNL     1       9.829 -10.242   3.895  0.00  0.00    -0.155 OA
ATOM     27  O   UNL     1       7.851  -9.429   5.128  0.00  0.00    -0.155 OA
ATOM     28  C   UNL     1       7.429 -10.874   2.933  0.00  0.00    +0.218 C 
ENDBRANCH  23  25
ENDBRANCH  20  23
ENDBRANCH  15  17
ENDBRANCH  13  15
BRANCH   1  29
ATOM     29  C   UNL     1      -0.856  -4.509   0.757  0.00  0.00    -0.001 C 
BRANCH  29  34
ATOM     30  C   UNL     1      -0.301   0.870  -1.054  0.00  0.00    +0.007 C 
ATOM     31  C   UNL     1      -0.216  -0.653  -0.941  0.00  0.00    -0.018 C 
ATOM     32  C   UNL     1      -1.628  -1.245  -0.927  0.00  0.00    -0.016 C 
ATOM     33  C   UNL     1      -1.539  -2.760  -0.734  0.00  0.00    -0.078 C 
ATOM     34  N   UNL     1      -0.871  -3.056   0.539  0.00  0.00    +0.384 N 
ATOM     35  C   UNL     1       0.508  -2.554   0.506  0.00  0.00    -0.078 C 
ATOM     36  C   UNL     1       0.498  -1.031   0.360  0.00  0.00    -0.016 C 
ATOM     37  H   UNL     1      -1.372  -2.610   1.292  0.00  0.00    -0.081 HD
ENDBRANCH  29  34
ENDBRANCH   1  29
TORSDOF 6
