REMARK  Name = ZINC06029705
REMARK  9 active torsions:
REMARK  status: ('A' for Active; 'I' for Inactive)
REMARK    1  A    between atoms: C_1  and  C_2
REMARK    2  A    between atoms: C_5  and  C_8
REMARK    3  A    between atoms: N_10  and  C_11
REMARK    4  A    between atoms: C_12  and  C_25
REMARK    5  A    between atoms: C_17  and  C_21
REMARK    6  A    between atoms: C_21  and  C_22
REMARK    7  A    between atoms: C_21  and  C_23
REMARK    8  A    between atoms: C_21  and  C_24
REMARK    9  A    between atoms: N_27  and  C_28
REMARK                            x       y       z     vdW  Elec       q    Type
REMARK                         _______ _______ _______ _____ _____    ______ ____
ROOT
ATOM      1  C   UNL     1      -1.202   3.157   6.125  0.00  0.00    +0.085 A 
ATOM      2  C   UNL     1      -1.641   3.873   5.020  0.00  0.00    +0.069 A 
ATOM      3  C   UNL     1      -1.266   3.377   3.707  0.00  0.00    -0.023 A 
ATOM      4  C   UNL     1      -0.519   2.252   3.708  0.00  0.00    -0.004 A 
ATOM      5  S   UNL     1      -0.310   1.850   5.420  0.00  0.00    -0.077 S 
ATOM      6  C   UNL     1       0.010   1.518   2.515  0.00  0.00    +0.046 C 
ATOM      7  C   UNL     1      -0.735   2.019   1.269  0.00  0.00    -0.000 C 
ATOM      8  C   UNL     1      -0.751   3.550   1.284  0.00  0.00    +0.009 C 
ATOM      9  C   UNL     1      -1.668   4.051   2.400  0.00  0.00    +0.037 C 
ENDROOT
BRANCH   2  10
ATOM     10  C   UNL     1      -2.452   5.085   5.173  0.00  0.00    +0.246 C 
ATOM     11  O   UNL     1      -1.912   6.171   5.266  0.00  0.00    -0.270 OA
ATOM     12  N   UNL     1      -3.796   4.995   5.210  0.00  0.00    -0.314 N 
ATOM     13  C   UNL     1      -4.607   6.206   5.362  0.00  0.00    +0.128 C 
ATOM     14  H   UNL     1      -4.227   4.130   5.136  0.00  0.00    +0.149 HD
ENDBRANCH   2  10
BRANCH   1  17
ATOM     15  C   UNL     1      -0.913   2.605   8.409  0.00  0.00    +0.249 C 
ATOM     16  O   UNL     1      -0.258   1.635   8.082  0.00  0.00    -0.270 OA
ATOM     17  N   UNL     1      -1.424   3.422   7.467  0.00  0.00    -0.275 N 
ATOM     18  H   UNL     1      -1.947   4.196   7.728  0.00  0.00    +0.156 HD
BRANCH  15  23
ATOM     19  C   UNL     1      -1.832   3.709  13.981  0.00  0.00    +0.044 C 
ATOM     20  C   UNL     1      -1.591   3.420  12.522  0.00  0.00    -0.050 A 
ATOM     21  C   UNL     1      -0.845   2.315  12.152  0.00  0.00    +0.004 A 
ATOM     22  C   UNL     1      -0.621   2.044  10.819  0.00  0.00    +0.013 A 
ATOM     23  C   UNL     1      -1.149   2.889   9.840  0.00  0.00    +0.037 A 
ATOM     24  C   UNL     1      -1.897   4.005  10.220  0.00  0.00    +0.013 A 
ATOM     25  C   UNL     1      -2.118   4.261  11.557  0.00  0.00    +0.004 A 
ENDBRANCH  15  23
ENDBRANCH   1  17
BRANCH   7  26
ATOM     26  C   UNL     1      -0.019   1.526   0.010  0.00  0.00    -0.035 C 
ATOM     27  C   UNL     1       0.002  -0.004   0.002  0.00  0.00    +0.011 C 
ATOM     28  C   UNL     1       1.417   2.055  -0.000  0.00  0.00    +0.011 C 
ATOM     29  C   UNL     1      -0.759   2.033  -1.229  0.00  0.00    +0.011 C 
ENDBRANCH   7  26
TORSDOF 4
