REMARK  Name = ZINC39215152
REMARK  6 active torsions:
REMARK  status: ('A' for Active; 'I' for Inactive)
REMARK    1  A    between atoms: C_3  and  O_27
REMARK    2  A    between atoms: C_6  and  N_7
REMARK    3  A    between atoms: C_8  and  C_10
REMARK    4  A    between atoms: C_10  and  S_11
REMARK    5  A    between atoms: S_11  and  C_12
REMARK    6  A    between atoms: O_27  and  C_28
REMARK                            x       y       z     vdW  Elec       q    Type
REMARK                         _______ _______ _______ _____ _____    ______ ____
ROOT
ATOM      1  C   UNL     1      -2.482  -2.827  -0.204  0.00  0.00    +0.173 C 
ENDROOT
BRANCH   1   3
ATOM      2  N   UNL     1      -1.202  -0.721   0.010  0.00  0.00    -0.285 N 
ATOM      3  C   UNL     1      -1.186  -2.065  -0.099  0.00  0.00    +0.227 C 
ATOM      4  O   UNL     1      -0.129  -2.660  -0.113  0.00  0.00    -0.275 OA
ATOM      5  H   UNL     1      -2.046  -0.252   0.098  0.00  0.00    +0.155 HD
BRANCH   2  11
ATOM      6  C   UNL     1       1.071  -0.455  -0.766  0.00  0.00    +0.027 A 
ATOM      7  C   UNL     1       2.256   0.254  -0.780  0.00  0.00    +0.048 A 
ATOM      8  C   UNL     1       2.379   1.415  -0.032  0.00  0.00    +0.129 A 
ATOM      9  C   UNL     1       1.311   1.866   0.730  0.00  0.00    +0.048 A 
ATOM     10  C   UNL     1       0.126   1.159   0.745  0.00  0.00    +0.027 A 
ATOM     11  C   UNL     1       0.002  -0.004  -0.004  0.00  0.00    +0.034 A 
BRANCH   8  12
ATOM     12  O   UNL     1       3.547   2.112  -0.045  0.00  0.00    -0.420 OA
BRANCH  12  13
ATOM     13  C   UNL     1       3.603   3.299   0.748  0.00  0.00    +0.489 C 
ATOM     14  F   UNL     1       2.624   4.198   0.313  0.00  0.00    -0.149 F 
ATOM     15  F   UNL     1       3.375   2.974   2.090  0.00  0.00    -0.149 F 
ATOM     16 CL   UNL     1       5.231   4.056   0.582  0.00  0.00    +0.000 Cl
ENDBRANCH  12  13
ENDBRANCH   8  12
ENDBRANCH   2  11
ENDBRANCH   1   3
BRANCH   1  17
ATOM     17  S   UNL     1      -2.130  -4.602  -0.337  0.00  0.00    -0.079 S 
BRANCH  17  18
ATOM     18  C   UNL     1      -3.724  -5.345  -0.450  0.00  0.00    +0.182 C 
ATOM     19  N   UNL     1      -4.787  -4.560  -0.426  0.00  0.00    -0.151 NA
ATOM     20  C   UNL     1      -6.032  -5.031  -0.500  0.00  0.00    +0.272 C 
ATOM     21  O   UNL     1      -6.991  -4.277  -0.478  0.00  0.00    -0.268 OA
ATOM     22  C   UNL     1      -6.218  -6.514  -0.612  0.00  0.00    +0.071 C 
ATOM     23  C   UNL     1      -7.373  -7.199  -0.635  0.00  0.00    -0.042 C 
ATOM     24  C   UNL     1      -8.740  -6.570  -0.379  0.00  0.00    +0.033 C 
ATOM     25  C   UNL     1      -9.386  -7.367   0.762  0.00  0.00    +0.004 C 
ATOM     26  C   UNL     1      -9.383  -8.858   0.433  0.00  0.00    +0.002 C 
ATOM     27  C   UNL     1      -7.951  -9.388   0.319  0.00  0.00    +0.019 C 
ATOM     28  C   UNL     1      -7.270  -8.703  -0.869  0.00  0.00    +0.079 C 
ATOM     29  S   UNL     1      -5.459  -8.976  -0.797  0.00  0.00    -0.097 S 
ATOM     30  C   UNL     1      -4.954  -7.282  -0.639  0.00  0.00    +0.112 C 
ATOM     31  N   UNL     1      -3.800  -6.671  -0.561  0.00  0.00    -0.217 NA
ENDBRANCH  17  18
ENDBRANCH   1  17
TORSDOF 6
