REMARK  Name = ZINC13431203
REMARK  5 active torsions:
REMARK  status: ('A' for Active; 'I' for Inactive)
REMARK    1  A    between atoms: N_10  and  S_11
REMARK    2  A    between atoms: S_11  and  C_14
REMARK    3  A    between atoms: C_17  and  C_20
REMARK    4  A    between atoms: N_22  and  C_23
REMARK    5  A    between atoms: C_28  and  C_29
REMARK                            x       y       z     vdW  Elec       q    Type
REMARK                         _______ _______ _______ _____ _____    ______ ____
ROOT
ATOM      1  C   UNL     1       2.399   0.049   0.005  0.00  0.00    +0.109 A 
ATOM      2  C   UNL     1       1.212  -0.662   0.000  0.00  0.00    +0.029 A 
ATOM      3  C   UNL     1       0.005   0.004   0.012  0.00  0.00    +0.015 A 
ATOM      4  C   UNL     1      -0.018   1.400   0.029  0.00  0.00    +0.037 A 
ATOM      5  C   UNL     1       1.183   2.112   0.034  0.00  0.00    +0.015 A 
ATOM      6  C   UNL     1       2.384   1.432   0.022  0.00  0.00    +0.029 A 
ENDROOT
BRANCH   4   7
ATOM      7  C   UNL     1      -1.308   2.121   0.035  0.00  0.00    +0.248 C 
ATOM      8  O   UNL     1      -2.353   1.499   0.026  0.00  0.00    -0.270 OA
ATOM      9  N   UNL     1      -1.327   3.469   0.052  0.00  0.00    -0.281 N 
ATOM     10  H   UNL     1      -0.497   3.966  -0.018  0.00  0.00    +0.155 HD
BRANCH   9  11
ATOM     11  C   UNL     1      -2.538   4.147   0.169  0.00  0.00    +0.052 A 
ATOM     12  C   UNL     1      -3.558   3.620   0.945  0.00  0.00    +0.073 A 
ATOM     13  C   UNL     1      -4.763   4.297   1.068  0.00  0.00    +0.164 A 
ATOM     14  C   UNL     1      -4.958   5.508   0.404  0.00  0.00    +0.163 A 
ATOM     15  C   UNL     1      -3.951   6.039  -0.378  0.00  0.00    +0.066 A 
ATOM     16  C   UNL     1      -2.732   5.364  -0.504  0.00  0.00    +0.088 A 
ATOM     17  O   UNL     1      -6.136   6.181   0.517  0.00  0.00    -0.485 OA
ATOM     18  C   UNL     1      -7.257   5.439   1.009  0.00  0.00    +0.270 C 
ATOM     19  C   UNL     1      -6.803   4.642   2.239  0.00  0.00    +0.270 C 
ATOM     20  O   UNL     1      -5.748   3.761   1.837  0.00  0.00    -0.485 OA
BRANCH  16  21
ATOM     21  C   UNL     1      -1.658   5.928  -1.337  0.00  0.00    +0.388 C 
ATOM     22  O   UNL     1      -0.570   5.387  -1.373  0.00  0.00    -0.241 OA
ATOM     23  O   UNL     1      -1.881   7.043  -2.060  0.00  0.00    -0.241 OA
ENDBRANCH  16  21
ENDBRANCH   9  11
ENDBRANCH   4   7
BRANCH   1  24
ATOM     24  S   UNL     1       3.937  -0.811  -0.009  0.00  0.00    +0.075 S 
ATOM     25  O   UNL     1       4.901   0.071   0.550  0.00  0.00    -0.150 OA
ATOM     26  O   UNL     1       3.685  -2.102   0.527  0.00  0.00    -0.150 OA
BRANCH  24  36
ATOM     27  C   UNL     1       6.380   1.983  -3.640  0.00  0.00    +0.000 A 
ATOM     28  C   UNL     1       5.781   2.251  -2.423  0.00  0.00    +0.002 A 
ATOM     29  C   UNL     1       5.112   1.249  -1.749  0.00  0.00    +0.025 A 
ATOM     30  C   UNL     1       5.040  -0.028  -2.295  0.00  0.00    +0.054 A 
ATOM     31  C   UNL     1       5.638  -0.295  -3.517  0.00  0.00    -0.025 A 
ATOM     32  C   UNL     1       6.309   0.716  -4.185  0.00  0.00    +0.005 A 
ATOM     33  C   UNL     1       5.575  -1.664  -4.141  0.00  0.00    +0.038 C 
ATOM     34  C   UNL     1       5.266  -2.722  -3.082  0.00  0.00    +0.025 C 
ATOM     35  C   UNL     1       4.033  -2.284  -2.288  0.00  0.00    +0.132 C 
ATOM     36  N   UNL     1       4.360  -1.031  -1.595  0.00  0.00    -0.203 N 
ENDBRANCH  24  36
ENDBRANCH   1  24
TORSDOF 5
