REMARK  Name = ZINC02288733
REMARK  9 active torsions:
REMARK  status: ('A' for Active; 'I' for Inactive)
REMARK    1  A    between atoms: C_3  and  N_29
REMARK    2  A    between atoms: C_6  and  C_7
REMARK    3  A    between atoms: C_10  and  C_12
REMARK    4  A    between atoms: N_16  and  C_20
REMARK    5  A    between atoms: C_20  and  C_22
REMARK    6  A    between atoms: C_20  and  C_27
REMARK    7  A    between atoms: C_22  and  C_23
REMARK    8  A    between atoms: C_23  and  C_24
REMARK    9  A    between atoms: C_24  and  C_25
REMARK                            x       y       z     vdW  Elec       q    Type
REMARK                         _______ _______ _______ _____ _____    ______ ____
ROOT
ATOM      1  C   UNL     1      -8.541   4.276   0.071  0.00  0.00    +0.066 C 
ATOM      2  C   UNL     1      -9.055   2.968   0.066  0.00  0.00    +0.080 C 
ATOM      3  C   UNL     1     -10.477   2.513   0.071  0.00  0.00    +0.259 C 
ATOM      4  O   UNL     1     -11.403   3.298   0.080  0.00  0.00    -0.269 OA
ATOM      5  N   UNL     1     -10.669   1.203   0.064  0.00  0.00    -0.241 N 
ATOM      6  C   UNL     1      -9.616   0.362   0.052  0.00  0.00    +0.121 C 
ATOM      7  S   UNL     1      -9.628  -1.350   0.041  0.00  0.00    -0.027 S 
ATOM      8  S   UNL     1      -8.206   1.454   0.045  0.00  0.00    -0.061 S 
ENDROOT
BRANCH   1  12
ATOM      9  C   UNL     1      -5.004   4.103   0.051  0.00  0.00    +0.136 A 
ATOM     10  C   UNL     1      -5.152   5.505   0.060  0.00  0.00    +0.050 A 
ATOM     11  C   UNL     1      -6.485   5.778   0.069  0.00  0.00    +0.050 A 
ATOM     12  C   UNL     1      -7.170   4.481   0.065  0.00  0.00    +0.130 A 
ATOM     13  O   UNL     1      -6.216   3.524   0.049  0.00  0.00    -0.455 OA
BRANCH   9  19
ATOM     14  C   UNL     1      -3.703   1.983   0.031  0.00  0.00    +0.014 A 
ATOM     15  C   UNL     1      -2.496   1.321   0.021  0.00  0.00    +0.033 A 
ATOM     16  C   UNL     1      -1.308   2.035   0.019  0.00  0.00    +0.126 A 
ATOM     17  C   UNL     1      -1.321   3.422   0.033  0.00  0.00    +0.033 A 
ATOM     18  C   UNL     1      -2.517   4.104   0.037  0.00  0.00    +0.014 A 
ATOM     19  C   UNL     1      -3.727   3.389   0.040  0.00  0.00    +0.017 A 
BRANCH  16  20
ATOM     20  N   UNL     1      -0.016   1.313   0.009  0.00  0.00    +0.056 N 
ATOM     21  O   UNL     1       0.002  -0.004   0.002  0.00  0.00    -0.126 OA
ATOM     22  O   UNL     1       1.116   1.987   0.002  0.00  0.00    -0.126 OA
ENDBRANCH  16  20
ENDBRANCH   9  19
ENDBRANCH   1  12
BRANCH   5  23
ATOM     23  C   UNL     1     -12.031   0.665   0.068  0.00  0.00    +0.195 C 
BRANCH  23  24
ATOM     24  C   UNL     1     -12.245  -0.172  -1.167  0.00  0.00    +0.376 C 
ATOM     25  O   UNL     1     -11.350  -0.306  -1.968  0.00  0.00    -0.244 OA
ATOM     26  O   UNL     1     -13.429  -0.769  -1.376  0.00  0.00    -0.244 OA
ENDBRANCH  23  24
BRANCH  23  27
ATOM     27  C   UNL     1     -12.235  -0.201   1.313  0.00  0.00    +0.035 C 
BRANCH  27  28
ATOM     28  C   UNL     1     -12.141   0.675   2.564  0.00  0.00    +0.014 C 
BRANCH  28  29
ATOM     29  C   UNL     1     -12.344  -0.190   3.809  0.00  0.00    +0.125 C 
BRANCH  29  30
ATOM     30  C   UNL     1     -12.252   0.672   5.041  0.00  0.00    +0.356 C 
ATOM     31  O   UNL     1     -12.046   1.858   4.934  0.00  0.00    -0.246 OA
ATOM     32  O   UNL     1     -12.400   0.124   6.257  0.00  0.00    -0.246 OA
ENDBRANCH  29  30
ENDBRANCH  28  29
ENDBRANCH  27  28
ENDBRANCH  23  27
ENDBRANCH   5  23
TORSDOF 9
