REMARK  Name = ZINC09077101
REMARK  7 active torsions:
REMARK  status: ('A' for Active; 'I' for Inactive)
REMARK    1  A    between atoms: C_1  and  C_2
REMARK    2  A    between atoms: C_5  and  N_8
REMARK    3  A    between atoms: N_11  and  C_12
REMARK    4  A    between atoms: C_12  and  C_14
REMARK    5  A    between atoms: C_12  and  C_15
REMARK    6  A    between atoms: C_18  and  S_21
REMARK    7  A    between atoms: S_21  and  N_24
REMARK                            x       y       z     vdW  Elec       q    Type
REMARK                         _______ _______ _______ _____ _____    ______ ____
ROOT
ATOM      1  C   UNL     1      -2.956   2.788   4.976  0.00  0.00    +0.102 C 
ATOM      2  C   UNL     1      -4.240   3.506   4.553  0.00  0.00    +0.033 C 
ENDROOT
BRANCH   1   6
ATOM      3  N   UNL     1      -1.717   4.504   7.983  0.00  0.00    -0.269 N 
ATOM      4  C   UNL     1      -2.437   3.700   7.175  0.00  0.00    +0.304 C 
ATOM      5  O   UNL     1      -3.322   3.007   7.639  0.00  0.00    -0.252 OA
ATOM      6  N   UNL     1      -2.175   3.663   5.854  0.00  0.00    -0.293 N 
ATOM      7  H   UNL     1      -0.962   4.998   7.627  0.00  0.00    +0.156 HD
ATOM      8  H   UNL     1      -1.468   4.215   5.484  0.00  0.00    +0.151 HD
BRANCH   3  13
ATOM      9  C   UNL     1      -3.107   5.002  13.460  0.00  0.00    +0.044 C 
ATOM     10  C   UNL     1      -2.738   4.870  12.005  0.00  0.00    -0.050 A 
ATOM     11  C   UNL     1      -1.413   4.949  11.620  0.00  0.00    +0.005 A 
ATOM     12  C   UNL     1      -1.071   4.828  10.287  0.00  0.00    +0.023 A 
ATOM     13  C   UNL     1      -2.060   4.627   9.334  0.00  0.00    +0.035 A 
ATOM     14  C   UNL     1      -3.391   4.554   9.723  0.00  0.00    +0.023 A 
ATOM     15  C   UNL     1      -3.726   4.669  11.059  0.00  0.00    +0.005 A 
ENDBRANCH   3  13
ENDBRANCH   1   6
BRANCH   1  16
ATOM     16  C   UNL     1      -2.144   2.448   3.753  0.00  0.00    -0.027 A 
ATOM     17  C   UNL     1      -2.181   1.167   3.234  0.00  0.00    +0.007 A 
ATOM     18  C   UNL     1      -1.436   0.855   2.112  0.00  0.00    +0.029 A 
ATOM     19  C   UNL     1      -0.655   1.824   1.509  0.00  0.00    +0.105 A 
ATOM     20  C   UNL     1      -0.615   3.103   2.031  0.00  0.00    +0.029 A 
ATOM     21  C   UNL     1      -1.363   3.416   3.151  0.00  0.00    +0.007 A 
BRANCH  19  22
ATOM     22  S   UNL     1       0.294   1.426   0.079  0.00  0.00    +0.056 S 
ATOM     23  O   UNL     1       0.513   0.022   0.115  0.00  0.00    -0.153 OA
ATOM     24  O   UNL     1       1.362   2.362   0.027  0.00  0.00    -0.153 OA
BRANCH  22  25
ATOM     25  N   UNL     1      -0.660   1.723  -1.241  0.00  0.00    -0.204 NA
ATOM     26  H   UNL     1      -1.564   2.055  -1.121  0.00  0.00    +0.144 HD
ATOM     27  H   UNL     1      -0.316   1.565  -2.134  0.00  0.00    +0.144 HD
ENDBRANCH  22  25
ENDBRANCH  19  22
ENDBRANCH   1  16
TORSDOF 5
