REMARK  Name = ZINC13498683
REMARK  12 active torsions:
REMARK  status: ('A' for Active; 'I' for Inactive)
REMARK    1  A    between atoms: C_1  and  C_2
REMARK    2  A    between atoms: C_2  and  C_3
REMARK    3  A    between atoms: C_2  and  C_4
REMARK    4  A    between atoms: C_4  and  C_6
REMARK    5  A    between atoms: C_4  and  N_67
REMARK    6  A    between atoms: N_10  and  C_11
REMARK    7  A    between atoms: C_11  and  C_12
REMARK    8  A    between atoms: C_17  and  C_18
REMARK    9  A    between atoms: C_17  and  N_67
REMARK   10  A    between atoms: C_22  and  O_30
REMARK   11  A    between atoms: O_30  and  C_31
REMARK   12  A    between atoms: C_32  and  N_67
REMARK                            x       y       z     vdW  Elec       q    Type
REMARK                         _______ _______ _______ _____ _____    ______ ____
ROOT
ATOM      1  N   UNL     1      -1.293   0.705   1.939  0.00  0.00    +0.391 N 
ATOM      2  H   UNL     1      -0.762   0.423   2.771  0.00  0.00    -0.080 HD
ENDROOT
BRANCH   1   3
ATOM      3  C   UNL     1      -1.256  -0.395   0.951  0.00  0.00    -0.067 C 
ATOM      4  C   UNL     1       0.172  -0.991   0.882  0.00  0.00    -0.015 C 
ATOM      5  C   UNL     1      -0.082  -2.424   0.352  0.00  0.00    -0.002 C 
ATOM      6  C   UNL     1      -1.387  -2.860   1.050  0.00  0.00    -0.002 C 
ATOM      7  C   UNL     1      -2.134  -1.569   1.430  0.00  0.00    -0.015 C 
ENDBRANCH   1   3
BRANCH   1   8
ATOM      8  C   UNL     1      -2.690   0.984   2.332  0.00  0.00    +0.006 C 
BRANCH   8   9
ATOM      9  C   UNL     1      -2.684   1.695   3.660  0.00  0.00    +0.139 A 
ATOM     10  N   UNL     1      -1.940   2.722   3.995  0.00  0.00    -0.115 NA
ATOM     11  N   UNL     1      -2.226   3.040   5.210  0.00  0.00    -0.023 NA
ATOM     12  N   UNL     1      -3.132   2.244   5.660  0.00  0.00    -0.044 NA
ATOM     13  N   UNL     1      -3.445   1.404   4.732  0.00  0.00    -0.223 N 
BRANCH  13  14
ATOM     14  C   UNL     1      -4.439   0.332   4.827  0.00  0.00    +0.221 C 
BRANCH  14  15
ATOM     15  C   UNL     1      -3.812  -0.878   5.472  0.00  0.00    +0.126 A 
ATOM     16  C   UNL     1      -3.860  -1.185   6.781  0.00  0.00    +0.046 A 
ATOM     17  C   UNL     1      -3.148  -2.396   6.943  0.00  0.00    +0.041 A 
ATOM     18  C   UNL     1      -2.701  -2.752   5.725  0.00  0.00    +0.195 A 
ATOM     19  O   UNL     1      -3.107  -1.829   4.838  0.00  0.00    -0.466 OA
ENDBRANCH  14  15
ENDBRANCH  13  14
ENDBRANCH   8   9
BRANCH   8  21
ATOM     20  C   UNL     1      -3.344   1.160  -0.073  0.00  0.00    +0.006 C 
ATOM     21  C   UNL     1      -3.375   1.865   1.285  0.00  0.00    -0.024 C 
ATOM     22  C   UNL     1      -4.827   2.113   1.698  0.00  0.00    +0.006 C 
ENDBRANCH   8  21
ENDBRANCH   1   8
BRANCH   1  23
ATOM     23  C   UNL     1      -0.677   1.920   1.365  0.00  0.00    -0.036 C 
BRANCH  23  24
ATOM     24  C   UNL     1       0.822   1.777   1.429  0.00  0.00    +0.001 A 
ATOM     25  C   UNL     1       1.528   1.546   0.295  0.00  0.00    +0.017 A 
ATOM     26  C   UNL     1       2.983   1.417   0.390  0.00  0.00    +0.002 A 
ATOM     27  C   UNL     1       3.763   1.184  -0.748  0.00  0.00    +0.055 A 
ATOM     28  C   UNL     1       5.132   1.064  -0.622  0.00  0.00    +0.121 A 
ATOM     29  C   UNL     1       5.736   1.173   0.629  0.00  0.00    +0.047 A 
ATOM     30  C   UNL     1       4.978   1.402   1.756  0.00  0.00    +0.030 A 
ATOM     31  C   UNL     1       3.597   1.527   1.652  0.00  0.00    +0.049 A 
ATOM     32  N   UNL     1       2.820   1.758   2.769  0.00  0.00    -0.322 N 
ATOM     33  H   UNL     1       3.244   1.834   3.638  0.00  0.00    +0.169 HD
ATOM     34  C   UNL     1       1.485   1.880   2.671  0.00  0.00    +0.251 A 
ATOM     35  O   UNL     1       0.831   2.084   3.679  0.00  0.00    -0.268 OA
BRANCH  28  36
ATOM     36  O   UNL     1       5.896   0.837  -1.723  0.00  0.00    -0.495 OA
ATOM     37  C   UNL     1       7.306   0.722  -1.523  0.00  0.00    +0.277 C 
ENDBRANCH  28  36
ENDBRANCH  23  24
ENDBRANCH   1  23
TORSDOF 9
