REMARK  Name = ZINC63386100
REMARK  12 active torsions:
REMARK  status: ('A' for Active; 'I' for Inactive)
REMARK    1  A    between atoms: C_1  and  C_2
REMARK    2  A    between atoms: C_7  and  O_12
REMARK    3  A    between atoms: C_9  and  O_10
REMARK    4  A    between atoms: O_10  and  C_11
REMARK    5  A    between atoms: O_12  and  C_13
REMARK    6  A    between atoms: C_17  and  C_19
REMARK    7  A    between atoms: C_19  and  C_20
REMARK    8  A    between atoms: N_22  and  C_23
REMARK    9  A    between atoms: C_23  and  C_24
REMARK   10  A    between atoms: C_24  and  C_25
REMARK   11  A    between atoms: C_29  and  O_34
REMARK   12  A    between atoms: O_34  and  C_35
REMARK                            x       y       z     vdW  Elec       q    Type
REMARK                         _______ _______ _______ _____ _____    ______ ____
ROOT
ATOM      1  C   UNL     1       2.905  -0.116   2.502  0.00  0.00    +0.214 C 
ATOM      2  O   UNL     1       2.459  -0.978   3.229  0.00  0.00    -0.276 OA
ATOM      3  N   UNL     1       4.084   0.468   2.793  0.00  0.00    -0.315 N 
ATOM      4  H   UNL     1       4.440   1.158   2.211  0.00  0.00    +0.149 HD
ENDROOT
BRANCH   1   5
ATOM      5  C   UNL     1       2.139   0.303   1.273  0.00  0.00    +0.111 C 
BRANCH   5  17
ATOM      6  C   UNL     1      -0.019   1.526   0.010  0.00  0.00    +0.013 C 
ATOM      7  C   UNL     1       0.002  -0.004   0.002  0.00  0.00    +0.037 C 
ATOM      8  C   UNL     1       0.594  -0.490  -1.297  0.00  0.00    +0.040 A 
ATOM      9  C   UNL     1       1.452  -1.574  -1.348  0.00  0.00    +0.142 A 
ATOM     10  C   UNL     1       1.965  -1.994  -2.570  0.00  0.00    +0.092 A 
ATOM     11  C   UNL     1       1.627  -1.328  -3.737  0.00  0.00    +0.127 A 
ATOM     12  C   UNL     1       0.773  -0.237  -3.685  0.00  0.00    +0.091 A 
ATOM     13  C   UNL     1       0.258   0.179  -2.469  0.00  0.00    +0.130 A 
ATOM     14  O   UNL     1       1.826  -2.247  -0.226  0.00  0.00    -0.425 OA
ATOM     15  C   UNL     1       1.169  -1.965   0.917  0.00  0.00    +0.317 C 
ATOM     16  O   UNL     1       0.855  -2.833   1.697  0.00  0.00    -0.250 OA
ATOM     17  C   UNL     1       0.846  -0.508   1.177  0.00  0.00    +0.114 C 
BRANCH  13  18
ATOM     18  O   UNL     1      -0.581   1.248  -2.421  0.00  0.00    -0.495 OA
ATOM     19  C   UNL     1      -0.885   1.890  -3.660  0.00  0.00    +0.277 C 
ENDBRANCH  13  18
BRANCH  11  20
ATOM     20  O   UNL     1       2.133  -1.742  -4.928  0.00  0.00    -0.495 OA
ATOM     21  C   UNL     1       1.741  -1.007  -6.090  0.00  0.00    +0.277 C 
ENDBRANCH  11  20
ENDBRANCH   5  17
ENDBRANCH   1   5
BRANCH   3  22
ATOM     22  C   UNL     1       4.828   0.061   3.987  0.00  0.00    +0.108 C 
BRANCH  22  23
ATOM     23  C   UNL     1       6.122   0.873   4.084  0.00  0.00    +0.052 C 
BRANCH  23  24
ATOM     24  C   UNL     1       6.887   0.454   5.312  0.00  0.00    -0.040 C 
ATOM     25  C   UNL     1       7.884  -0.456   5.377  0.00  0.00    -0.001 A 
ATOM     26  C   UNL     1       8.529  -1.296   4.359  0.00  0.00    +0.013 A 
ATOM     27  C   UNL     1       9.523  -2.131   4.731  0.00  0.00    +0.046 A 
ATOM     28  C   UNL     1       9.955  -2.215   6.068  0.00  0.00    +0.122 A 
ATOM     29  C   UNL     1       9.406  -1.470   7.061  0.00  0.00    +0.071 A 
ATOM     30  C   UNL     1       8.355  -0.561   6.777  0.00  0.00    +0.046 A 
ATOM     31  N   UNL     1       7.674   0.254   7.548  0.00  0.00    -0.380 N 
ATOM     32  C   UNL     1       6.698   0.972   6.720  0.00  0.00    +0.144 C 
ATOM     33  H   UNL     1       7.797   0.366   8.504  0.00  0.00    +0.160 HD
BRANCH  28  34
ATOM     34  O   UNL     1      10.958  -3.074   6.376  0.00  0.00    -0.495 OA
ATOM     35  C   UNL     1      11.509  -3.840   5.303  0.00  0.00    +0.277 C 
ENDBRANCH  28  34
ENDBRANCH  23  24
ENDBRANCH  22  23
ENDBRANCH   3  22
TORSDOF 8
