REMARK  Name = ZINC13499550
REMARK  14 active torsions:
REMARK  status: ('A' for Active; 'I' for Inactive)
REMARK    1  A    between atoms: C_1  and  C_2
REMARK    2  A    between atoms: C_2  and  C_3
REMARK    3  A    between atoms: C_3  and  C_4
REMARK    4  A    between atoms: C_4  and  C_6
REMARK    5  A    between atoms: C_4  and  N_74
REMARK    6  A    between atoms: N_10  and  C_11
REMARK    7  A    between atoms: C_11  and  C_12
REMARK    8  A    between atoms: C_11  and  C_13
REMARK    9  A    between atoms: C_11  and  C_14
REMARK   10  A    between atoms: C_15  and  C_16
REMARK   11  A    between atoms: C_15  and  N_74
REMARK   12  A    between atoms: C_19  and  C_29
REMARK   13  A    between atoms: C_21  and  C_28
REMARK   14  A    between atoms: C_30  and  N_74
REMARK                            x       y       z     vdW  Elec       q    Type
REMARK                         _______ _______ _______ _____ _____    ______ ____
ROOT
ATOM      1  N   UNL     1       4.548  -0.213   0.755  0.00  0.00    +0.391 N 
ATOM      2  H   UNL     1       4.377  -1.179   0.451  0.00  0.00    -0.080 HD
ENDROOT
BRANCH   1   3
ATOM      3  C   UNL     1       4.109  -0.068   2.159  0.00  0.00    -0.067 C 
ATOM      4  C   UNL     1       4.230  -1.427   2.850  0.00  0.00    -0.015 C 
ATOM      5  C   UNL     1       3.768  -1.304   4.304  0.00  0.00    -0.002 C 
ATOM      6  C   UNL     1       2.309  -0.843   4.338  0.00  0.00    -0.000 C 
ATOM      7  C   UNL     1       2.188   0.517   3.646  0.00  0.00    -0.002 C 
ATOM      8  C   UNL     1       2.650   0.393   2.193  0.00  0.00    -0.015 C 
ENDBRANCH   1   3
BRANCH   1   9
ATOM      9  C   UNL     1       3.781   0.707  -0.112  0.00  0.00    +0.003 C 
BRANCH   9  10
ATOM     10  C   UNL     1       3.802   0.171  -1.520  0.00  0.00    +0.139 A 
ATOM     11  N   UNL     1       4.835  -0.336  -2.149  0.00  0.00    -0.115 NA
ATOM     12  N   UNL     1       4.452  -0.680  -3.330  0.00  0.00    -0.023 NA
ATOM     13  N   UNL     1       3.202  -0.406  -3.470  0.00  0.00    -0.043 NA
ATOM     14  N   UNL     1       2.765   0.120  -2.376  0.00  0.00    -0.226 N 
BRANCH  14  15
ATOM     15  C   UNL     1       1.398   0.576  -2.115  0.00  0.00    +0.059 C 
ATOM     16  C   UNL     1       0.559   0.428  -3.386  0.00  0.00    +0.036 C 
ATOM     17  C   UNL     1       0.783  -0.269  -0.997  0.00  0.00    +0.036 C 
ATOM     18  C   UNL     1       1.423   2.045  -1.689  0.00  0.00    +0.036 C 
ENDBRANCH  14  15
ENDBRANCH   9  10
BRANCH   9  19
ATOM     19  C   UNL     1       4.402   2.105  -0.088  0.00  0.00    -0.008 C 
BRANCH  19  21
ATOM     20  C   UNL     1       4.936   4.072   1.356  0.00  0.00    +0.004 C 
ATOM     21  C   UNL     1       4.227   2.717   1.303  0.00  0.00    -0.005 C 
ENDBRANCH  19  21
ENDBRANCH   9  19
ENDBRANCH   1   9
BRANCH   1  22
ATOM     22  C   UNL     1       5.993   0.076   0.646  0.00  0.00    -0.036 C 
BRANCH  22  23
ATOM     23  C   UNL     1       6.762  -1.035   1.312  0.00  0.00    +0.001 A 
ATOM     24  C   UNL     1       7.169  -2.105   0.586  0.00  0.00    +0.017 A 
ATOM     25  C   UNL     1       7.918  -3.166   1.263  0.00  0.00    +0.002 A 
ATOM     26  C   UNL     1       8.368  -4.292   0.565  0.00  0.00    -0.041 A 
ATOM     27  C   UNL     1       9.061  -5.266   1.227  0.00  0.00    +0.007 A 
ATOM     28  C   UNL     1       9.322  -5.148   2.585  0.00  0.00    -0.048 A 
ATOM     29  C   UNL     1       8.888  -4.048   3.292  0.00  0.00    +0.029 A 
ATOM     30  C   UNL     1       8.181  -3.043   2.640  0.00  0.00    +0.050 A 
ATOM     31  N   UNL     1       7.735  -1.931   3.323  0.00  0.00    -0.322 N 
ATOM     32  H   UNL     1       7.917  -1.849   4.272  0.00  0.00    +0.169 HD
ATOM     33  C   UNL     1       7.052  -0.960   2.692  0.00  0.00    +0.251 A 
ATOM     34  O   UNL     1       6.673   0.009   3.327  0.00  0.00    -0.268 OA
ATOM     35  C   UNL     1      10.088  -6.235   3.294  0.00  0.00    +0.044 C 
ATOM     36  C   UNL     1       8.090  -4.430  -0.909  0.00  0.00    +0.044 C 
ENDBRANCH  22  23
ENDBRANCH   1  22
TORSDOF 8
