REMARK  Name = ZINC42535470
REMARK  5 active torsions:
REMARK  status: ('A' for Active; 'I' for Inactive)
REMARK    1  A    between atoms: N_11  and  C_12
REMARK    2  A    between atoms: N_15  and  C_18
REMARK    3  A    between atoms: C_18  and  C_19
REMARK    4  A    between atoms: N_21  and  C_22
REMARK    5  A    between atoms: N_25  and  C_28
REMARK                            x       y       z     vdW  Elec       q    Type
REMARK                         _______ _______ _______ _____ _____    ______ ____
ROOT
ATOM      1  C   UNL     1       4.875  -0.586  -0.046  0.00  0.00    +0.089 C 
ATOM      2  C   UNL     1       5.540  -1.200   1.189  0.00  0.00    +0.006 C 
ATOM      3  C   UNL     1       7.048  -0.945   1.130  0.00  0.00    -0.076 C 
ATOM      4  N   UNL     1       7.604  -1.558  -0.082  0.00  0.00    +0.386 N 
ATOM      5  C   UNL     1       7.024  -0.925  -1.272  0.00  0.00    -0.076 C 
ATOM      6  C   UNL     1       5.515  -1.179  -1.305  0.00  0.00    +0.006 C 
ATOM      7  H   UNL     1       7.389  -2.544  -0.088  0.00  0.00    -0.081 HD
ENDROOT
BRANCH   1  18
ATOM      8  C   UNL     1      -0.017   1.377   0.010  0.00  0.00    +0.002 A 
ATOM      9  C   UNL     1       1.169   2.091   0.002  0.00  0.00    +0.002 A 
ATOM     10  C   UNL     1       2.381   1.429  -0.013  0.00  0.00    +0.028 A 
ATOM     11  C   UNL     1       2.410   0.043  -0.021  0.00  0.00    +0.070 A 
ATOM     12  C   UNL     1       1.214  -0.678  -0.013  0.00  0.00    +0.067 A 
ATOM     13  C   UNL     1       0.002  -0.004   0.002  0.00  0.00    +0.028 A 
ATOM     14  N   UNL     1       1.557  -2.028  -0.023  0.00  0.00    -0.306 N 
ATOM     15  H   UNL     1       0.934  -2.772  -0.021  0.00  0.00    +0.170 HD
ATOM     16  C   UNL     1       2.900  -2.124  -0.036  0.00  0.00    +0.328 A 
ATOM     17  O   UNL     1       3.528  -3.166  -0.047  0.00  0.00    -0.247 OA
ATOM     18  N   UNL     1       3.443  -0.892  -0.035  0.00  0.00    -0.289 N 
ENDBRANCH   1  18
BRANCH   4  19
ATOM     19  C   UNL     1       9.062  -1.379  -0.095  0.00  0.00    +0.019 C 
BRANCH  19  20
ATOM     20  C   UNL     1       9.648  -2.113  -1.273  0.00  0.00    +0.197 C 
ATOM     21  O   UNL     1       8.923  -2.725  -2.028  0.00  0.00    -0.278 OA
ATOM     22  N   UNL     1      10.978  -2.088  -1.488  0.00  0.00    -0.314 N 
ATOM     23  H   UNL     1      11.558  -1.598  -0.885  0.00  0.00    +0.149 HD
BRANCH  22  24
ATOM     24  C   UNL     1      11.548  -2.802  -2.634  0.00  0.00    +0.069 C 
ATOM     25  C   UNL     1      11.794  -4.265  -2.255  0.00  0.00    +0.003 C 
ATOM     26  C   UNL     1      12.462  -4.985  -3.429  0.00  0.00    -0.077 C 
ATOM     27  N   UNL     1      13.742  -4.337  -3.740  0.00  0.00    +0.382 N 
ATOM     28  C   UNL     1      13.507  -2.954  -4.174  0.00  0.00    -0.077 C 
ATOM     29  C   UNL     1      12.880  -2.156  -3.029  0.00  0.00    +0.003 C 
ATOM     30  H   UNL     1      14.326  -4.336  -2.918  0.00  0.00    -0.081 HD
BRANCH  27  31
ATOM     31  C   UNL     1      14.415  -5.078  -4.815  0.00  0.00    -0.069 C 
ATOM     32  C   UNL     1      15.693  -5.839  -4.456  0.00  0.00    -0.017 C 
ATOM     33  C   UNL     1      15.774  -4.558  -5.288  0.00  0.00    -0.017 C 
ENDBRANCH  27  31
ENDBRANCH  22  24
ENDBRANCH  19  20
ENDBRANCH   4  19
TORSDOF 5
