REMARK  Name = ZINC39695984
REMARK  10 active torsions:
REMARK  status: ('A' for Active; 'I' for Inactive)
REMARK    1  A    between atoms: C_1  and  C_2
REMARK    2  A    between atoms: C_2  and  C_3
REMARK    3  A    between atoms: C_6  and  C_9
REMARK    4  A    between atoms: C_9  and  C_11
REMARK    5  A    between atoms: C_9  and  N_12
REMARK    6  A    between atoms: C_13  and  C_15
REMARK    7  A    between atoms: C_26  and  C_28
REMARK    8  A    between atoms: C_31  and  O_34
REMARK    9  A    between atoms: O_34  and  C_35
REMARK   10  A    between atoms: C_35  and  C_36
REMARK                            x       y       z     vdW  Elec       q    Type
REMARK                         _______ _______ _______ _____ _____    ______ ____
ROOT
ATOM      1  C   UNL     1       5.622  -5.122  -4.505  0.00  0.00    +0.100 C 
ATOM      2  C   UNL     1       4.830  -5.816  -3.374  0.00  0.00    +0.121 C 
ATOM      3  N   UNL     1       4.192  -6.983  -4.026  0.00  0.00    -0.296 N 
ATOM      4  C   UNL     1       5.225  -7.495  -4.959  0.00  0.00    +0.115 C 
ATOM      5  C   UNL     1       5.882  -6.228  -5.541  0.00  0.00    -0.004 C 
ATOM      6  C   UNL     1       7.382  -6.444  -5.717  0.00  0.00    -0.010 C 
ATOM      7  C   UNL     1       7.617  -7.507  -6.795  0.00  0.00    -0.082 C 
ATOM      8  N   UNL     1       7.014  -7.066  -8.058  0.00  0.00    +0.379 N 
ATOM      9  C   UNL     1       5.559  -6.950  -7.905  0.00  0.00    -0.082 C 
ATOM     10  C   UNL     1       5.237  -5.864  -6.875  0.00  0.00    -0.010 C 
ATOM     11  C   UNL     1       2.953  -7.471  -3.818  0.00  0.00    +0.247 C 
ATOM     12  O   UNL     1       2.172  -6.866  -3.109  0.00  0.00    -0.270 OA
ATOM     13  H   UNL     1       7.396  -6.169  -8.317  0.00  0.00    -0.086 HD
ATOM     14  H   UNL     1       7.222  -7.739  -8.781  0.00  0.00    -0.086 HD
ENDROOT
BRANCH  11  15
ATOM     15  C   UNL     1       2.543  -8.739  -4.452  0.00  0.00    +0.037 A 
ATOM     16  C   UNL     1       3.510  -9.649  -4.887  0.00  0.00    +0.016 A 
ATOM     17  C   UNL     1       3.123 -10.832  -5.477  0.00  0.00    +0.046 A 
ATOM     18  C   UNL     1       1.773 -11.121  -5.640  0.00  0.00    +0.121 A 
ATOM     19  C   UNL     1       0.808 -10.218  -5.208  0.00  0.00    +0.046 A 
ATOM     20  C   UNL     1       1.187  -9.036  -4.612  0.00  0.00    +0.016 A 
BRANCH  18  21
ATOM     21  O   UNL     1       1.396 -12.287  -6.223  0.00  0.00    -0.492 OA
BRANCH  21  22
ATOM     22  C   UNL     1      -0.007 -12.521  -6.359  0.00  0.00    +0.225 C 
ATOM     23  C   UNL     1      -0.236 -13.875  -7.033  0.00  0.00    +0.048 C 
ENDBRANCH  21  22
ENDBRANCH  18  21
ENDBRANCH  11  15
BRANCH   1  25
ATOM     24  N   UNL     1       5.416  -2.993  -5.748  0.00  0.00    -0.308 N 
ATOM     25  C   UNL     1       4.803  -4.013  -5.115  0.00  0.00    +0.219 C 
ATOM     26  O   UNL     1       3.593  -4.039  -5.036  0.00  0.00    -0.275 OA
ATOM     27  H   UNL     1       6.383  -2.972  -5.811  0.00  0.00    +0.149 HD
BRANCH  24  28
ATOM     28  C   UNL     1       4.620  -1.915  -6.341  0.00  0.00    +0.100 C 
ATOM     29  C   UNL     1       4.172  -2.325  -7.745  0.00  0.00    +0.033 C 
BRANCH  28  33
ATOM     30  C   UNL     1       6.984   1.635  -6.577  0.00  0.00    -0.048 A 
ATOM     31  C   UNL     1       5.652   1.714  -6.215  0.00  0.00    +0.004 A 
ATOM     32  C   UNL     1       4.887   0.565  -6.138  0.00  0.00    +0.006 A 
ATOM     33  C   UNL     1       5.454  -0.663  -6.425  0.00  0.00    -0.027 A 
ATOM     34  C   UNL     1       6.785  -0.742  -6.788  0.00  0.00    +0.006 A 
ATOM     35  C   UNL     1       7.549   0.407  -6.869  0.00  0.00    +0.004 A 
BRANCH  30  37
ATOM     36  C   UNL     1       7.727   3.467  -8.073  0.00  0.00    +0.009 C 
ATOM     37  C   UNL     1       7.818   2.887  -6.660  0.00  0.00    +0.032 C 
ENDBRANCH  30  37
ENDBRANCH  28  33
ENDBRANCH  24  28
ENDBRANCH   1  25
TORSDOF 7
