REMARK  Name = ZINC00848867
REMARK  9 active torsions:
REMARK  status: ('A' for Active; 'I' for Inactive)
REMARK    1  A    between atoms: C_1  and  C_2
REMARK    2  A    between atoms: N_4  and  C_25
REMARK    3  A    between atoms: C_7  and  C_9
REMARK    4  A    between atoms: C_9  and  C_11
REMARK    5  A    between atoms: C_9  and  C_20
REMARK    6  A    between atoms: C_16  and  N_17
REMARK    7  A    between atoms: C_20  and  C_21
REMARK    8  A    between atoms: C_20  and  C_23
REMARK    9  A    between atoms: C_25  and  C_26
REMARK                            x       y       z     vdW  Elec       q    Type
REMARK                         _______ _______ _______ _____ _____    ______ ____
ROOT
ATOM      1  C   UNL     1       3.037   0.073   2.546  0.00  0.00    +0.070 C 
ENDROOT
BRANCH   1   8
ATOM      2  C   UNL     1       1.899   3.002   1.726  0.00  0.00    +0.063 C 
ATOM      3  C   UNL     1       1.285   1.627   1.663  0.00  0.00    +0.047 C 
ATOM      4  N   UNL     1       0.439   1.214   0.802  0.00  0.00    -0.186 NA
ATOM      5  N   UNL     1       0.055  -0.108   1.003  0.00  0.00    -0.188 N 
ATOM      6  C   UNL     1       0.680  -0.639   2.075  0.00  0.00    +0.244 C 
ATOM      7  O   UNL     1       0.566  -1.763   2.515  0.00  0.00    -0.273 OA
ATOM      8  C   UNL     1       1.562   0.475   2.606  0.00  0.00    +0.132 C 
BRANCH   5   9
ATOM      9  C   UNL     1      -0.903  -0.830   0.161  0.00  0.00    +0.170 C 
BRANCH   9  10
ATOM     10  C   UNL     1      -2.294  -0.641   0.709  0.00  0.00    -0.028 A 
ATOM     11  C   UNL     1      -2.794  -1.526   1.645  0.00  0.00    +0.005 A 
ATOM     12  C   UNL     1      -4.071  -1.353   2.147  0.00  0.00    +0.000 A 
ATOM     13  C   UNL     1      -4.846  -0.294   1.713  0.00  0.00    +0.000 A 
ATOM     14  C   UNL     1      -4.346   0.591   0.777  0.00  0.00    +0.000 A 
ATOM     15  C   UNL     1      -3.068   0.420   0.278  0.00  0.00    +0.005 A 
ENDBRANCH   9  10
ENDBRANCH   5   9
ENDBRANCH   1   8
BRANCH   1  16
ATOM     16  C   UNL     1       3.373  -0.399   1.155  0.00  0.00    -0.011 A 
ATOM     17  C   UNL     1       3.405   0.503   0.108  0.00  0.00    +0.006 A 
ATOM     18  C   UNL     1       3.713   0.071  -1.168  0.00  0.00    +0.000 A 
ATOM     19  C   UNL     1       3.990  -1.264  -1.398  0.00  0.00    +0.002 A 
ATOM     20  C   UNL     1       3.959  -2.166  -0.351  0.00  0.00    +0.033 A 
ATOM     21  C   UNL     1       3.655  -1.733   0.926  0.00  0.00    +0.130 A 
BRANCH  21  22
ATOM     22  N   UNL     1       3.626  -2.698   2.048  0.00  0.00    +0.057 N 
ATOM     23  O   UNL     1       4.548  -3.463   2.211  0.00  0.00    -0.126 OA
ATOM     24  O   UNL     1       2.681  -2.721   2.802  0.00  0.00    -0.126 OA
ENDBRANCH  21  22
ENDBRANCH   1  16
BRANCH   1  25
ATOM     25  C   UNL     1       3.910   1.278   2.900  0.00  0.00    +0.202 C 
BRANCH  25  26
ATOM     26  C   UNL     1       3.510   1.803   4.216  0.00  0.00    +0.081 C 
ATOM     27  N   UNL     1       3.202   2.208   5.232  0.00  0.00    -0.195 NA
ENDBRANCH  25  26
BRANCH  25  28
ATOM     28  C   UNL     1       5.322   0.866   2.944  0.00  0.00    +0.081 C 
ATOM     29  N   UNL     1       6.412   0.548   2.978  0.00  0.00    -0.195 NA
ENDBRANCH  25  28
ENDBRANCH   1  25
TORSDOF 8
