REMARK  Name = ZINC44714169
REMARK  7 active torsions:
REMARK  status: ('A' for Active; 'I' for Inactive)
REMARK    1  A    between atoms: C_1  and  C_2
REMARK    2  A    between atoms: C_3  and  C_9
REMARK    3  A    between atoms: C_4  and  C_8
REMARK    4  A    between atoms: C_9  and  C_11
REMARK    5  A    between atoms: C_9  and  N_12
REMARK    6  A    between atoms: C_13  and  C_15
REMARK    7  A    between atoms: C_26  and  C_28
REMARK                            x       y       z     vdW  Elec       q    Type
REMARK                         _______ _______ _______ _____ _____    ______ ____
ROOT
ATOM      1  C   UNL     1       2.532  -1.354  -5.212  0.00  0.00    +0.100 C 
ATOM      2  C   UNL     1       1.932  -2.704  -5.666  0.00  0.00    +0.121 C 
ATOM      3  N   UNL     1       1.419  -2.444  -7.032  0.00  0.00    -0.296 N 
ATOM      4  C   UNL     1       2.442  -1.566  -7.649  0.00  0.00    +0.115 C 
ATOM      5  C   UNL     1       2.869  -0.612  -6.516  0.00  0.00    -0.004 C 
ATOM      6  C   UNL     1       4.367  -0.336  -6.595  0.00  0.00    -0.010 C 
ATOM      7  C   UNL     1       4.669   0.454  -7.872  0.00  0.00    -0.082 C 
ATOM      8  N   UNL     1       3.919   1.715  -7.858  0.00  0.00    +0.379 N 
ATOM      9  C   UNL     1       2.477   1.440  -7.877  0.00  0.00    -0.082 C 
ATOM     10  C   UNL     1       2.082   0.692  -6.600  0.00  0.00    -0.010 C 
ATOM     11  C   UNL     1       0.280  -2.902  -7.588  0.00  0.00    +0.248 C 
ATOM     12  O   UNL     1      -0.511  -3.540  -6.917  0.00  0.00    -0.270 OA
ATOM     13  H   UNL     1       4.150   2.234  -7.025  0.00  0.00    -0.086 HD
ATOM     14  H   UNL     1       4.166   2.261  -8.670  0.00  0.00    -0.086 HD
ENDROOT
BRANCH  11  15
ATOM     15  C   UNL     1      -0.007  -2.633  -9.002  0.00  0.00    +0.052 A 
ATOM     16  C   UNL     1       0.990  -2.591  -9.924  0.00  0.00    +0.059 A 
ATOM     17  S   UNL     1       0.234  -2.261 -11.384  0.00  0.00    -0.096 S 
ATOM     18  C   UNL     1      -1.452  -2.160 -10.849  0.00  0.00    +0.020 A 
ATOM     19  C   UNL     1      -1.379  -2.407  -9.465  0.00  0.00    +0.001 A 
ATOM     20  C   UNL     1      -2.587  -2.398  -8.743  0.00  0.00    +0.010 A 
ATOM     21  C   UNL     1      -3.778  -2.161  -9.384  0.00  0.00    +0.001 A 
ATOM     22  C   UNL     1      -3.824  -1.926 -10.751  0.00  0.00    +0.001 A 
ATOM     23  C   UNL     1      -2.652  -1.918 -11.483  0.00  0.00    +0.015 A 
ENDBRANCH  11  15
BRANCH   1  25
ATOM     24  N   UNL     1       1.935   0.265  -3.439  0.00  0.00    -0.308 N 
ATOM     25  C   UNL     1       1.522  -0.574  -4.410  0.00  0.00    +0.219 C 
ATOM     26  O   UNL     1       0.338  -0.701  -4.638  0.00  0.00    -0.275 OA
ATOM     27  H   UNL     1       2.882   0.366  -3.256  0.00  0.00    +0.149 HD
BRANCH  24  28
ATOM     28  C   UNL     1       0.953   1.023  -2.660  0.00  0.00    +0.104 C 
ATOM     29  C   UNL     1       0.449   0.163  -1.499  0.00  0.00    +0.033 C 
BRANCH  28  32
ATOM     30  C   UNL     1      -0.280   3.897  -2.689  0.00  0.00    +0.065 C 
ATOM     31  C   UNL     1       1.065   3.514  -2.128  0.00  0.00    +0.038 A 
ATOM     32  C   UNL     1       1.600   2.271  -2.116  0.00  0.00    +0.015 A 
ATOM     33  C   UNL     1       2.857   2.349  -1.509  0.00  0.00    +0.065 A 
ATOM     34  N   UNL     1       3.070   3.594  -1.169  0.00  0.00    -0.179 NA
ATOM     35  N   UNL     1       1.956   4.350  -1.554  0.00  0.00    -0.281 N 
ATOM     36  H   UNL     1       1.843   5.305  -1.429  0.00  0.00    +0.189 HD
ATOM     37  C   UNL     1       3.803   1.197  -1.284  0.00  0.00    +0.068 C 
ENDBRANCH  28  32
ENDBRANCH  24  28
ENDBRANCH   1  25
TORSDOF 4
