REMARK  Name = ZINC08916981
REMARK  8 active torsions:
REMARK  status: ('A' for Active; 'I' for Inactive)
REMARK    1  A    between atoms: C_1  and  C_2
REMARK    2  A    between atoms: C_10  and  C_11
REMARK    3  A    between atoms: N_13  and  C_14
REMARK    4  A    between atoms: C_14  and  C_15
REMARK    5  A    between atoms: C_15  and  C_17
REMARK    6  A    between atoms: C_15  and  N_54
REMARK    7  A    between atoms: C_20  and  O_23
REMARK    8  A    between atoms: O_23  and  C_24
REMARK                            x       y       z     vdW  Elec       q    Type
REMARK                         _______ _______ _______ _____ _____    ______ ____
ROOT
ATOM      1  C   UNL     1       4.476   8.524  -0.055  0.00  0.00    +0.094 C 
ENDROOT
BRANCH   1   4
ATOM      2  C   UNL     1       2.903   9.776  -1.433  0.00  0.00    +0.280 C 
ATOM      3  O   UNL     1       2.005   9.386  -0.710  0.00  0.00    -0.267 OA
ATOM      4  N   UNL     1       4.175   9.401  -1.190  0.00  0.00    -0.310 N 
ATOM      5  H   UNL     1       4.890   9.711  -1.766  0.00  0.00    +0.149 HD
BRANCH   2  15
ATOM      6  C   UNL     1       0.065  10.783  -2.210  0.00  0.00    +0.048 C 
ATOM      7  C   UNL     1       1.362  11.095  -2.911  0.00  0.00    +0.008 A 
ATOM      8  C   UNL     1       1.541  11.934  -4.096  0.00  0.00    +0.024 A 
ATOM      9  C   UNL     1       0.674  12.664  -4.912  0.00  0.00    +0.013 A 
ATOM     10  C   UNL     1       1.172  13.369  -5.970  0.00  0.00    +0.016 A 
ATOM     11  C   UNL     1       2.533  13.353  -6.248  0.00  0.00    +0.021 A 
ATOM     12  C   UNL     1       3.406  12.638  -5.455  0.00  0.00    +0.062 A 
ATOM     13  C   UNL     1       2.922  11.919  -4.368  0.00  0.00    +0.137 A 
ATOM     14  O   UNL     1       3.513  11.146  -3.436  0.00  0.00    -0.450 OA
ATOM     15  C   UNL     1       2.601  10.655  -2.571  0.00  0.00    +0.193 A 
ATOM     16 BR   UNL     1       3.198  14.330  -7.724  0.00  0.00    -0.050 Br
ENDBRANCH   2  15
ENDBRANCH   1   4
BRANCH   1  17
ATOM     17  C   UNL     1       5.961   8.160  -0.072  0.00  0.00    -0.020 C 
BRANCH  17  18
ATOM     18  C   UNL     1       6.786   9.399   0.162  0.00  0.00    -0.059 A 
ATOM     19  C   UNL     1       6.950   9.886   1.446  0.00  0.00    +0.005 A 
ATOM     20  C   UNL     1       7.710  11.019   1.664  0.00  0.00    +0.046 A 
ATOM     21  C   UNL     1       8.299  11.675   0.593  0.00  0.00    +0.120 A 
ATOM     22  C   UNL     1       8.128  11.188  -0.695  0.00  0.00    +0.046 A 
ATOM     23  C   UNL     1       7.372  10.051  -0.907  0.00  0.00    +0.005 A 
BRANCH  21  24
ATOM     24  O   UNL     1       9.041  12.793   0.804  0.00  0.00    -0.495 OA
ATOM     25  C   UNL     1       9.174  13.238   2.156  0.00  0.00    +0.277 C 
ENDBRANCH  21  24
ENDBRANCH  17  18
BRANCH  17  30
ATOM     26  C   UNL     1       5.420   5.954   0.804  0.00  0.00    -0.078 C 
ATOM     27  C   UNL     1       6.188   4.890   1.628  0.00  0.00    -0.020 C 
ATOM     28  C   UNL     1       7.668   5.256   1.372  0.00  0.00    -0.020 C 
ATOM     29  C   UNL     1       7.647   6.735   0.943  0.00  0.00    -0.078 C 
ATOM     30  N   UNL     1       6.247   7.156   0.997  0.00  0.00    +0.385 N 
ATOM     31  H   UNL     1       6.045   7.573   1.913  0.00  0.00    -0.081 HD
ENDBRANCH  17  30
ENDBRANCH   1  17
TORSDOF 6
