REMARK  Name = ZINC65305902
REMARK  8 active torsions:
REMARK  status: ('A' for Active; 'I' for Inactive)
REMARK    1  A    between atoms: C_1  and  C_2
REMARK    2  A    between atoms: C_2  and  C_3
REMARK    3  A    between atoms: C_3  and  C_5
REMARK    4  A    between atoms: C_3  and  C_6
REMARK    5  A    between atoms: C_6  and  C_8
REMARK    6  A    between atoms: C_6  and  N_20
REMARK    7  A    between atoms: N_10  and  C_11
REMARK    8  A    between atoms: C_21  and  C_23
REMARK                            x       y       z     vdW  Elec       q    Type
REMARK                         _______ _______ _______ _____ _____    ______ ____
ROOT
ATOM      1  C   UNL     1       2.021   1.527  -0.993  0.00  0.00    +0.236 C 
ATOM      2  O   UNL     1       2.554   2.274  -1.786  0.00  0.00    -0.274 OA
ATOM      3  N   UNL     1       1.417   2.028   0.103  0.00  0.00    -0.277 N 
ATOM      4  H   UNL     1       1.055   1.428   0.774  0.00  0.00    +0.152 HD
ENDROOT
BRANCH   3   5
ATOM      5  C   UNL     1       1.307   3.478   0.281  0.00  0.00    +0.269 C 
ATOM      6  N   UNL     1       2.589   4.028   0.742  0.00  0.00    -0.348 N 
ATOM      7  C   UNL     1       2.382   4.581   1.902  0.00  0.00    +0.061 A 
ATOM      8  C   UNL     1       3.263   5.284   2.845  0.00  0.00    +0.027 A 
ATOM      9  C   UNL     1       2.756   5.761   3.999  0.00  0.00    +0.002 A 
ATOM     10  C   UNL     1       1.401   5.615   4.350  0.00  0.00    +0.002 A 
ATOM     11  C   UNL     1       0.509   4.987   3.558  0.00  0.00    +0.027 A 
ATOM     12  C   UNL     1       0.949   4.427   2.273  0.00  0.00    +0.061 A 
ATOM     13  N   UNL     1       0.325   3.785   1.328  0.00  0.00    -0.348 N 
ATOM     14  H   UNL     1       3.434   3.986   0.268  0.00  0.00    +0.163 HD
ATOM     15  H   UNL     1      -0.617   3.551   1.317  0.00  0.00    +0.163 HD
ENDBRANCH   3   5
BRANCH   1  16
ATOM     16  C   UNL     1       2.034   0.040  -1.232  0.00  0.00    +0.162 C 
BRANCH  16  17
ATOM     17  N   UNL     1       3.128  -0.299  -2.145  0.00  0.00    -0.300 N 
ATOM     18  C   UNL     1       3.665  -1.535  -2.126  0.00  0.00    +0.245 C 
ATOM     19  O   UNL     1       3.240  -2.370  -1.350  0.00  0.00    -0.270 OA
ATOM     20  H   UNL     1       3.467   0.367  -2.764  0.00  0.00    +0.150 HD
BRANCH  18  21
ATOM     21  C   UNL     1       4.765  -1.875  -3.043  0.00  0.00    +0.044 A 
ATOM     22  C   UNL     1       5.359  -3.189  -3.054  0.00  0.00    +0.020 A 
ATOM     23  C   UNL     1       6.358  -3.372  -3.942  0.00  0.00    +0.046 A 
ATOM     24  S   UNL     1       6.482  -1.788  -4.742  0.00  0.00    -0.104 S 
ATOM     25  C   UNL     1       5.270  -0.955  -3.934  0.00  0.00    +0.058 A 
ENDBRANCH  18  21
ENDBRANCH  16  17
BRANCH  16  26
ATOM     26  C   UNL     1       0.702  -0.388  -1.853  0.00  0.00    +0.015 C 
ATOM     27  C   UNL     1       0.570   0.223  -3.249  0.00  0.00    +0.010 C 
BRANCH  26  29
ATOM     28  C   UNL     1       0.615  -2.520  -0.552  0.00  0.00    +0.004 C 
ATOM     29  C   UNL     1       0.655  -1.914  -1.957  0.00  0.00    +0.002 C 
ENDBRANCH  26  29
ENDBRANCH  16  26
ENDBRANCH   1  16
TORSDOF 6
