REMARK  Name = ZINC10272495
REMARK  9 active torsions:
REMARK  status: ('A' for Active; 'I' for Inactive)
REMARK    1  A    between atoms: C_1  and  O_2
REMARK    2  A    between atoms: O_2  and  C_3
REMARK    3  A    between atoms: C_8  and  N_9
REMARK    4  A    between atoms: N_9  and  C_10
REMARK    5  A    between atoms: C_11  and  S_24
REMARK    6  A    between atoms: C_12  and  N_23
REMARK    7  A    between atoms: C_13  and  C_15
REMARK    8  A    between atoms: C_15  and  C_17
REMARK    9  A    between atoms: S_24  and  C_27
REMARK                            x       y       z     vdW  Elec       q    Type
REMARK                         _______ _______ _______ _____ _____    ______ ____
ROOT
ATOM      1  C   UNL     1       1.157   2.420  -0.650  0.00  0.00    +0.098 A 
ATOM      2  C   UNL     1       0.029   1.652  -0.436  0.00  0.00    +0.143 A 
ATOM      3  C   UNL     1       0.134   0.286  -0.507  0.00  0.00    +0.070 A 
ATOM      4  C   UNL     1       1.389  -0.267  -0.795  0.00  0.00    +0.084 A 
ATOM      5  S   UNL     1       2.409   1.188  -0.962  0.00  0.00    -0.066 S 
ENDROOT
BRANCH   3   6
ATOM      6  N   UNL     1      -0.975  -0.528  -0.299  0.00  0.00    -0.355 N 
ATOM      7  H   UNL     1      -0.952  -1.458  -0.574  0.00  0.00    +0.142 HD
ATOM      8  H   UNL     1      -1.770  -0.165   0.121  0.00  0.00    +0.142 HD
ENDBRANCH   3   6
BRANCH   2   9
ATOM      9  S   UNL     1      -1.521   2.414  -0.085  0.00  0.00    +0.029 S 
ATOM     10  O   UNL     1      -1.409   3.769  -0.498  0.00  0.00    -0.164 OA
ATOM     11  O   UNL     1      -2.525   1.544  -0.590  0.00  0.00    -0.164 OA
BRANCH   9  12
ATOM     12  C   UNL     1      -1.706   2.434   1.667  0.00  0.00    +0.094 A 
ATOM     13  C   UNL     1      -2.320   1.376   2.309  0.00  0.00    +0.027 A 
ATOM     14  C   UNL     1      -2.462   1.389   3.684  0.00  0.00    +0.002 A 
ATOM     15  C   UNL     1      -1.998   2.467   4.416  0.00  0.00    +0.000 A 
ATOM     16  C   UNL     1      -1.389   3.528   3.773  0.00  0.00    +0.002 A 
ATOM     17  C   UNL     1      -1.243   3.512   2.398  0.00  0.00    +0.027 A 
ENDBRANCH   9  12
ENDBRANCH   2   9
BRANCH   1  18
ATOM     18  N   UNL     1       1.283   3.797  -0.629  0.00  0.00    -0.305 N 
ATOM     19  H   UNL     1       0.493   4.356  -0.568  0.00  0.00    +0.153 HD
BRANCH  18  25
ATOM     20  C   UNL     1       2.710   5.643  -1.274  0.00  0.00    +0.141 A 
ATOM     21  C   UNL     1       3.967   6.220  -1.333  0.00  0.00    +0.047 A 
ATOM     22  C   UNL     1       5.064   5.545  -0.829  0.00  0.00    +0.004 A 
ATOM     23  C   UNL     1       4.909   4.294  -0.260  0.00  0.00    +0.002 A 
ATOM     24  C   UNL     1       3.657   3.713  -0.193  0.00  0.00    +0.027 A 
ATOM     25  C   UNL     1       2.552   4.384  -0.696  0.00  0.00    +0.074 A 
BRANCH  20  27
ATOM     26  C   UNL     1       1.869   7.589  -2.350  0.00  0.00    +0.277 C 
ATOM     27  O   UNL     1       1.632   6.303  -1.773  0.00  0.00    -0.493 OA
ENDBRANCH  20  27
ENDBRANCH  18  25
ENDBRANCH   1  18
BRANCH   4  28
ATOM     28  C   UNL     1       1.750  -1.620  -0.920  0.00  0.00    +0.202 C 
ATOM     29  O   UNL     1       0.942  -2.494  -0.657  0.00  0.00    -0.286 OA
BRANCH  28  30
ATOM     30  C   UNL     1       3.113  -1.983  -1.371  0.00  0.00    +0.023 A 
ATOM     31  C   UNL     1       3.873  -1.073  -2.106  0.00  0.00    +0.012 A 
ATOM     32  C   UNL     1       5.144  -1.416  -2.520  0.00  0.00    +0.001 A 
ATOM     33  C   UNL     1       5.660  -2.662  -2.216  0.00  0.00    +0.000 A 
ATOM     34  C   UNL     1       4.910  -3.571  -1.491  0.00  0.00    +0.001 A 
ATOM     35  C   UNL     1       3.640  -3.239  -1.067  0.00  0.00    +0.012 A 
ENDBRANCH  28  30
ENDBRANCH   4  28
TORSDOF 8
