REMARK  Name = ZINC16927413
REMARK  11 active torsions:
REMARK  status: ('A' for Active; 'I' for Inactive)
REMARK    1  A    between atoms: C_1  and  C_2
REMARK    2  A    between atoms: C_2  and  C_3
REMARK    3  A    between atoms: C_3  and  C_5
REMARK    4  A    between atoms: C_3  and  O_8
REMARK    5  A    between atoms: O_8  and  C_9
REMARK    6  A    between atoms: C_12  and  C_15
REMARK    7  A    between atoms: N_19  and  C_33
REMARK    8  A    between atoms: N_21  and  C_22
REMARK    9  A    between atoms: C_25  and  C_29
REMARK   10  A    between atoms: C_26  and  O_28
REMARK   11  A    between atoms: C_33  and  C_34
REMARK                            x       y       z     vdW  Elec       q    Type
REMARK                         _______ _______ _______ _____ _____    ______ ____
ROOT
ATOM      1  C   UNL     1      -7.662   0.223  -0.835  0.00  0.00    +0.028 C 
ATOM      2  C   UNL     1      -8.407   0.374  -1.959  0.00  0.00    +0.078 C 
ATOM      3  C   UNL     1      -9.874   0.401  -2.114  0.00  0.00    +0.259 C 
ATOM      4  O   UNL     1     -10.617   0.279  -1.158  0.00  0.00    -0.269 OA
ATOM      5  N   UNL     1     -10.345   0.565  -3.339  0.00  0.00    -0.242 N 
ATOM      6  C   UNL     1      -9.489   0.701  -4.408  0.00  0.00    +0.169 C 
ATOM      7  N   UNL     1      -9.788   0.870  -5.679  0.00  0.00    -0.225 NA
ATOM      8  S   UNL     1      -7.875   0.601  -3.650  0.00  0.00    -0.049 S 
ENDROOT
BRANCH   1  12
ATOM      9  C   UNL     1      -3.466  -0.315  -1.128  0.00  0.00    +0.122 A 
ATOM     10  C   UNL     1      -4.054  -0.116   0.116  0.00  0.00    +0.046 A 
ATOM     11  C   UNL     1      -5.415   0.059   0.217  0.00  0.00    +0.011 A 
ATOM     12  C   UNL     1      -6.209   0.037  -0.936  0.00  0.00    -0.024 A 
ATOM     13  C   UNL     1      -5.612  -0.164  -2.187  0.00  0.00    +0.011 A 
ATOM     14  C   UNL     1      -4.248  -0.332  -2.277  0.00  0.00    +0.046 A 
BRANCH   9  15
ATOM     15  O   UNL     1      -2.123  -0.486  -1.222  0.00  0.00    -0.477 OA
BRANCH  15  16
ATOM     16  C   UNL     1      -1.364  -0.337  -0.020  0.00  0.00    +0.285 C 
BRANCH  16  17
ATOM     17  C   UNL     1      -1.281  -1.664   0.690  0.00  0.00    +0.396 C 
ATOM     18  O   UNL     1      -0.753  -1.736   1.786  0.00  0.00    -0.242 OA
ATOM     19  O   UNL     1      -1.742  -2.664   0.168  0.00  0.00    -0.242 OA
ENDBRANCH  16  17
BRANCH  16  21
ATOM     20  C   UNL     1      -0.029   1.548  -0.972  0.00  0.00    +0.008 C 
ATOM     21  C   UNL     1       0.046   0.146  -0.364  0.00  0.00    +0.053 C 
ENDBRANCH  16  21
ENDBRANCH  15  16
ENDBRANCH   9  15
ENDBRANCH   1  12
BRANCH   7  22
ATOM     22  C   UNL     1      -8.794   0.986  -6.603  0.00  0.00    +0.070 A 
ATOM     23  C   UNL     1      -7.688   1.809  -6.341  0.00  0.00    +0.029 A 
ATOM     24  C   UNL     1      -6.690   1.931  -7.259  0.00  0.00    +0.021 A 
ATOM     25  C   UNL     1      -6.762   1.233  -8.475  0.00  0.00    +0.105 A 
ATOM     26  C   UNL     1      -7.867   0.406  -8.744  0.00  0.00    +0.133 A 
ATOM     27  C   UNL     1      -8.874   0.281  -7.807  0.00  0.00    +0.074 A 
BRANCH  25  28
ATOM     28  C   UNL     1      -5.686   1.367  -9.462  0.00  0.00    +0.390 C 
ATOM     29  O   UNL     1      -4.725   2.088  -9.226  0.00  0.00    -0.240 OA
ATOM     30  O   UNL     1      -5.750   0.758 -10.522  0.00  0.00    -0.240 OA
ENDBRANCH  25  28
BRANCH  26  31
ATOM     31  O   UNL     1      -7.942  -0.270  -9.918  0.00  0.00    -0.506 OA
ATOM     32  H   UNL     1      -7.542  -1.150  -9.891  0.00  0.00    +0.292 HD
ENDBRANCH  26  31
ENDBRANCH   7  22
BRANCH   5  33
ATOM     33  C   UNL     1     -11.793   0.601  -3.560  0.00  0.00    +0.142 C 
BRANCH  33  34
ATOM     34  C   UNL     1     -12.282   2.022  -3.451  0.00  0.00    -0.015 C 
ATOM     35  C   UNL     1     -12.960   2.559  -4.435  0.00  0.00    +0.005 C 
ENDBRANCH  33  34
ENDBRANCH   5  33
TORSDOF 10
