REMARK  Name = ZINC26834913
REMARK  15 active torsions:
REMARK  status: ('A' for Active; 'I' for Inactive)
REMARK    1  A    between atoms: C_1  and  C_2
REMARK    2  A    between atoms: C_2  and  O_3
REMARK    3  A    between atoms: O_3  and  C_4
REMARK    4  A    between atoms: C_4  and  C_6
REMARK    5  A    between atoms: C_7  and  C_39
REMARK    6  A    between atoms: C_9  and  C_38
REMARK    7  A    between atoms: C_11  and  O_13
REMARK    8  A    between atoms: O_13  and  C_14
REMARK    9  A    between atoms: C_14  and  C_15
REMARK   10  A    between atoms: C_16  and  C_18
REMARK   11  A    between atoms: C_19  and  C_37
REMARK   12  A    between atoms: C_22  and  C_23
REMARK   13  A    between atoms: C_23  and  C_24
REMARK   14  A    between atoms: C_24  and  C_25
REMARK   15  A    between atoms: C_28  and  C_31
REMARK                            x       y       z     vdW  Elec       q    Type
REMARK                         _______ _______ _______ _____ _____    ______ ____
ROOT
ATOM      1  C   UNL     1      -3.985   0.600   1.340  0.00  0.00    +0.030 A 
ATOM      2  C   UNL     1      -3.899   0.800   2.730  0.00  0.00    +0.085 A 
ATOM      3  N   UNL     1      -3.635   2.058   2.941  0.00  0.00    -0.083 NA
ATOM      4  O   UNL     1      -3.544   2.702   1.683  0.00  0.00    -0.359 OA
ATOM      5  C   UNL     1      -3.758   1.780   0.732  0.00  0.00    +0.142 A 
ATOM      6  C   UNL     1      -4.081  -0.256   3.789  0.00  0.00    +0.069 C 
ENDROOT
BRANCH   1  14
ATOM      7  C   UNL     1      -5.610  -0.586  -0.059  0.00  0.00    +0.070 C 
ATOM      8  C   UNL     1      -5.623  -0.793  -1.430  0.00  0.00    +0.049 C 
ATOM      9  N   UNL     1      -4.528  -1.090  -2.103  0.00  0.00    -0.256 NA
ATOM     10  C   UNL     1      -3.324  -1.225  -1.582  0.00  0.00    +0.049 C 
ATOM     11  C   UNL     1      -3.087  -1.060  -0.227  0.00  0.00    +0.070 C 
ATOM     12  C   UNL     1      -1.811  -1.206   0.306  0.00  0.00    +0.338 C 
ATOM     13  O   UNL     1      -1.631  -1.165   1.626  0.00  0.00    -0.245 OA
ATOM     14  C   UNL     1      -4.274  -0.709   0.651  0.00  0.00    +0.101 C 
ATOM     15  C   UNL     1      -2.171  -1.568  -2.490  0.00  0.00    +0.066 C 
ATOM     16  C   UNL     1      -6.928  -0.675  -2.173  0.00  0.00    +0.066 C 
BRANCH   7  17
ATOM     17  C   UNL     1      -6.772  -0.273   0.636  0.00  0.00    +0.338 C 
ATOM     18  O   UNL     1      -7.891   0.009  -0.031  0.00  0.00    -0.245 OA
BRANCH  17  19
ATOM     19  O   UNL     1      -6.768  -0.255   1.984  0.00  0.00    -0.462 OA
BRANCH  19  21
ATOM     20  C   UNL     1      -7.798   0.045   4.149  0.00  0.00    +0.048 C 
ATOM     21  C   UNL     1      -7.998   0.075   2.632  0.00  0.00    +0.229 C 
ENDBRANCH  19  21
ENDBRANCH  17  19
ENDBRANCH   7  17
BRANCH  12  22
ATOM     22  O   UNL     1      -0.755  -1.388  -0.512  0.00  0.00    -0.462 OA
BRANCH  22  23
ATOM     23  C   UNL     1       0.527  -1.530   0.104  0.00  0.00    +0.229 C 
ATOM     24  C   UNL     1       1.593  -1.727  -0.976  0.00  0.00    +0.048 C 
ENDBRANCH  22  23
ENDBRANCH  12  22
ENDBRANCH   1  14
BRANCH   5  25
ATOM     25  C   UNL     1      -3.749   2.022  -0.755  0.00  0.00    +0.082 C 
BRANCH  25  26
ATOM     26  C   UNL     1      -5.109   2.570  -1.191  0.00  0.00    +0.043 C 
BRANCH  26  27
ATOM     27  C   UNL     1      -5.058   2.939  -2.651  0.00  0.00    -0.047 A 
ATOM     28  C   UNL     1      -4.691   4.219  -3.025  0.00  0.00    +0.004 A 
ATOM     29  C   UNL     1      -4.642   4.563  -4.361  0.00  0.00    +0.009 A 
ATOM     30  C   UNL     1      -4.964   3.619  -5.333  0.00  0.00    -0.018 A 
ATOM     31  C   UNL     1      -5.333   2.331  -4.950  0.00  0.00    +0.009 A 
ATOM     32  C   UNL     1      -5.373   1.996  -3.612  0.00  0.00    +0.004 A 
BRANCH  30  33
ATOM     33  C   UNL     1      -4.914   3.982  -6.771  0.00  0.00    -0.018 A 
ATOM     34  C   UNL     1      -4.540   5.269  -7.154  0.00  0.00    +0.008 A 
ATOM     35  C   UNL     1      -4.494   5.602  -8.492  0.00  0.00    +0.001 A 
ATOM     36  C   UNL     1      -4.820   4.662  -9.453  0.00  0.00    +0.000 A 
ATOM     37  C   UNL     1      -5.193   3.383  -9.079  0.00  0.00    +0.001 A 
ATOM     38  C   UNL     1      -5.236   3.038  -7.743  0.00  0.00    +0.008 A 
ENDBRANCH  30  33
ENDBRANCH  26  27
ENDBRANCH  25  26
ENDBRANCH   5  25
TORSDOF 10
