REMARK  Name = ZINC57945986
REMARK  13 active torsions:
REMARK  status: ('A' for Active; 'I' for Inactive)
REMARK    1  A    between atoms: C_1  and  C_2
REMARK    2  A    between atoms: C_2  and  C_3
REMARK    3  A    between atoms: C_3  and  C_4
REMARK    4  A    between atoms: C_4  and  N_5
REMARK    5  A    between atoms: N_14  and  C_34
REMARK    6  A    between atoms: C_15  and  C_17
REMARK    7  A    between atoms: C_17  and  S_18
REMARK    8  A    between atoms: S_18  and  C_19
REMARK    9  A    between atoms: C_22  and  C_24
REMARK   10  A    between atoms: C_27  and  C_30
REMARK   11  A    between atoms: C_30  and  C_31
REMARK   12  A    between atoms: C_30  and  C_32
REMARK   13  A    between atoms: C_30  and  C_33
REMARK                            x       y       z     vdW  Elec       q    Type
REMARK                         _______ _______ _______ _____ _____    ______ ____
ROOT
ATOM      1  N   UNL     1       1.425  -2.500  -2.470  0.00  0.00    -0.277 N 
ATOM      2  C   UNL     1       0.704  -2.728  -3.632  0.00  0.00    +0.168 A 
ATOM      3  C   UNL     1       1.377  -3.176  -4.761  0.00  0.00    +0.151 A 
ATOM      4  C   UNL     1       2.772  -3.385  -4.694  0.00  0.00    +0.280 A 
ATOM      5  O   UNL     1       3.384  -3.776  -5.671  0.00  0.00    -0.265 OA
ATOM      6  N   UNL     1       3.418  -3.144  -3.534  0.00  0.00    -0.273 N 
ATOM      7  H   UNL     1       4.376  -3.286  -3.483  0.00  0.00    +0.173 HD
ATOM      8  C   UNL     1       2.755  -2.706  -2.450  0.00  0.00    +0.331 A 
ATOM      9  O   UNL     1       3.372  -2.495  -1.423  0.00  0.00    -0.246 OA
ATOM     10  N   UNL     1       0.423  -3.315  -5.750  0.00  0.00    -0.324 N 
ATOM     11  C   UNL     1      -0.758  -2.960  -5.209  0.00  0.00    +0.123 A 
ATOM     12  N   UNL     1      -0.586  -2.614  -3.958  0.00  0.00    -0.213 NA
ATOM     13  C   UNL     1       0.653  -3.763  -7.125  0.00  0.00    +0.151 C 
ENDROOT
BRANCH   1  14
ATOM     14  C   UNL     1       0.739  -2.027  -1.265  0.00  0.00    +0.128 C 
BRANCH  14  15
ATOM     15  C   UNL     1       0.718  -0.497  -1.257  0.00  0.00    +0.021 C 
BRANCH  15  17
ATOM     16  C   UNL     1      -0.019   1.526   0.010  0.00  0.00    +0.004 C 
ATOM     17  C   UNL     1       0.002  -0.004   0.002  0.00  0.00    -0.002 C 
ENDBRANCH  15  17
ENDBRANCH  14  15
ENDBRANCH   1  14
BRANCH  11  18
ATOM     18  C   UNL     1      -2.079  -2.959  -5.935  0.00  0.00    +0.153 C 
BRANCH  18  19
ATOM     19  S   UNL     1      -2.875  -4.578  -5.743  0.00  0.00    -0.058 S 
BRANCH  19  20
ATOM     20  C   UNL     1      -4.386  -4.418  -6.635  0.00  0.00    +0.278 A 
ATOM     21  N   UNL     1      -4.798  -3.352  -7.282  0.00  0.00    -0.101 NA
ATOM     22  N   UNL     1      -5.944  -3.591  -7.816  0.00  0.00    -0.106 NA
ATOM     23  C   UNL     1      -6.309  -4.817  -7.533  0.00  0.00    +0.249 A 
ATOM     24  O   UNL     1      -5.329  -5.368  -6.784  0.00  0.00    -0.411 OA
BRANCH  23  25
ATOM     25  C   UNL     1      -7.561  -5.477  -7.958  0.00  0.00    +0.039 A 
ATOM     26  C   UNL     1      -7.824  -6.794  -7.576  0.00  0.00    +0.013 A 
ATOM     27  C   UNL     1      -8.995  -7.404  -7.976  0.00  0.00    +0.005 A 
ATOM     28  C   UNL     1      -9.906  -6.715  -8.756  0.00  0.00    -0.042 A 
ATOM     29  C   UNL     1      -9.651  -5.410  -9.139  0.00  0.00    +0.005 A 
ATOM     30  C   UNL     1      -8.488  -4.785  -8.740  0.00  0.00    +0.013 A 
BRANCH  28  31
ATOM     31  C   UNL     1     -11.182  -7.388  -9.191  0.00  0.00    -0.013 C 
ATOM     32  C   UNL     1     -11.986  -7.802  -7.957  0.00  0.00    +0.015 C 
ATOM     33  C   UNL     1     -12.009  -6.418 -10.037  0.00  0.00    +0.015 C 
ATOM     34  C   UNL     1     -10.847  -8.629 -10.021  0.00  0.00    +0.015 C 
ENDBRANCH  28  31
ENDBRANCH  23  25
ENDBRANCH  19  20
ENDBRANCH  18  19
ENDBRANCH  11  18
TORSDOF 8
