REMARK  Name = ZINC05963554
REMARK  8 active torsions:
REMARK  status: ('A' for Active; 'I' for Inactive)
REMARK    1  A    between atoms: C_1  and  C_2
REMARK    2  A    between atoms: C_2  and  C_16
REMARK    3  A    between atoms: N_5  and  N_6
REMARK    4  A    between atoms: N_6  and  C_7
REMARK    5  A    between atoms: C_7  and  N_9
REMARK    6  A    between atoms: C_11  and  C_14
REMARK    7  A    between atoms: C_11  and  C_15
REMARK    8  A    between atoms: N_12  and  O_13
REMARK                            x       y       z     vdW  Elec       q    Type
REMARK                         _______ _______ _______ _____ _____    ______ ____
ROOT
ATOM      1  C   UNL     1      -0.720   0.548   0.275  0.00  0.00    +0.030 C 
ATOM      2  C   UNL     1      -1.259   1.275   1.527  0.00  0.00    +0.047 C 
ATOM      3  C   UNL     1      -1.103   2.780   1.288  0.00  0.00    +0.076 C 
ATOM      4  C   UNL     1      -1.264   3.495   2.611  0.00  0.00    +0.040 C 
ATOM      5  N   UNL     1      -2.121   4.430   2.769  0.00  0.00    -0.190 NA
ATOM      6  C   UNL     1      -0.358   3.049   3.737  0.00  0.00    +0.076 C 
ATOM      7  C   UNL     1      -0.523   1.539   3.927  0.00  0.00    +0.047 C 
ATOM      8  N   UNL     1      -0.516   0.811   2.678  0.00  0.00    -0.179 NA
ATOM      9  C   UNL     1      -1.803   1.268   4.728  0.00  0.00    +0.030 C 
ATOM     10  C   UNL     1       0.665   1.046   4.783  0.00  0.00    +0.030 C 
ATOM     11  C   UNL     1      -2.749   0.935   1.645  0.00  0.00    +0.030 C 
ENDROOT
BRANCH   5  12
ATOM     12  N   UNL     1      -2.847   4.907   1.671  0.00  0.00    -0.219 N 
ATOM     13  H   UNL     1      -2.619   4.540   0.659  0.00  0.00    +0.176 HD
BRANCH  12  14
ATOM     14  C   UNL     1      -3.826   5.816   1.853  0.00  0.00    +0.147 C 
ATOM     15  S   UNL     1      -4.713   6.399   0.510  0.00  0.00    -0.017 S 
BRANCH  14  16
ATOM     16  N   UNL     1      -4.105   6.266   3.092  0.00  0.00    -0.339 N 
ATOM     17  H   UNL     1      -4.903   7.008   3.241  0.00  0.00    +0.144 HD
ATOM     18  H   UNL     1      -3.534   5.891   3.955  0.00  0.00    +0.144 HD
ENDBRANCH  14  16
ENDBRANCH  12  14
ENDBRANCH   5  12
BRANCH   8  19
ATOM     19  O   UNL     1      -0.645  -0.633   2.876  0.00  0.00    -0.311 OA
ATOM     20  H   UNL     1      -0.130  -1.121   3.716  0.00  0.00    +0.237 HD
ENDBRANCH   8  19
TORSDOF 4
