REMARK  Name = ZINC35369949
REMARK  5 active torsions:
REMARK  status: ('A' for Active; 'I' for Inactive)
REMARK    1  A    between atoms: C_4  and  C_7
REMARK    2  A    between atoms: C_7  and  C_8
REMARK    3  A    between atoms: C_8  and  C_9
REMARK    4  A    between atoms: N_18  and  S_21
REMARK    5  A    between atoms: S_21  and  C_24
REMARK                            x       y       z     vdW  Elec       q    Type
REMARK                         _______ _______ _______ _____ _____    ______ ____
ROOT
ATOM      1  C   UNL     1       5.487  -1.699   1.381  0.00  0.00    +0.217 C 
ATOM      2  O   UNL     1       6.051  -1.898   0.327  0.00  0.00    -0.276 OA
ATOM      3  N   UNL     1       6.087  -2.034   2.541  0.00  0.00    -0.286 N 
ATOM      4  C   UNL     1       5.555  -1.619   3.838  0.00  0.00    +0.120 C 
ATOM      5  C   UNL     1       5.877  -2.678   4.934  0.00  0.00    +0.090 C 
ATOM      6  S   UNL     1       7.578  -3.141   4.373  0.00  0.00    -0.133 S 
ATOM      7  C   UNL     1       7.311  -2.843   2.579  0.00  0.00    +0.086 C 
ATOM      8  C   UNL     1       7.114  -4.171   1.864  0.00  0.00    +0.054 C 
ATOM      9  C   UNL     1       6.872  -3.917   0.371  0.00  0.00    +0.112 C 
ATOM     10  N   UNL     1       7.966  -3.083  -0.147  0.00  0.00    -0.176 NA
ATOM     11  C   UNL     1       8.262  -1.808   0.519  0.00  0.00    +0.112 C 
ATOM     12  C   UNL     1       8.495  -2.075   2.010  0.00  0.00    +0.054 C 
ENDROOT
BRANCH  10  13
ATOM     13  S   UNL     1       8.849  -3.574  -1.459  0.00  0.00    +0.063 S 
ATOM     14  O   UNL     1      10.104  -2.913  -1.374  0.00  0.00    -0.153 OA
ATOM     15  O   UNL     1       8.736  -4.989  -1.519  0.00  0.00    -0.153 OA
BRANCH  13  16
ATOM     16  C   UNL     1       8.045  -2.943  -2.894  0.00  0.00    +0.131 A 
ATOM     17  C   UNL     1       8.669  -2.023  -3.679  0.00  0.00    +0.031 A 
ATOM     18  C   UNL     1       8.051  -1.512  -4.818  0.00  0.00    +0.003 A 
ATOM     19  C   UNL     1       6.803  -1.919  -5.178  0.00  0.00    +0.010 A 
ATOM     20  C   UNL     1       6.129  -2.868  -4.393  0.00  0.00    +0.002 A 
ATOM     21  C   UNL     1       6.758  -3.393  -3.237  0.00  0.00    +0.097 A 
ATOM     22  N   UNL     1       6.122  -4.300  -2.488  0.00  0.00    -0.253 NA
ATOM     23  C   UNL     1       4.921  -4.723  -2.802  0.00  0.00    +0.111 A 
ATOM     24  C   UNL     1       4.250  -4.251  -3.928  0.00  0.00    +0.020 A 
ATOM     25  C   UNL     1       4.837  -3.315  -4.730  0.00  0.00    +0.011 A 
ENDBRANCH  13  16
ENDBRANCH  10  13
BRANCH   1  26
ATOM     26  C   UNL     1       4.114  -1.077   1.396  0.00  0.00    +0.100 C 
BRANCH  26  27
ATOM     27  C   UNL     1       3.666  -0.797  -0.040  0.00  0.00    +0.044 C 
BRANCH  27  31
ATOM     28  C   UNL     1      -0.225   0.965  -0.002  0.00  0.00    +0.000 A 
ATOM     29  C   UNL     1       0.898   1.769   0.052  0.00  0.00    +0.000 A 
ATOM     30  C   UNL     1       2.157   1.199   0.040  0.00  0.00    +0.003 A 
ATOM     31  C   UNL     1       2.293  -0.175  -0.026  0.00  0.00    -0.047 A 
ATOM     32  C   UNL     1       1.170  -0.979  -0.078  0.00  0.00    +0.003 A 
ATOM     33  C   UNL     1      -0.089  -0.409  -0.068  0.00  0.00    +0.000 A 
ENDBRANCH  27  31
ENDBRANCH  26  27
ENDBRANCH   1  26
TORSDOF 5
