REMARK  Name = ZINC45647862
REMARK  4 active torsions:
REMARK  status: ('A' for Active; 'I' for Inactive)
REMARK    1  A    between atoms: C_3  and  C_8
REMARK    2  A    between atoms: C_8  and  N_9
REMARK    3  A    between atoms: C_13  and  C_15
REMARK    4  A    between atoms: C_16  and  C_17
REMARK                            x       y       z     vdW  Elec       q    Type
REMARK                         _______ _______ _______ _____ _____    ______ ____
ROOT
ATOM      1  N   UNL     1       4.262   1.395  -2.418  0.00  0.00    -0.299 N 
ATOM      2  C   UNL     1       5.499   1.816  -2.748  0.00  0.00    +0.306 C 
ATOM      3  O   UNL     1       6.037   2.690  -2.097  0.00  0.00    -0.252 OA
ATOM      4  N   UNL     1       6.138   1.268  -3.800  0.00  0.00    -0.237 N 
ATOM      5  C   UNL     1       7.375   1.690  -4.131  0.00  0.00    +0.244 C 
ATOM      6  O   UNL     1       7.914   2.563  -3.481  0.00  0.00    -0.270 OA
ATOM      7  H   UNL     1       3.832   0.698  -2.937  0.00  0.00    +0.150 HD
ATOM      8  H   UNL     1       5.709   0.571  -4.320  0.00  0.00    +0.159 HD
ENDROOT
BRANCH   5   9
ATOM      9  C   UNL     1       8.077   1.089  -5.285  0.00  0.00    +0.075 C 
ATOM     10  C   UNL     1       9.309   1.509  -5.614  0.00  0.00    +0.101 C 
BRANCH  10  11
ATOM     11  C   UNL     1      10.009   0.910  -6.766  0.00  0.00    +0.380 C 
ATOM     12  O   UNL     1       9.467   0.031  -7.421  0.00  0.00    -0.241 OA
ATOM     13  O   UNL     1      11.131   1.292  -7.066  0.00  0.00    -0.241 OA
ENDBRANCH  10  11
ENDBRANCH   5   9
BRANCH   1  14
ATOM     14  C   UNL     1       3.567   1.990  -1.274  0.00  0.00    +0.109 C 
BRANCH  14  17
ATOM     15  C   UNL     1      -0.018   1.496   0.010  0.00  0.00    +0.027 C 
ATOM     16  C   UNL     1       1.411   2.043  -0.000  0.00  0.00    +0.009 C 
ATOM     17  C   UNL     1       2.192   1.338  -1.117  0.00  0.00    +0.010 C 
ATOM     18  C   UNL     1       2.356  -0.135  -0.738  0.00  0.00    +0.032 C 
ATOM     19  C   UNL     1       1.033  -0.714  -0.328  0.00  0.00    -0.031 C 
ATOM     20  C   UNL     1       0.002  -0.004   0.002  0.00  0.00    -0.031 C 
ENDBRANCH  14  17
ENDBRANCH   1  14
TORSDOF 4
