REMARK  Name = ZINC12056401
REMARK  8 active torsions:
REMARK  status: ('A' for Active; 'I' for Inactive)
REMARK    1  A    between atoms: C_1  and  O_2
REMARK    2  A    between atoms: O_2  and  C_3
REMARK    3  A    between atoms: C_5  and  N_30
REMARK    4  A    between atoms: C_18  and  C_19
REMARK    5  A    between atoms: C_18  and  N_65
REMARK    6  A    between atoms: C_31  and  C_33
REMARK    7  A    between atoms: C_33  and  S_34
REMARK    8  A    between atoms: S_34  and  C_35
REMARK                            x       y       z     vdW  Elec       q    Type
REMARK                         _______ _______ _______ _____ _____    ______ ____
ROOT
ATOM      1  C   UNL     1       3.415  -4.954   1.865  0.00  0.00    +0.153 C 
ATOM      2  C   UNL     1       2.780  -5.918   2.891  0.00  0.00    +0.133 C 
ATOM      3  C   UNL     1       3.411  -5.558   4.219  0.00  0.00    -0.021 A 
ATOM      4  C   UNL     1       3.466  -6.266   5.408  0.00  0.00    +0.006 A 
ATOM      5  C   UNL     1       4.106  -5.730   6.508  0.00  0.00    +0.000 A 
ATOM      6  C   UNL     1       4.694  -4.481   6.423  0.00  0.00    +0.000 A 
ATOM      7  C   UNL     1       4.641  -3.773   5.238  0.00  0.00    +0.004 A 
ATOM      8  C   UNL     1       4.000  -4.309   4.133  0.00  0.00    -0.034 A 
ATOM      9  C   UNL     1       3.804  -3.751   2.744  0.00  0.00    +0.021 C 
ATOM     10  C   UNL     1       5.100  -3.129   2.233  0.00  0.00    -0.005 C 
ATOM     11  C   UNL     1       4.866  -2.544   0.838  0.00  0.00    -0.077 C 
ATOM     12  C   UNL     1       2.526  -2.146   1.327  0.00  0.00    -0.077 C 
ATOM     13  C   UNL     1       2.682  -2.717   2.739  0.00  0.00    -0.005 C 
ATOM     14  N   UNL     1       3.802  -1.520   0.920  0.00  0.00    +0.382 N 
ATOM     15  H   UNL     1       4.068  -0.820   1.621  0.00  0.00    -0.081 HD
ENDROOT
BRANCH   2  16
ATOM     16  N   UNL     1       1.330  -5.718   2.946  0.00  0.00    -0.305 N 
ATOM     17  C   UNL     1       0.525  -6.721   3.352  0.00  0.00    +0.223 C 
ATOM     18  O   UNL     1       1.002  -7.789   3.670  0.00  0.00    -0.275 OA
ATOM     19  H   UNL     1       0.948  -4.863   2.692  0.00  0.00    +0.149 HD
BRANCH  17  20
ATOM     20  C   UNL     1      -0.966  -6.514   3.409  0.00  0.00    +0.164 C 
BRANCH  20  21
ATOM     21  S   UNL     1      -1.766  -8.036   3.988  0.00  0.00    -0.155 S 
ATOM     22  C   UNL     1      -3.533  -7.626   4.000  0.00  0.00    +0.085 C 
ENDBRANCH  20  21
ENDBRANCH  17  20
ENDBRANCH   2  16
BRANCH   1  24
ATOM     23  C   UNL     1       4.323  -6.151  -0.003  0.00  0.00    +0.194 C 
ATOM     24  O   UNL     1       4.572  -5.540   1.265  0.00  0.00    -0.377 OA
ENDBRANCH   1  24
BRANCH  14  25
ATOM     25  C   UNL     1       3.642  -0.853  -0.388  0.00  0.00    -0.044 C 
BRANCH  25  26
ATOM     26  C   UNL     1       2.389  -0.017  -0.366  0.00  0.00    -0.049 C 
ATOM     27  C   UNL     1       2.457   1.272  -0.045  0.00  0.00    +0.012 C 
ATOM     28  C   UNL     1       1.200   2.049   0.002  0.00  0.00    +0.018 A 
ATOM     29  C   UNL     1       1.209   3.439   0.029  0.00  0.00    +0.031 A 
ATOM     30  C   UNL     1       0.010   4.128   0.052  0.00  0.00    +0.042 A 
ATOM     31  C   UNL     1      -1.192   3.438   0.049  0.00  0.00    +0.023 A 
ATOM     32  C   UNL     1      -1.208   2.055   0.030  0.00  0.00    +0.048 A 
ATOM     33  C   UNL     1      -0.016   1.354   0.009  0.00  0.00    +0.128 A 
ATOM     34  O   UNL     1       0.002  -0.004   0.002  0.00  0.00    -0.487 OA
ATOM     35  C   UNL     1       1.063  -0.643  -0.708  0.00  0.00    +0.258 C 
ATOM     36 CL   UNL     1       0.011   5.863   0.085  0.00  0.00    -0.084 Cl
ENDBRANCH  25  26
ENDBRANCH  14  25
TORSDOF 6
