REMARK  Name = ZINC58982881
REMARK  8 active torsions:
REMARK  status: ('A' for Active; 'I' for Inactive)
REMARK    1  A    between atoms: C_1  and  C_2
REMARK    2  A    between atoms: C_2  and  C_4
REMARK    3  A    between atoms: C_2  and  O_21
REMARK    4  A    between atoms: N_6  and  C_7
REMARK    5  A    between atoms: C_11  and  C_13
REMARK    6  A    between atoms: C_13  and  C_20
REMARK    7  A    between atoms: O_21  and  C_22
REMARK    8  A    between atoms: C_25  and  C_28
REMARK                            x       y       z     vdW  Elec       q    Type
REMARK                         _______ _______ _______ _____ _____    ______ ____
ROOT
ATOM      1  C   UNL     1      -1.537  -0.517   0.093  0.00  0.00    +0.258 C 
ATOM      2  O   UNL     1      -1.871  -1.150  -0.887  0.00  0.00    -0.271 OA
ATOM      3  N   UNL     1      -2.413  -0.322   1.099  0.00  0.00    -0.282 N 
ATOM      4  H   UNL     1      -2.174   0.248   1.846  0.00  0.00    +0.155 HD
ENDROOT
BRANCH   3   5
ATOM      5  C   UNL     1      -3.666  -0.943   1.066  0.00  0.00    +0.034 A 
ATOM      6  C   UNL     1      -3.800  -2.213   0.520  0.00  0.00    +0.023 A 
ATOM      7  C   UNL     1      -5.038  -2.823   0.488  0.00  0.00    +0.002 A 
ATOM      8  C   UNL     1      -6.145  -2.170   1.000  0.00  0.00    +0.006 A 
ATOM      9  C   UNL     1      -6.016  -0.906   1.544  0.00  0.00    -0.014 A 
ATOM     10  C   UNL     1      -4.778  -0.293   1.584  0.00  0.00    +0.029 A 
BRANCH   9  11
ATOM     11  C   UNL     1      -7.225  -0.198   2.099  0.00  0.00    +0.135 C 
ATOM     12  C   UNL     1      -7.093  -0.014   3.598  0.00  0.00    +0.248 C 
ATOM     13  O   UNL     1      -6.239   0.613   4.187  0.00  0.00    -0.273 OA
ATOM     14  N   UNL     1      -8.124  -0.693   4.140  0.00  0.00    -0.238 N 
ATOM     15  C   UNL     1      -8.881  -1.273   3.201  0.00  0.00    +0.307 C 
ATOM     16  O   UNL     1      -9.868  -1.939   3.446  0.00  0.00    -0.252 OA
ATOM     17  N   UNL     1      -8.427  -1.037   1.957  0.00  0.00    -0.282 N 
ATOM     18  C   UNL     1      -7.424   1.151   1.404  0.00  0.00    +0.047 C 
ATOM     19  H   UNL     1      -8.296  -0.753   5.093  0.00  0.00    +0.159 HD
ATOM     20  H   UNL     1      -8.816  -1.356   1.128  0.00  0.00    +0.152 HD
ENDBRANCH   9  11
ENDBRANCH   3   5
BRANCH   1  22
ATOM     21  C   UNL     1      -0.217   1.579   0.191  0.00  0.00    +0.062 C 
ATOM     22  C   UNL     1      -0.145   0.051   0.185  0.00  0.00    +0.256 C 
BRANCH  22  23
ATOM     23  O   UNL     1       0.623  -0.385  -0.939  0.00  0.00    -0.480 OA
BRANCH  23  24
ATOM     24  C   UNL     1       1.972  -0.427  -0.785  0.00  0.00    +0.122 A 
ATOM     25  C   UNL     1       2.551   0.041   0.387  0.00  0.00    +0.046 A 
ATOM     26  C   UNL     1       3.920  -0.001   0.546  0.00  0.00    +0.012 A 
ATOM     27  C   UNL     1       4.723  -0.513  -0.472  0.00  0.00    -0.018 A 
ATOM     28  C   UNL     1       4.139  -0.982  -1.647  0.00  0.00    +0.012 A 
ATOM     29  C   UNL     1       2.769  -0.943  -1.798  0.00  0.00    +0.046 A 
BRANCH  27  30
ATOM     30  C   UNL     1       6.197  -0.559  -0.304  0.00  0.00    -0.018 A 
ATOM     31  C   UNL     1       6.781  -0.095   0.873  0.00  0.00    +0.008 A 
ATOM     32  C   UNL     1       8.152  -0.141   1.023  0.00  0.00    +0.001 A 
ATOM     33  C   UNL     1       8.946  -0.645   0.009  0.00  0.00    +0.000 A 
ATOM     34  C   UNL     1       8.371  -1.106  -1.162  0.00  0.00    +0.001 A 
ATOM     35  C   UNL     1       7.000  -1.071  -1.321  0.00  0.00    +0.008 A 
ENDBRANCH  27  30
ENDBRANCH  23  24
ENDBRANCH  22  23
ENDBRANCH   1  22
TORSDOF 6
