REMARK  Name = ZINC03307969
REMARK  10 active torsions:
REMARK  status: ('A' for Active; 'I' for Inactive)
REMARK    1  A    between atoms: C_1  and  C_2
REMARK    2  A    between atoms: C_2  and  C_3
REMARK    3  A    between atoms: C_2  and  C_4
REMARK    4  A    between atoms: C_2  and  C_5
REMARK    5  A    between atoms: C_8  and  C_11
REMARK    6  A    between atoms: C_14  and  S_17
REMARK    7  A    between atoms: N_15  and  N_16
REMARK    8  A    between atoms: S_17  and  C_18
REMARK    9  A    between atoms: C_18  and  C_19
REMARK   10  A    between atoms: N_21  and  C_22
REMARK                            x       y       z     vdW  Elec       q    Type
REMARK                         _______ _______ _______ _____ _____    ______ ____
ROOT
ATOM      1  C   UNL     1      -2.957  11.892  -0.520  0.00  0.00    +0.182 A 
ATOM      2  N   UNL     1      -1.693  11.594  -0.334  0.00  0.00    -0.127 NA
ATOM      3  N   UNL     1      -1.544  10.318  -0.300  0.00  0.00    -0.121 NA
ATOM      4  C   UNL     1      -2.703   9.723  -0.471  0.00  0.00    +0.209 A 
ATOM      5  N   UNL     1      -3.643  10.703  -0.613  0.00  0.00    -0.224 N 
ENDROOT
BRANCH   1   9
ATOM      6  C   UNL     1      -4.619  15.793  -0.782  0.00  0.00    -0.042 A 
ATOM      7  C   UNL     1      -5.443  14.708  -0.540  0.00  0.00    +0.005 A 
ATOM      8  C   UNL     1      -4.910  13.438  -0.454  0.00  0.00    +0.012 A 
ATOM      9  C   UNL     1      -3.535  13.250  -0.611  0.00  0.00    +0.021 A 
ATOM     10  C   UNL     1      -2.709  14.349  -0.849  0.00  0.00    +0.012 A 
ATOM     11  C   UNL     1      -3.256  15.613  -0.938  0.00  0.00    +0.005 A 
BRANCH   6  13
ATOM     12  C   UNL     1      -5.904  17.524   0.443  0.00  0.00    +0.015 C 
ATOM     13  C   UNL     1      -5.208  17.177  -0.875  0.00  0.00    -0.013 C 
ATOM     14  C   UNL     1      -4.093  18.189  -1.145  0.00  0.00    +0.015 C 
ATOM     15  C   UNL     1      -6.226  17.222  -2.016  0.00  0.00    +0.015 C 
ENDBRANCH   6  13
ENDBRANCH   1   9
BRANCH   5  16
ATOM     16  N   UNL     1      -4.985  10.538  -0.808  0.00  0.00    -0.295 N 
ATOM     17  H   UNL     1      -5.487  10.593   0.066  0.00  0.00    +0.163 HD
ATOM     18  H   UNL     1      -5.340  11.210  -1.471  0.00  0.00    +0.163 HD
ENDBRANCH   5  16
BRANCH   4  19
ATOM     19  S   UNL     1      -2.992   7.985  -0.503  0.00  0.00    -0.075 S 
BRANCH  19  20
ATOM     20  C   UNL     1      -1.304   7.381  -0.254  0.00  0.00    +0.173 C 
BRANCH  20  21
ATOM     21  C   UNL     1      -1.306   5.874  -0.246  0.00  0.00    +0.227 C 
ATOM     22  O   UNL     1      -2.346   5.268  -0.393  0.00  0.00    -0.275 OA
ATOM     23  N   UNL     1      -0.151   5.200  -0.074  0.00  0.00    -0.285 N 
ATOM     24  H   UNL     1       0.668   5.682   0.119  0.00  0.00    +0.155 HD
BRANCH  23  25
ATOM     25  C   UNL     1      -0.134   3.805  -0.175  0.00  0.00    +0.036 A 
ATOM     26  C   UNL     1      -1.078   3.153  -0.958  0.00  0.00    +0.043 A 
ATOM     27  C   UNL     1      -1.059   1.774  -1.056  0.00  0.00    +0.044 A 
ATOM     28  C   UNL     1      -0.102   1.044  -0.374  0.00  0.00    +0.040 A 
ATOM     29  C   UNL     1       0.836   1.691   0.411  0.00  0.00    +0.044 A 
ATOM     30  C   UNL     1       0.826   3.070   0.507  0.00  0.00    +0.043 A 
ATOM     31 CL   UNL     1       2.031   0.770   1.271  0.00  0.00    -0.083 Cl
ATOM     32 CL   UNL     1      -2.239   0.958  -2.034  0.00  0.00    -0.083 Cl
ENDBRANCH  23  25
ENDBRANCH  20  21
ENDBRANCH  19  20
ENDBRANCH   4  19
TORSDOF 7
