REMARK  Name = ZINC39570355
REMARK  8 active torsions:
REMARK  status: ('A' for Active; 'I' for Inactive)
REMARK    1  A    between atoms: C_1  and  C_2
REMARK    2  A    between atoms: C_8  and  N_10
REMARK    3  A    between atoms: C_11  and  C_13
REMARK    4  A    between atoms: C_13  and  N_14
REMARK    5  A    between atoms: C_20  and  C_23
REMARK    6  A    between atoms: C_23  and  C_24
REMARK    7  A    between atoms: C_23  and  C_25
REMARK    8  A    between atoms: C_23  and  C_26
REMARK                            x       y       z     vdW  Elec       q    Type
REMARK                         _______ _______ _______ _____ _____    ______ ____
ROOT
ATOM      1  N   UNL     1       0.984   0.635   5.955  0.00  0.00    -0.215 N 
ATOM      2  C   UNL     1       1.227  -0.391   6.796  0.00  0.00    +0.247 C 
ATOM      3  O   UNL     1       0.721  -1.492   6.777  0.00  0.00    -0.273 OA
ATOM      4  C   UNL     1       2.266   0.122   7.768  0.00  0.00    +0.113 C 
ATOM      5  C   UNL     1       1.717   0.105   9.191  0.00  0.00    +0.035 C 
ATOM      6  C   UNL     1       2.772   0.656  10.153  0.00  0.00    +0.006 C 
ATOM      7  C   UNL     1       4.037  -0.200  10.066  0.00  0.00    -0.005 C 
ATOM      8  C   UNL     1       4.588  -0.154   8.640  0.00  0.00    +0.006 C 
ATOM      9  C   UNL     1       3.541  -0.708   7.671  0.00  0.00    +0.035 C 
ATOM     10  N   UNL     1       2.515   1.501   7.329  0.00  0.00    -0.285 N 
ATOM     11  C   UNL     1       1.723   1.709   6.259  0.00  0.00    +0.310 C 
ATOM     12  O   UNL     1       1.683   2.755   5.641  0.00  0.00    -0.252 OA
ATOM     13  H   UNL     1       3.130   2.136   7.728  0.00  0.00    +0.151 HD
ENDROOT
BRANCH   7  14
ATOM     14  C   UNL     1       5.088   0.343  11.037  0.00  0.00    -0.035 C 
ATOM     15  C   UNL     1       4.537   0.296  12.464  0.00  0.00    +0.011 C 
ATOM     16  C   UNL     1       6.353  -0.513  10.950  0.00  0.00    +0.011 C 
ATOM     17  C   UNL     1       5.424   1.789  10.668  0.00  0.00    +0.011 C 
ENDBRANCH   7  14
BRANCH   1  18
ATOM     18  C   UNL     1       0.033   0.579   4.842  0.00  0.00    +0.213 C 
BRANCH  18  20
ATOM     19  N   UNL     1       0.056  -0.038   2.447  0.00  0.00    -0.311 N 
ATOM     20  C   UNL     1       0.738   0.093   3.602  0.00  0.00    +0.231 C 
ATOM     21  O   UNL     1       1.919  -0.179   3.644  0.00  0.00    -0.274 OA
ATOM     22  H   UNL     1      -0.888   0.180   2.413  0.00  0.00    +0.149 HD
BRANCH  19  29
ATOM     23  C   UNL     1      -0.019   1.526   0.010  0.00  0.00    +0.009 C 
ATOM     24  C   UNL     1       0.002  -0.004   0.002  0.00  0.00    +0.006 C 
ATOM     25  C   UNL     1       0.718  -0.497  -1.257  0.00  0.00    +0.005 C 
ATOM     26  C   UNL     1       0.739  -2.027  -1.265  0.00  0.00    +0.000 C 
ATOM     27  C   UNL     1       1.479  -2.534  -0.026  0.00  0.00    +0.002 C 
ATOM     28  C   UNL     1       0.763  -2.041   1.233  0.00  0.00    +0.022 C 
ATOM     29  C   UNL     1       0.742  -0.511   1.242  0.00  0.00    +0.076 C 
ENDBRANCH  19  29
ENDBRANCH  18  20
ENDBRANCH   1  18
TORSDOF 4
