REMARK  Name = ZINC09387293
REMARK  15 active torsions:
REMARK  status: ('A' for Active; 'I' for Inactive)
REMARK    1  A    between atoms: C_1  and  C_2
REMARK    2  A    between atoms: C_2  and  N_67
REMARK    3  A    between atoms: C_3  and  C_4
REMARK    4  A    between atoms: C_3  and  N_67
REMARK    5  A    between atoms: C_5  and  C_6
REMARK    6  A    between atoms: C_5  and  N_67
REMARK    7  A    between atoms: C_6  and  N_7
REMARK    8  A    between atoms: C_11  and  O_18
REMARK    9  A    between atoms: C_14  and  C_17
REMARK   10  A    between atoms: O_18  and  C_19
REMARK   11  A    between atoms: C_20  and  C_22
REMARK   12  A    between atoms: C_22  and  C_23
REMARK   13  A    between atoms: C_23  and  S_24
REMARK   14  A    between atoms: S_24  and  C_27
REMARK   15  A    between atoms: C_30  and  C_33
REMARK                            x       y       z     vdW  Elec       q    Type
REMARK                         _______ _______ _______ _____ _____    ______ ____
ROOT
ATOM      1  N   UNL     1       2.718   4.305   0.154  0.00  0.00    -0.252 N 
ATOM      2  C   UNL     1       1.725   3.347   0.279  0.00  0.00    +0.168 A 
ATOM      3  N   UNL     1       1.843   2.041   0.334  0.00  0.00    -0.221 NA
ATOM      4  C   UNL     1       0.777   1.220   0.459  0.00  0.00    +0.122 A 
ATOM      5  C   UNL     1       0.767  -0.197   0.528  0.00  0.00    +0.147 A 
ATOM      6  C   UNL     1      -0.418  -0.883   0.655  0.00  0.00    +0.048 A 
ATOM      7  C   UNL     1      -1.635  -0.220   0.718  0.00  0.00    +0.008 A 
ATOM      8  C   UNL     1      -1.659   1.160   0.653  0.00  0.00    -0.034 A 
ATOM      9  C   UNL     1      -0.481   1.856   0.527  0.00  0.00    +0.047 A 
ATOM     10  S   UNL     1      -0.043   3.574   0.408  0.00  0.00    -0.051 S 
ATOM     11  C   UNL     1      -2.971   1.899   0.721  0.00  0.00    +0.045 C 
ATOM     12  C   UNL     1       2.392   5.612   0.115  0.00  0.00    +0.223 C 
ATOM     13  O   UNL     1       1.230   5.950   0.191  0.00  0.00    -0.275 OA
ENDROOT
BRANCH   5  14
ATOM     14  O   UNL     1       1.939  -0.882   0.469  0.00  0.00    -0.493 OA
ATOM     15  C   UNL     1       1.862  -2.307   0.545  0.00  0.00    +0.277 C 
ENDBRANCH   5  14
BRANCH   1  16
ATOM     16  C   UNL     1       4.122   3.898   0.063  0.00  0.00    +0.097 C 
BRANCH  16  17
ATOM     17  C   UNL     1       4.498   3.685  -1.405  0.00  0.00    -0.059 C 
BRANCH  17  18
ATOM     18  N   UNL     1       5.921   3.295  -1.481  0.00  0.00    +0.380 N 
ATOM     19  H   UNL     1       6.482   3.975  -0.954  0.00  0.00    -0.082 HD
BRANCH  18  21
ATOM     20  C   UNL     1       5.272   0.915  -1.634  0.00  0.00    -0.017 C 
ATOM     21  C   UNL     1       6.111   1.955  -0.888  0.00  0.00    -0.082 C 
ENDBRANCH  18  21
BRANCH  18  22
ATOM     22  C   UNL     1       6.370   3.292  -2.890  0.00  0.00    -0.082 C 
ATOM     23  C   UNL     1       7.899   3.250  -2.919  0.00  0.00    -0.017 C 
ENDBRANCH  18  22
ENDBRANCH  17  18
ENDBRANCH  16  17
ENDBRANCH   1  16
BRANCH  12  24
ATOM     24  C   UNL     1       3.472   6.655  -0.021  0.00  0.00    +0.119 C 
BRANCH  24  25
ATOM     25  C   UNL     1       2.838   8.047  -0.039  0.00  0.00    +0.181 C 
BRANCH  25  26
ATOM     26  S   UNL     1       4.137   9.302  -0.203  0.00  0.00    -0.003 S 
ATOM     27  O   UNL     1       4.935   9.336   0.972  0.00  0.00    -0.169 OA
ATOM     28  O   UNL     1       4.741   9.216  -1.487  0.00  0.00    -0.169 OA
BRANCH  26  29
ATOM     29  C   UNL     1       3.282  10.842  -0.211  0.00  0.00    +0.088 A 
ATOM     30  C   UNL     1       2.857  11.390  -1.407  0.00  0.00    +0.027 A 
ATOM     31  C   UNL     1       2.182  12.596  -1.413  0.00  0.00    +0.005 A 
ATOM     32  C   UNL     1       1.940  13.259  -0.224  0.00  0.00    -0.050 A 
ATOM     33  C   UNL     1       2.369  12.713   0.971  0.00  0.00    +0.005 A 
ATOM     34  C   UNL     1       3.040  11.505   0.977  0.00  0.00    +0.027 A 
ATOM     35  C   UNL     1       1.208  14.576  -0.231  0.00  0.00    +0.044 C 
ENDBRANCH  26  29
ENDBRANCH  25  26
ENDBRANCH  24  25
ENDBRANCH  12  24
TORSDOF 10
