REMARK  Name = ZINC62062300
REMARK  9 active torsions:
REMARK  status: ('A' for Active; 'I' for Inactive)
REMARK    1  A    between atoms: C_1  and  C_2
REMARK    2  A    between atoms: C_2  and  N_3
REMARK    3  A    between atoms: N_3  and  C_4
REMARK    4  A    between atoms: C_4  and  C_5
REMARK    5  A    between atoms: C_9  and  C_12
REMARK    6  A    between atoms: C_12  and  N_13
REMARK    7  A    between atoms: C_14  and  C_16
REMARK    8  A    between atoms: N_18  and  C_19
REMARK    9  A    between atoms: C_23  and  C_25
REMARK                            x       y       z     vdW  Elec       q    Type
REMARK                         _______ _______ _______ _____ _____    ______ ____
ROOT
ATOM      1  N   UNL     1      -2.170  -0.239  -6.769  0.00  0.00    -0.303 N 
ATOM      2  C   UNL     1      -2.771  -0.247  -7.976  0.00  0.00    +0.300 C 
ATOM      3  O   UNL     1      -3.288  -1.264  -8.389  0.00  0.00    -0.265 OA
ATOM      4  H   UNL     1      -1.757   0.574  -6.439  0.00  0.00    +0.149 HD
ENDROOT
BRANCH   2   5
ATOM      5  C   UNL     1      -2.802   0.996  -8.803  0.00  0.00    +0.303 C 
ATOM      6  O   UNL     1      -2.285   2.014  -8.389  0.00  0.00    -0.265 OA
ATOM      7  N   UNL     1      -3.403   0.989 -10.009  0.00  0.00    -0.278 N 
ATOM      8  H   UNL     1      -3.757   0.161 -10.369  0.00  0.00    +0.155 HD
BRANCH   7   9
ATOM      9  C   UNL     1      -3.517   2.175 -10.741  0.00  0.00    +0.035 A 
ATOM     10  C   UNL     1      -2.499   3.122 -10.692  0.00  0.00    +0.026 A 
ATOM     11  C   UNL     1      -2.605   4.295 -11.412  0.00  0.00    +0.041 A 
ATOM     12  C   UNL     1      -3.725   4.537 -12.188  0.00  0.00    +0.136 A 
ATOM     13  C   UNL     1      -4.752   3.590 -12.244  0.00  0.00    +0.073 A 
ATOM     14  C   UNL     1      -4.640   2.403 -11.520  0.00  0.00    +0.039 A 
ATOM     15  F   UNL     1      -3.825   5.687 -12.891  0.00  0.00    -0.205 F 
BRANCH  13  16
ATOM     16  C   UNL     1      -5.949   3.844 -13.071  0.00  0.00    +0.244 C 
ATOM     17  O   UNL     1      -6.043   4.877 -13.705  0.00  0.00    -0.270 OA
ATOM     18  N   UNL     1      -6.938   2.929 -13.124  0.00  0.00    -0.325 N 
ATOM     19  H   UNL     1      -6.864   2.105 -12.618  0.00  0.00    +0.145 HD
ATOM     20  H   UNL     1      -7.724   3.096 -13.667  0.00  0.00    +0.145 HD
ENDBRANCH  13  16
ENDBRANCH   7   9
ENDBRANCH   2   5
BRANCH   1  21
ATOM     21  C   UNL     1      -2.140  -1.458  -5.958  0.00  0.00    +0.141 C 
BRANCH  21  26
ATOM     22  N   UNL     1       0.686  -0.476  -1.202  0.00  0.00    -0.317 N 
ATOM     23  C   UNL     1      -0.034  -0.712  -2.368  0.00  0.00    +0.099 A 
ATOM     24  C   UNL     1      -1.409  -0.501  -2.384  0.00  0.00    +0.042 A 
ATOM     25  C   UNL     1      -2.112  -0.740  -3.550  0.00  0.00    +0.010 A 
ATOM     26  C   UNL     1      -1.415  -1.185  -4.666  0.00  0.00    -0.014 A 
ATOM     27  C   UNL     1      -0.050  -1.373  -4.579  0.00  0.00    +0.089 A 
ATOM     28  N   UNL     1       0.596  -1.132  -3.454  0.00  0.00    -0.349 N 
ATOM     29  H   UNL     1       1.556  -1.269  -3.421  0.00  0.00    +0.167 HD
BRANCH  22  31
ATOM     30  C   UNL     1      -0.036   1.518   0.017  0.00  0.00    +0.024 C 
ATOM     31  C   UNL     1      -0.004  -0.012   0.004  0.00  0.00    +0.103 C 
ENDBRANCH  22  31
BRANCH  22  32
ATOM     32  C   UNL     1       2.135  -0.691  -1.180  0.00  0.00    +0.103 C 
ATOM     33  C   UNL     1       2.430  -2.134  -0.765  0.00  0.00    +0.024 C 
ENDBRANCH  22  32
ENDBRANCH  21  26
ENDBRANCH   1  21
TORSDOF 7
