REMARK  Name = ZINC09405744
REMARK  9 active torsions:
REMARK  status: ('A' for Active; 'I' for Inactive)
REMARK    1  A    between atoms: C_1  and  C_2
REMARK    2  A    between atoms: C_15  and  C_16
REMARK    3  A    between atoms: N_18  and  C_19
REMARK    4  A    between atoms: C_19  and  C_20
REMARK    5  A    between atoms: C_20  and  C_21
REMARK    6  A    between atoms: C_21  and  N_65
REMARK    7  A    between atoms: C_22  and  C_23
REMARK    8  A    between atoms: C_22  and  N_65
REMARK    9  A    between atoms: C_28  and  N_65
REMARK                            x       y       z     vdW  Elec       q    Type
REMARK                         _______ _______ _______ _____ _____    ______ ____
ROOT
ATOM      1  C   UNL     1      -0.205  -1.165   0.075  0.00  0.00    +0.251 C 
ATOM      2  O   UNL     1      -1.258  -0.571   0.214  0.00  0.00    -0.270 OA
ATOM      3  N   UNL     1      -0.198  -2.510  -0.020  0.00  0.00    -0.311 N 
ATOM      4  H   UNL     1       0.641  -2.984  -0.130  0.00  0.00    +0.149 HD
ENDROOT
BRANCH   1  19
ATOM      5  C   UNL     1       0.074   1.855   0.250  0.00  0.00    +0.046 C 
ATOM      6  C   UNL     1       1.252   0.929   0.089  0.00  0.00    -0.017 A 
ATOM      7  C   UNL     1       2.546   1.448   0.011  0.00  0.00    +0.076 A 
ATOM      8  C   UNL     1       3.580   0.500  -0.164  0.00  0.00    +0.116 A 
ATOM      9  N   UNL     1       4.844   0.872  -0.275  0.00  0.00    -0.226 NA
ATOM     10  C   UNL     1       5.225   2.128  -0.192  0.00  0.00    +0.114 A 
ATOM     11  N   UNL     1       4.332   3.115   0.052  0.00  0.00    -0.296 N 
ATOM     12  C   UNL     1       3.002   2.851   0.089  0.00  0.00    +0.263 A 
ATOM     13  O   UNL     1       2.195   3.758   0.185  0.00  0.00    -0.267 OA
ATOM     14  C   UNL     1       4.730   4.500   0.318  0.00  0.00    +0.126 C 
ATOM     15  C   UNL     1       6.100   4.801  -0.284  0.00  0.00    +0.022 C 
ATOM     16  C   UNL     1       7.086   3.739   0.221  0.00  0.00    +0.009 C 
ATOM     17  C   UNL     1       6.695   2.401  -0.405  0.00  0.00    +0.074 C 
ATOM     18  S   UNL     1       2.714  -1.048  -0.186  0.00  0.00    -0.064 S 
ATOM     19  C   UNL     1       1.055  -0.419   0.012  0.00  0.00    +0.079 A 
ENDBRANCH   1  19
BRANCH   3  20
ATOM     20  C   UNL     1      -1.457  -3.255   0.043  0.00  0.00    +0.102 C 
BRANCH  20  21
ATOM     21  C   UNL     1      -1.171  -4.753  -0.088  0.00  0.00    +0.000 C 
BRANCH  21  22
ATOM     22  C   UNL     1      -2.486  -5.531  -0.022  0.00  0.00    -0.076 C 
BRANCH  22  23
ATOM     23  N   UNL     1      -2.189  -6.975  -0.125  0.00  0.00    +0.386 N 
ATOM     24  H   UNL     1      -1.533  -7.126  -0.900  0.00  0.00    -0.081 HD
BRANCH  23  25
ATOM     25  C   UNL     1      -1.569  -7.454   1.128  0.00  0.00    -0.068 C 
ATOM     26  C   UNL     1      -2.245  -6.816   2.359  0.00  0.00    -0.015 C 
ATOM     27  C   UNL     1      -1.079  -6.570   3.349  0.00  0.00    -0.002 C 
ATOM     28  C   UNL     1       0.076  -6.133   2.413  0.00  0.00    -0.002 C 
ATOM     29  C   UNL     1      -0.093  -7.020   1.163  0.00  0.00    -0.015 C 
ENDBRANCH  23  25
BRANCH  23  30
ATOM     30  C   UNL     1      -3.432  -7.729  -0.394  0.00  0.00    -0.003 C 
BRANCH  30  31
ATOM     31  C   UNL     1      -3.069  -9.136  -0.793  0.00  0.00    +0.089 A 
ATOM     32  C   UNL     1      -3.008 -10.197   0.032  0.00  0.00    +0.042 A 
ATOM     33  C   UNL     1      -2.635 -11.309  -0.758  0.00  0.00    +0.041 A 
ATOM     34  C   UNL     1      -2.482 -10.859  -2.016  0.00  0.00    +0.195 A 
ATOM     35  O   UNL     1      -2.746  -9.543  -2.032  0.00  0.00    -0.470 OA
ENDBRANCH  30  31
ENDBRANCH  23  30
ENDBRANCH  22  23
ENDBRANCH  21  22
ENDBRANCH  20  21
ENDBRANCH   3  20
TORSDOF 8
