REMARK  Name = ZINC63808047
REMARK  5 active torsions:
REMARK  status: ('A' for Active; 'I' for Inactive)
REMARK    1  A    between atoms: C_1  and  C_2
REMARK    2  A    between atoms: C_2  and  C_3
REMARK    3  A    between atoms: C_3  and  C_4
REMARK    4  A    between atoms: C_6  and  C_11
REMARK    5  A    between atoms: C_11  and  N_13
REMARK                            x       y       z     vdW  Elec       q    Type
REMARK                         _______ _______ _______ _____ _____    ______ ____
ROOT
ATOM      1  C   UNL     1       2.994  -2.921  -1.963  0.00  0.00    +0.254 C 
ATOM      2  O   UNL     1       3.122  -3.459  -0.879  0.00  0.00    -0.272 OA
ENDROOT
BRANCH   1   3
ATOM      3  N   UNL     1       4.060  -2.699  -2.724  0.00  0.00    -0.156 NA
ATOM      4  C   UNL     1       5.268  -3.065  -2.302  0.00  0.00    +0.164 A 
ATOM      5  N   UNL     1       6.455  -2.912  -2.941  0.00  0.00    -0.335 N 
ATOM      6  H   UNL     1       6.486  -2.491  -3.815  0.00  0.00    +0.168 HD
ATOM      7  C   UNL     1       7.620  -3.356  -2.344  0.00  0.00    +0.055 A 
ATOM      8  C   UNL     1       8.937  -3.299  -2.821  0.00  0.00    +0.027 A 
ATOM      9  C   UNL     1       9.975  -3.801  -2.072  0.00  0.00    +0.002 A 
ATOM     10  C   UNL     1       9.753  -4.375  -0.831  0.00  0.00    +0.001 A 
ATOM     11  C   UNL     1       8.462  -4.443  -0.338  0.00  0.00    +0.017 A 
ATOM     12  C   UNL     1       7.423  -3.942  -1.085  0.00  0.00    +0.039 A 
ATOM     13  S   UNL     1       5.669  -3.815  -0.852  0.00  0.00    -0.052 S 
ENDBRANCH   1   3
BRANCH   1  15
ATOM     14  C   UNL     1       0.739  -2.027  -1.265  0.00  0.00    +0.093 C 
ATOM     15  C   UNL     1       1.626  -2.507  -2.441  0.00  0.00    +0.169 C 
ATOM     16  S   UNL     1       0.640  -3.964  -3.005  0.00  0.00    -0.051 S 
ATOM     17  N   UNL     1      -0.970  -3.334  -2.514  0.00  0.00    -0.199 NA
ATOM     18  N   UNL     1      -0.633  -2.515  -1.350  0.00  0.00    -0.242 NA
ATOM     19  H   UNL     1      -1.376  -2.771  -3.246  0.00  0.00    +0.154 HD
ATOM     20  H   UNL     1      -1.293  -1.759  -1.238  0.00  0.00    +0.142 HD
BRANCH  14  21
ATOM     21  C   UNL     1       0.718  -0.497  -1.257  0.00  0.00    +0.021 C 
BRANCH  21  23
ATOM     22  C   UNL     1      -0.019   1.526   0.010  0.00  0.00    +0.004 C 
ATOM     23  C   UNL     1       0.002  -0.004   0.002  0.00  0.00    -0.002 C 
ENDBRANCH  21  23
ENDBRANCH  14  21
ENDBRANCH   1  15
TORSDOF 4
