REMARK  Name = ZINC65227630
REMARK  8 active torsions:
REMARK  status: ('A' for Active; 'I' for Inactive)
REMARK    1  A    between atoms: C_1  and  C_2
REMARK    2  A    between atoms: C_2  and  C_3
REMARK    3  A    between atoms: C_6  and  C_9
REMARK    4  A    between atoms: C_9  and  C_11
REMARK    5  A    between atoms: C_9  and  N_12
REMARK    6  A    between atoms: C_13  and  C_15
REMARK    7  A    between atoms: C_22  and  C_27
REMARK    8  A    between atoms: C_29  and  C_32
REMARK                            x       y       z     vdW  Elec       q    Type
REMARK                         _______ _______ _______ _____ _____    ______ ____
ROOT
ATOM      1  C   UNL     1       1.714  -4.889   6.821  0.00  0.00    +0.078 C 
ATOM      2  C   UNL     1       0.726  -4.209   7.771  0.00  0.00    +0.031 C 
ATOM      3  C   UNL     1      -0.146  -5.275   8.443  0.00  0.00    +0.107 C 
ATOM      4  N   UNL     1       0.729  -6.263   9.088  0.00  0.00    -0.316 N 
ATOM      5  C   UNL     1       1.775  -6.912   8.286  0.00  0.00    +0.107 C 
ATOM      6  C   UNL     1       2.625  -5.828   7.615  0.00  0.00    +0.031 C 
ATOM      7  C   UNL     1       0.571  -6.578  10.430  0.00  0.00    +0.110 A 
ATOM      8  C   UNL     1      -0.349  -7.566  10.810  0.00  0.00    +0.060 A 
ATOM      9  C   UNL     1      -0.493  -7.867  12.165  0.00  0.00    +0.016 A 
ATOM     10  C   UNL     1       0.284  -7.173  13.079  0.00  0.00    +0.018 A 
ATOM     11  C   UNL     1       1.170  -6.213  12.629  0.00  0.00    +0.084 A 
ATOM     12  N   UNL     1       1.293  -5.949  11.342  0.00  0.00    -0.349 N 
ATOM     13  H   UNL     1       1.927  -5.272  11.058  0.00  0.00    +0.167 HD
ENDROOT
BRANCH   8  14
ATOM     14  C   UNL     1      -1.157  -8.277   9.790  0.00  0.00    +0.205 A 
ATOM     15  N   UNL     1      -2.143  -9.156  10.043  0.00  0.00    -0.191 NA
ATOM     16  C   UNL     1      -2.646  -9.596   8.925  0.00  0.00    +0.225 A 
ATOM     17  O   UNL     1      -1.998  -9.012   7.909  0.00  0.00    -0.338 OA
ATOM     18  N   UNL     1      -1.032  -8.150   8.491  0.00  0.00    -0.056 NA
ATOM     19  C   UNL     1      -3.768 -10.594   8.796  0.00  0.00    +0.112 C 
ENDBRANCH   8  14
BRANCH   1  21
ATOM     20  N   UNL     1       1.958  -2.901   5.370  0.00  0.00    -0.309 N 
ATOM     21  C   UNL     1       2.550  -3.842   6.132  0.00  0.00    +0.217 C 
ATOM     22  O   UNL     1       3.756  -3.845   6.264  0.00  0.00    -0.275 OA
ATOM     23  H   UNL     1       0.994  -2.898   5.265  0.00  0.00    +0.149 HD
BRANCH  20  24
ATOM     24  C   UNL     1       2.771  -1.882   4.701  0.00  0.00    +0.100 C 
ATOM     25  C   UNL     1       3.036  -0.725   5.666  0.00  0.00    +0.033 C 
BRANCH  24  29
ATOM     26  C   UNL     1       0.687  -0.428   1.268  0.00  0.00    -0.048 A 
ATOM     27  C   UNL     1       2.051  -0.643   1.208  0.00  0.00    +0.004 A 
ATOM     28  C   UNL     1       2.726  -1.113   2.319  0.00  0.00    +0.006 A 
ATOM     29  C   UNL     1       2.036  -1.369   3.490  0.00  0.00    -0.027 A 
ATOM     30  C   UNL     1       0.672  -1.153   3.550  0.00  0.00    +0.006 A 
ATOM     31  C   UNL     1      -0.002  -0.678   2.440  0.00  0.00    +0.004 A 
BRANCH  26  33
ATOM     32  C   UNL     1      -0.060   1.615   0.076  0.00  0.00    +0.009 C 
ATOM     33  C   UNL     1      -0.049   0.085   0.056  0.00  0.00    +0.032 C 
ENDBRANCH  26  33
ENDBRANCH  24  29
ENDBRANCH  20  24
ENDBRANCH   1  21
TORSDOF 5
