REMARK  Name = ZINC41004646
REMARK  11 active torsions:
REMARK  status: ('A' for Active; 'I' for Inactive)
REMARK    1  A    between atoms: C_1  and  C_2
REMARK    2  A    between atoms: C_2  and  C_3
REMARK    3  A    between atoms: C_3  and  C_4
REMARK    4  A    between atoms: C_4  and  O_5
REMARK    5  A    between atoms: O_5  and  C_6
REMARK    6  A    between atoms: C_11  and  C_12
REMARK    7  A    between atoms: C_17  and  C_21
REMARK    8  A    between atoms: C_17  and  C_22
REMARK    9  A    between atoms: C_27  and  S_29
REMARK   10  A    between atoms: S_29  and  C_30
REMARK   11  A    between atoms: C_30  and  C_31
REMARK                            x       y       z     vdW  Elec       q    Type
REMARK                         _______ _______ _______ _____ _____    ______ ____
ROOT
ATOM      1  C   UNL     1       2.726  -3.420  -4.759  0.00  0.00    +0.179 C 
ATOM      2  C   UNL     1       4.216  -3.656  -4.874  0.00  0.00    +0.041 C 
ATOM      3  C   UNL     1       4.761  -4.300  -5.927  0.00  0.00    +0.020 C 
ATOM      4  C   UNL     1       6.251  -4.536  -6.006  0.00  0.00    +0.058 C 
ATOM      5  C   UNL     1       6.991  -3.395  -5.305  0.00  0.00    -0.023 C 
ATOM      6  C   UNL     1       6.517  -3.335  -3.849  0.00  0.00    +0.086 C 
ATOM      7  C   UNL     1       5.023  -3.171  -3.828  0.00  0.00    +0.164 C 
ATOM      8  O   UNL     1       4.500  -2.607  -2.887  0.00  0.00    -0.292 OA
ATOM      9  C   UNL     1       6.676  -2.071  -6.005  0.00  0.00    +0.011 C 
ATOM     10  C   UNL     1       8.498  -3.655  -5.347  0.00  0.00    +0.011 C 
ATOM     11  N   UNL     1       3.995  -4.761  -6.970  0.00  0.00    -0.287 N 
ATOM     12  C   UNL     1       2.691  -4.305  -7.072  0.00  0.00    +0.219 A 
ATOM     13  N   UNL     1       2.083  -3.670  -6.043  0.00  0.00    -0.220 N 
ATOM     14  N   UNL     1       0.800  -3.345  -6.480  0.00  0.00    -0.141 NA
ATOM     15  C   UNL     1       0.696  -3.792  -7.713  0.00  0.00    +0.210 A 
ATOM     16  N   UNL     1       1.846  -4.373  -8.065  0.00  0.00    -0.187 NA
ATOM     17  H   UNL     1       4.356  -5.389  -7.616  0.00  0.00    +0.155 HD
ENDROOT
BRANCH   1  23
ATOM     18  C   UNL     1       1.514  -3.833  -2.603  0.00  0.00    +0.126 A 
ATOM     19  C   UNL     1       0.980  -4.692  -1.653  0.00  0.00    +0.047 A 
ATOM     20  C   UNL     1       1.088  -6.059  -1.820  0.00  0.00    +0.019 A 
ATOM     21  C   UNL     1       1.729  -6.572  -2.934  0.00  0.00    +0.018 A 
ATOM     22  C   UNL     1       2.263  -5.718  -3.882  0.00  0.00    +0.025 A 
ATOM     23  C   UNL     1       2.151  -4.350  -3.722  0.00  0.00    +0.024 A 
ATOM     24 BR   UNL     1       1.876  -8.444  -3.160  0.00  0.00    -0.050 Br
BRANCH  18  25
ATOM     25  O   UNL     1       1.408  -2.488  -2.441  0.00  0.00    -0.492 OA
BRANCH  25  26
ATOM     26  C   UNL     1       0.739  -2.027  -1.265  0.00  0.00    +0.229 C 
BRANCH  26  27
ATOM     27  C   UNL     1       0.718  -0.497  -1.257  0.00  0.00    +0.041 C 
BRANCH  27  29
ATOM     28  C   UNL     1      -0.019   1.526   0.010  0.00  0.00    +0.004 C 
ATOM     29  C   UNL     1       0.002  -0.004   0.002  0.00  0.00    -0.000 C 
ENDBRANCH  27  29
ENDBRANCH  26  27
ENDBRANCH  25  26
ENDBRANCH  18  25
ENDBRANCH   1  23
BRANCH  15  30
ATOM     30  S   UNL     1      -0.730  -3.647  -8.738  0.00  0.00    -0.085 S 
BRANCH  30  31
ATOM     31  C   UNL     1      -0.240  -4.448 -10.289  0.00  0.00    +0.074 C 
ATOM     32  C   UNL     1      -1.403  -4.392 -11.282  0.00  0.00    +0.016 C 
ENDBRANCH  30  31
ENDBRANCH  15  30
TORSDOF 7
