REMARK  Name = ZINC39529834
REMARK  5 active torsions:
REMARK  status: ('A' for Active; 'I' for Inactive)
REMARK    1  A    between atoms: C_4  and  C_7
REMARK    2  A    between atoms: C_9  and  S_21
REMARK    3  A    between atoms: C_12  and  N_13
REMARK    4  A    between atoms: S_21  and  O_24
REMARK    5  A    between atoms: O_24  and  C_25
REMARK                            x       y       z     vdW  Elec       q    Type
REMARK                         _______ _______ _______ _____ _____    ______ ____
ROOT
ATOM      1  C   UNL     1       3.712  -0.664  -0.018  0.00  0.00    +0.005 A 
ATOM      2  C   UNL     1       4.652  -0.392  -1.009  0.00  0.00    +0.041 A 
ATOM      3  C   UNL     1       5.843  -1.089  -1.040  0.00  0.00    +0.129 A 
ATOM      4  C   UNL     1       6.108  -2.059  -0.089  0.00  0.00    +0.032 A 
ATOM      5  C   UNL     1       5.184  -2.339   0.899  0.00  0.00    +0.026 A 
ATOM      6  C   UNL     1       3.985  -1.642   0.946  0.00  0.00    +0.038 A 
ENDROOT
BRANCH   6   7
ATOM      7  N   UNL     1       3.053  -1.919   1.946  0.00  0.00    -0.326 N 
ATOM      8  C   UNL     1       2.987  -1.099   3.165  0.00  0.00    +0.120 C 
ATOM      9  C   UNL     1       3.025  -2.030   4.381  0.00  0.00    +0.101 C 
ATOM     10  N   UNL     1       1.966  -3.039   4.254  0.00  0.00    -0.302 NA
ATOM     11  C   UNL     1       2.182  -3.894   3.079  0.00  0.00    +0.135 C 
ATOM     12  C   UNL     1       2.106  -3.035   1.807  0.00  0.00    +0.134 C 
ATOM     13  I   UNL     1       0.656  -5.423   3.008  0.00  0.00    -0.063 I 
ATOM     14  H   UNL     1       1.891  -3.593   5.095  0.00  0.00    +0.123 HD
ENDBRANCH   6   7
BRANCH   1  18
ATOM     15  C   UNL     1       0.040   1.475   0.089  0.00  0.00    +0.000 A 
ATOM     16  C   UNL     1       1.239   2.163   0.120  0.00  0.00    +0.001 A 
ATOM     17  C   UNL     1       2.434   1.474   0.086  0.00  0.00    +0.008 A 
ATOM     18  C   UNL     1       2.431   0.082   0.020  0.00  0.00    -0.016 A 
ATOM     19  C   UNL     1       1.220  -0.606  -0.012  0.00  0.00    +0.008 A 
ATOM     20  C   UNL     1       0.030   0.094   0.023  0.00  0.00    +0.001 A 
ENDBRANCH   1  18
BRANCH   3  21
ATOM     21  S   UNL     1       7.030  -0.742  -2.295  0.00  0.00    +0.151 S 
ATOM     22  O   UNL     1       7.830  -1.909  -2.430  0.00  0.00    -0.131 OA
ATOM     23  O   UNL     1       6.315  -0.177  -3.385  0.00  0.00    -0.131 OA
BRANCH  21  24
ATOM     24  O   UNL     1       7.944   0.352  -1.760  0.00  0.00    -0.342 OA
BRANCH  24  25
ATOM     25  C   UNL     1       8.838  -0.080  -0.832  0.00  0.00    +0.157 A 
ATOM     26  C   UNL     1       8.501  -0.070   0.514  0.00  0.00    +0.048 A 
ATOM     27  C   UNL     1       9.411  -0.509   1.456  0.00  0.00    +0.004 A 
ATOM     28  C   UNL     1      10.657  -0.958   1.058  0.00  0.00    +0.000 A 
ATOM     29  C   UNL     1      10.995  -0.968  -0.283  0.00  0.00    +0.004 A 
ATOM     30  C   UNL     1      10.086  -0.535  -1.229  0.00  0.00    +0.048 A 
ENDBRANCH  24  25
ENDBRANCH  21  24
ENDBRANCH   3  21
TORSDOF 5
