REMARK  Name = ZINC22010122
REMARK  9 active torsions:
REMARK  status: ('A' for Active; 'I' for Inactive)
REMARK    1  A    between atoms: C_1  and  O_2
REMARK    2  A    between atoms: O_2  and  C_3
REMARK    3  A    between atoms: C_3  and  C_4
REMARK    4  A    between atoms: CA_5  and  C_28
REMARK    5  A    between atoms: CA_9  and  N_13
REMARK    6  A    between atoms: C_14  and  C_16
REMARK    7  A    between atoms: C_16  and  C_20
REMARK    8  A    between atoms: N_17  and  O_18
REMARK    9  A    between atoms: O_18  and  C_19
REMARK                            x       y       z     vdW  Elec       q    Type
REMARK                         _______ _______ _______ _____ _____    ______ ____
ROOT
ATOM      1  N   UNL     1      -3.622  -1.242  -0.073  0.00  0.00    -0.296 N 
ATOM      2  C   UNL     1      -2.620  -0.340  -0.082  0.00  0.00    +0.267 C 
ATOM      3  O   UNL     1      -2.866   0.840  -0.234  0.00  0.00    -0.268 OA
ATOM      4  H   UNL     1      -3.394  -2.317  -0.030  0.00  0.00    +0.150 HD
ENDROOT
BRANCH   1   9
ATOM      5  C   UNL     1      -7.001  -4.286   0.680  0.00  0.00    -0.006 C 
ATOM      6  CA  UNL     1      -6.973  -3.129   1.321  0.00  0.00    +0.129 C 
ATOM      7  N   UNL     1      -6.317  -2.015   0.763  0.00  0.00    -0.249 N 
ATOM      8  C   UNL     1      -5.966  -1.832  -0.685  0.00  0.00    +0.169 C 
ATOM      9  CA  UNL     1      -5.014  -0.790  -0.121  0.00  0.00    +0.191 C 
ATOM     10  C   UNL     1      -5.724  -0.897   1.210  0.00  0.00    +0.244 C 
ATOM     11  O   UNL     1      -5.748  -0.252   2.237  0.00  0.00    -0.273 OA
ATOM     12  S   UNL     1      -5.193  -3.404  -1.197  0.00  0.00    -0.131 S 
ATOM     13  C   UNL     1      -6.444  -4.615  -0.667  0.00  0.00    +0.106 C 
BRANCH   6  14
ATOM     14  C   UNL     1      -7.635  -3.006   2.632  0.00  0.00    +0.401 C 
ATOM     15  O   UNL     1      -7.694  -1.925   3.184  0.00  0.00    -0.239 OA
ATOM     16  OXT UNL     1      -8.176  -4.092   3.219  0.00  0.00    -0.239 OA
ENDBRANCH   6  14
BRANCH   5  17
ATOM     17  C   UNL     1      -7.683  -5.419   1.402  0.00  0.00    +0.193 C 
BRANCH  17  19
ATOM     18  C   UNL     1      -8.306  -7.721   1.158  0.00  0.00    +0.194 C 
ATOM     19  O   UNL     1      -7.592  -6.609   0.615  0.00  0.00    -0.379 OA
ENDBRANCH  17  19
ENDBRANCH   5  17
ENDBRANCH   1   9
BRANCH   2  20
ATOM     20  C   UNL     1      -1.218  -0.788   0.096  0.00  0.00    +0.179 C 
ATOM     21  N   UNL     1      -0.259   0.092   0.194  0.00  0.00    -0.079 NA
BRANCH  20  22
ATOM     22  C   UNL     1      -0.907  -2.225   0.160  0.00  0.00    +0.067 A 
ATOM     23  C   UNL     1       0.311  -2.858   0.209  0.00  0.00    +0.131 A 
ATOM     24  N   UNL     1       0.325  -4.169   0.263  0.00  0.00    -0.233 NA
ATOM     25  C   UNL     1      -0.797  -4.870   0.270  0.00  0.00    +0.156 A 
ATOM     26  S   UNL     1      -2.011  -3.631   0.196  0.00  0.00    -0.051 S 
ATOM     27  N   UNL     1      -0.961  -6.241   0.322  0.00  0.00    -0.338 N 
ATOM     28  H   UNL     1      -1.972  -6.674   0.321  0.00  0.00    +0.144 HD
ATOM     29  H   UNL     1      -0.080  -6.899   0.366  0.00  0.00    +0.144 HD
ENDBRANCH  20  22
BRANCH  21  30
ATOM     30  O   UNL     1      -0.568   1.473   0.247  0.00  0.00    -0.396 OA
ATOM     31  C   UNL     1       0.577   2.321   0.354  0.00  0.00    +0.313 C 
ENDBRANCH  21  30
ENDBRANCH   2  20
TORSDOF 7
