REMARK  Name = ZINC05925798
REMARK  6 active torsions:
REMARK  status: ('A' for Active; 'I' for Inactive)
REMARK    1  A    between atoms: C_1  and  C_2
REMARK    2  A    between atoms: C_7  and  O_8
REMARK    3  A    between atoms: O_8  and  C_9
REMARK    4  A    between atoms: C_9  and  C_11
REMARK    5  A    between atoms: C_9  and  C_12
REMARK    6  A    between atoms: N_14  and  N_15
REMARK                            x       y       z     vdW  Elec       q    Type
REMARK                         _______ _______ _______ _____ _____    ______ ____
ROOT
ATOM      1  C   UNL     1       2.515  -2.660  -0.159  0.00  0.00    +0.257 C 
ATOM      2  C   UNL     1       3.066  -2.995   1.228  0.00  0.00    +0.062 C 
ENDROOT
BRANCH   1   3
ATOM      3  C   UNL     1       2.372  -3.928  -0.962  0.00  0.00    +0.273 C 
ATOM      4  O   UNL     1       1.284  -4.262  -1.379  0.00  0.00    -0.270 OA
ATOM      5  N   UNL     1       3.455  -4.690  -1.216  0.00  0.00    -0.204 N 
ATOM      6  H   UNL     1       4.325  -4.423  -0.882  0.00  0.00    +0.177 HD
BRANCH   5   7
ATOM      7  N   UNL     1       3.322  -5.868  -1.962  0.00  0.00    -0.189 NA
ATOM      8  C   UNL     1       4.329  -6.643  -2.119  0.00  0.00    +0.037 C 
ATOM      9  C   UNL     1       5.696  -6.253  -1.602  0.00  0.00    +0.052 C 
ATOM     10  C   UNL     1       6.242  -7.415  -0.758  0.00  0.00    +0.006 C 
ATOM     11  C   UNL     1       6.226  -8.698  -1.592  0.00  0.00    +0.001 C 
ATOM     12  C   UNL     1       4.786  -9.066  -1.949  0.00  0.00    +0.006 C 
ATOM     13  C   UNL     1       4.184  -7.969  -2.833  0.00  0.00    +0.052 C 
ENDBRANCH   5   7
ENDBRANCH   1   3
BRANCH   1  14
ATOM     14  O   UNL     1       1.237  -2.034  -0.027  0.00  0.00    -0.480 OA
BRANCH  14  21
ATOM     15  C   UNL     1      -1.274  -0.743   0.011  0.00  0.00    +0.047 C 
ATOM     16  C   UNL     1       0.023  -0.002   0.207  0.00  0.00    -0.007 A 
ATOM     17  C   UNL     1       0.014   1.363   0.416  0.00  0.00    +0.027 A 
ATOM     18  C   UNL     1       1.205   2.044   0.597  0.00  0.00    +0.041 A 
ATOM     19  C   UNL     1       2.407   1.359   0.569  0.00  0.00    +0.023 A 
ATOM     20  C   UNL     1       2.420  -0.007   0.361  0.00  0.00    +0.047 A 
ATOM     21  C   UNL     1       1.227  -0.691   0.179  0.00  0.00    +0.125 A 
ATOM     22 CL   UNL     1       1.192   3.760   0.859  0.00  0.00    -0.084 Cl
ENDBRANCH  14  21
ENDBRANCH   1  14
TORSDOF 4
