REMARK  Name = ZINC33042858
REMARK  5 active torsions:
REMARK  status: ('A' for Active; 'I' for Inactive)
REMARK    1  A    between atoms: C_1  and  C_2
REMARK    2  A    between atoms: C_2  and  C_3
REMARK    3  A    between atoms: N_23  and  C_24
REMARK    4  A    between atoms: C_28  and  C_31
REMARK    5  A    between atoms: C_29  and  C_30
REMARK                            x       y       z     vdW  Elec       q    Type
REMARK                         _______ _______ _______ _____ _____    ______ ____
ROOT
ATOM      1  C   UNL     1      -3.489   6.882   0.667  0.00  0.00    +0.125 C 
ATOM      2  C   UNL     1      -2.867   7.610  -0.487  0.00  0.00    +0.045 A 
ATOM      3  C   UNL     1      -3.019   8.885  -0.872  0.00  0.00    +0.025 A 
ATOM      4  C   UNL     1      -2.283   9.057  -2.065  0.00  0.00    +0.020 A 
ATOM      5  C   UNL     1      -1.696   7.873  -2.356  0.00  0.00    +0.092 A 
ATOM      6  N   UNL     1      -2.024   6.993  -1.382  0.00  0.00    -0.312 N 
ATOM      7  C   UNL     1      -1.643   5.675  -1.167  0.00  0.00    +0.090 A 
ATOM      8  C   UNL     1      -1.252   5.180   0.038  0.00  0.00    +0.005 A 
ATOM      9  C   UNL     1      -0.940   3.806   0.091  0.00  0.00    -0.030 A 
ATOM     10  C   UNL     1      -1.020   3.095  -1.064  0.00  0.00    -0.005 A 
ATOM     11  S   UNL     1      -1.557   4.290  -2.261  0.00  0.00    -0.075 S 
ATOM     12  C   UNL     1      -0.727   1.644  -1.266  0.00  0.00    +0.043 C 
ATOM     13  C   UNL     1       0.021   1.125  -0.029  0.00  0.00    +0.005 C 
ATOM     14  C   UNL     1      -0.708   1.609   1.228  0.00  0.00    +0.005 C 
ATOM     15  C   UNL     1      -0.526   3.119   1.390  0.00  0.00    +0.036 C 
ATOM     16  C   UNL     1      -1.168   6.093   1.242  0.00  0.00    +0.148 C 
ATOM     17  N   UNL     1      -2.491   6.544   1.710  0.00  0.00    -0.272 N 
ATOM     18  C   UNL     1      -2.779   6.644   3.023  0.00  0.00    +0.307 C 
ATOM     19  O   UNL     1      -3.880   7.020   3.376  0.00  0.00    -0.252 OA
ATOM     20  N   UNL     1      -1.847   6.328   3.943  0.00  0.00    -0.269 N 
ATOM     21  H   UNL     1      -0.884   5.901   3.627  0.00  0.00    +0.156 HD
ENDROOT
BRANCH  20  22
ATOM     22  C   UNL     1      -2.104   6.543   5.302  0.00  0.00    +0.038 A 
ATOM     23  C   UNL     1      -3.026   7.507   5.692  0.00  0.00    +0.023 A 
ATOM     24  C   UNL     1      -3.277   7.717   7.033  0.00  0.00    +0.002 A 
ATOM     25  C   UNL     1      -2.613   6.969   7.988  0.00  0.00    +0.004 A 
ATOM     26  C   UNL     1      -1.695   6.009   7.604  0.00  0.00    -0.046 A 
ATOM     27  C   UNL     1      -1.443   5.790   6.263  0.00  0.00    -0.026 A 
ATOM     28  C   UNL     1      -0.448   4.739   5.845  0.00  0.00    +0.046 C 
ATOM     29  C   UNL     1      -0.974   5.196   8.648  0.00  0.00    +0.044 C 
ENDBRANCH  20  22
BRANCH   1  31
ATOM     30  C   UNL     1      -4.876   4.902   1.299  0.00  0.00    +0.006 C 
ATOM     31  C   UNL     1      -4.131   5.591   0.154  0.00  0.00    +0.025 C 
ENDBRANCH   1  31
TORSDOF 2
