REMARK  Name = ZINC20999728
REMARK  5 active torsions:
REMARK  status: ('A' for Active; 'I' for Inactive)
REMARK    1  A    between atoms: C_7  and  C_12
REMARK    2  A    between atoms: C_10  and  O_11
REMARK    3  A    between atoms: C_12  and  N_13
REMARK    4  A    between atoms: C_17  and  N_20
REMARK    5  A    between atoms: N_23  and  C_26
REMARK                            x       y       z     vdW  Elec       q    Type
REMARK                         _______ _______ _______ _____ _____    ______ ____
ROOT
ATOM      1  N   UNL     1      -2.658  -2.619  -0.241  0.00  0.00    +0.383 N 
ATOM      2  C   UNL     1      -3.391  -2.322   0.996  0.00  0.00    -0.078 C 
ATOM      3  C   UNL     1      -3.518  -0.806   1.164  0.00  0.00    -0.017 C 
ATOM      4  C   UNL     1      -2.120  -0.184   1.215  0.00  0.00    +0.015 C 
ATOM      5  C   UNL     1      -1.361  -0.549  -0.064  0.00  0.00    +0.040 C 
ATOM      6  C   UNL     1      -1.296  -2.072  -0.196  0.00  0.00    -0.059 C 
ATOM      7  H   UNL     1      -3.189  -2.129  -1.071  0.00  0.00    -0.081 HD
ENDROOT
BRANCH   5   8
ATOM      8  N   UNL     1       0.002  -0.004   0.002  0.00  0.00    -0.298 NA
ATOM      9  C   UNL     1      -0.018   1.465   0.010  0.00  0.00    +0.103 C 
ATOM     10  C   UNL     1       1.419   1.992  -0.001  0.00  0.00    +0.120 C 
ATOM     11  N   UNL     1       2.138   1.472   1.171  0.00  0.00    -0.325 N 
ATOM     12  C   UNL     1       2.158   0.003   1.162  0.00  0.00    +0.120 C 
ATOM     13  C   UNL     1       0.721  -0.525   1.173  0.00  0.00    +0.103 C 
BRANCH  11  14
ATOM     14  C   UNL     1       3.435   1.990   1.234  0.00  0.00    +0.065 A 
ATOM     15  C   UNL     1       4.353   1.692   0.235  0.00  0.00    +0.026 A 
ATOM     16  C   UNL     1       5.633   2.209   0.298  0.00  0.00    +0.002 A 
ATOM     17  C   UNL     1       6.004   3.015   1.359  0.00  0.00    +0.003 A 
ATOM     18  C   UNL     1       5.095   3.311   2.358  0.00  0.00    +0.040 A 
ATOM     19  C   UNL     1       3.811   2.801   2.299  0.00  0.00    +0.144 A 
ATOM     20  F   UNL     1       2.923   3.090   3.276  0.00  0.00    -0.204 F 
ENDBRANCH  11  14
ENDBRANCH   5   8
BRANCH   1  21
ATOM     21  C   UNL     1      -2.637  -4.063  -0.507  0.00  0.00    -0.042 C 
BRANCH  21  28
ATOM     22  C   UNL     1      -4.471  -3.555  -4.311  0.00  0.00    +0.001 A 
ATOM     23  C   UNL     1      -5.767  -4.004  -4.555  0.00  0.00    +0.001 A 
ATOM     24  C   UNL     1      -6.490  -4.622  -3.580  0.00  0.00    +0.012 A 
ATOM     25  C   UNL     1      -5.923  -4.810  -2.309  0.00  0.00    +0.024 A 
ATOM     26  C   UNL     1      -4.607  -4.349  -2.059  0.00  0.00    -0.013 A 
ATOM     27  C   UNL     1      -3.889  -3.721  -3.092  0.00  0.00    +0.009 A 
ATOM     28  C   UNL     1      -4.038  -4.543  -0.789  0.00  0.00    -0.056 A 
ATOM     29  C   UNL     1      -4.758  -5.160   0.188  0.00  0.00    +0.006 A 
ATOM     30  C   UNL     1      -6.054  -5.611  -0.051  0.00  0.00    +0.046 A 
ATOM     31  C   UNL     1      -6.640  -5.445  -1.275  0.00  0.00    +0.125 A 
BRANCH  31  32
ATOM     32  O   UNL     1      -7.905  -5.889  -1.492  0.00  0.00    -0.506 OA
ATOM     33  H   UNL     1      -8.461  -6.385  -0.682  0.00  0.00    +0.292 HD
ENDBRANCH  31  32
ENDBRANCH  21  28
ENDBRANCH   1  21
TORSDOF 5
