REMARK  Name = ZINC28666128
REMARK  3 active torsions:
REMARK  status: ('A' for Active; 'I' for Inactive)
REMARK    1  A    between atoms: C_7  and  N_12
REMARK    2  A    between atoms: C_13  and  C_15
REMARK    3  A    between atoms: C_15  and  C_16
REMARK                            x       y       z     vdW  Elec       q    Type
REMARK                         _______ _______ _______ _____ _____    ______ ____
ROOT
ATOM      1  N   UNL     1       0.002  -0.004   0.002  0.00  0.00    -0.308 N 
ATOM      2  C   UNL     1      -0.016   1.344   0.009  0.00  0.00    +0.215 C 
ATOM      3  O   UNL     1       1.026   1.964   0.003  0.00  0.00    -0.276 OA
ATOM      4  H   UNL     1      -0.943  -0.567   0.008  0.00  0.00    +0.149 HD
ENDROOT
BRANCH   1  11
ATOM      5  C   UNL     1       2.082   0.159  -3.590  0.00  0.00    +0.001 A 
ATOM      6  C   UNL     1       2.642  -1.015  -4.060  0.00  0.00    +0.004 A 
ATOM      7  C   UNL     1       2.763  -2.104  -3.221  0.00  0.00    +0.046 A 
ATOM      8  C   UNL     1       2.323  -2.025  -1.903  0.00  0.00    +0.125 A 
ATOM      9  C   UNL     1       1.765  -0.848  -1.436  0.00  0.00    +0.014 A 
ATOM     10  C   UNL     1       1.646   0.241  -2.282  0.00  0.00    +0.009 A 
ATOM     11  C   UNL     1       1.281  -0.719  -0.014  0.00  0.00    +0.110 C 
ATOM     12  C   UNL     1       1.093  -2.111   0.595  0.00  0.00    +0.068 C 
ATOM     13  C   UNL     1       2.352  -2.938   0.302  0.00  0.00    +0.231 C 
ATOM     14  O   UNL     1       2.451  -3.121  -1.111  0.00  0.00    -0.492 OA
ENDBRANCH   1  11
BRANCH   2  15
ATOM     15  C   UNL     1      -1.331   2.079   0.020  0.00  0.00    +0.119 C 
BRANCH  15  16
ATOM     16  C   UNL     1      -1.072   3.587   0.027  0.00  0.00    +0.146 C 
ATOM     17  C   UNL     1      -2.381   4.325   0.135  0.00  0.00    +0.231 C 
ATOM     18  O   UNL     1      -2.729   4.725   1.226  0.00  0.00    -0.274 OA
ATOM     19  N   UNL     1      -3.173   4.560  -0.907  0.00  0.00    -0.284 N 
ATOM     20  C   UNL     1      -2.892   4.285  -2.242  0.00  0.00    +0.048 A 
ATOM     21  C   UNL     1      -3.936   4.253  -3.162  0.00  0.00    +0.044 A 
ATOM     22  C   UNL     1      -3.686   3.961  -4.489  0.00  0.00    +0.043 A 
ATOM     23  C   UNL     1      -2.397   3.699  -4.918  0.00  0.00    +0.021 A 
ATOM     24  C   UNL     1      -1.350   3.732  -4.016  0.00  0.00    +0.018 A 
ATOM     25  C   UNL     1      -1.596   4.025  -2.684  0.00  0.00    +0.030 A 
ATOM     26  S   UNL     1      -0.262   4.075  -1.527  0.00  0.00    -0.110 S 
ATOM     27 CL   UNL     1      -4.998   3.924  -5.625  0.00  0.00    -0.083 Cl
ATOM     28  H   UNL     1      -4.162   5.017  -0.754  0.00  0.00    +0.155 HD
ENDBRANCH  15  16
ENDBRANCH   2  15
TORSDOF 3
