REMARK  Name = ZINC03306774
REMARK  9 active torsions:
REMARK  status: ('A' for Active; 'I' for Inactive)
REMARK    1  A    between atoms: C_1  and  C_2
REMARK    2  A    between atoms: C_2  and  C_3
REMARK    3  A    between atoms: C_3  and  C_4
REMARK    4  A    between atoms: C_4  and  O_5
REMARK    5  A    between atoms: O_5  and  C_6
REMARK    6  A    between atoms: C_9  and  C_12
REMARK    7  A    between atoms: C_14  and  C_22
REMARK    8  A    between atoms: N_24  and  C_25
REMARK    9  A    between atoms: C_30  and  C_31
REMARK                            x       y       z     vdW  Elec       q    Type
REMARK                         _______ _______ _______ _____ _____    ______ ____
ROOT
ATOM      1  C   UNL     1       1.857  -8.063  -3.127  0.00  0.00    +0.122 C 
ATOM      2  C   UNL     1       0.782  -8.546  -4.110  0.00  0.00    +0.143 C 
ATOM      3  C   UNL     1       1.169  -8.053  -5.490  0.00  0.00    +0.019 C 
ATOM      4  C   UNL     1       0.299  -7.446  -6.273  0.00  0.00    +0.029 C 
ATOM      5  N   UNL     1       2.491  -8.271  -5.897  0.00  0.00    -0.273 N 
ATOM      6  C   UNL     1       3.443  -8.449  -4.963  0.00  0.00    +0.304 C 
ATOM      7  O   UNL     1       4.584  -8.664  -5.325  0.00  0.00    -0.253 OA
ATOM      8  N   UNL     1       3.181  -8.398  -3.651  0.00  0.00    -0.291 N 
ATOM      9  H   UNL     1       2.717  -8.293  -6.840  0.00  0.00    +0.156 HD
ATOM     10  H   UNL     1       3.896  -8.589  -3.024  0.00  0.00    +0.151 HD
ENDROOT
BRANCH   1  14
ATOM     11  C   UNL     1       1.546  -3.828  -2.642  0.00  0.00    +0.121 A 
ATOM     12  C   UNL     1       1.006  -4.679  -1.688  0.00  0.00    +0.046 A 
ATOM     13  C   UNL     1       1.108  -6.047  -1.847  0.00  0.00    +0.009 A 
ATOM     14  C   UNL     1       1.747  -6.570  -2.956  0.00  0.00    -0.026 A 
ATOM     15  C   UNL     1       2.287  -5.724  -3.908  0.00  0.00    +0.009 A 
ATOM     16  C   UNL     1       2.183  -4.355  -3.757  0.00  0.00    +0.046 A 
BRANCH  11  17
ATOM     17  O   UNL     1       1.447  -2.482  -2.488  0.00  0.00    -0.492 OA
BRANCH  17  18
ATOM     18  C   UNL     1       0.779  -2.010  -1.316  0.00  0.00    +0.229 C 
BRANCH  18  19
ATOM     19  C   UNL     1       0.766  -0.480  -1.317  0.00  0.00    +0.041 C 
BRANCH  19  21
ATOM     20  C   UNL     1       0.038   1.554  -0.063  0.00  0.00    +0.004 C 
ATOM     21  C   UNL     1       0.051   0.024  -0.062  0.00  0.00    -0.000 C 
ENDBRANCH  19  21
ENDBRANCH  18  19
ENDBRANCH  17  18
ENDBRANCH  11  17
ENDBRANCH   1  14
BRANCH   2  22
ATOM     22  C   UNL     1       0.720 -10.051  -4.101  0.00  0.00    +0.228 C 
ATOM     23  O   UNL     1       1.462 -10.684  -3.380  0.00  0.00    -0.275 OA
ATOM     24  N   UNL     1      -0.160 -10.694  -4.894  0.00  0.00    -0.284 N 
ATOM     25  H   UNL     1      -0.807 -10.188  -5.410  0.00  0.00    +0.155 HD
BRANCH  24  26
ATOM     26  C   UNL     1      -0.139 -12.091  -4.973  0.00  0.00    +0.045 A 
ATOM     27  C   UNL     1       1.029 -12.787  -4.691  0.00  0.00    +0.024 A 
ATOM     28  C   UNL     1       1.046 -14.166  -4.770  0.00  0.00    +0.002 A 
ATOM     29  C   UNL     1      -0.099 -14.853  -5.130  0.00  0.00    +0.001 A 
ATOM     30  C   UNL     1      -1.264 -14.163  -5.412  0.00  0.00    +0.014 A 
ATOM     31  C   UNL     1      -1.289 -12.784  -5.328  0.00  0.00    +0.076 A 
BRANCH  31  32
ATOM     32  C   UNL     1      -2.560 -12.034  -5.629  0.00  0.00    +0.419 C 
ATOM     33  F   UNL     1      -3.571 -12.942  -5.960  0.00  0.00    -0.166 F 
ATOM     34  F   UNL     1      -2.945 -11.298  -4.503  0.00  0.00    -0.166 F 
ATOM     35  F   UNL     1      -2.345 -11.164  -6.703  0.00  0.00    -0.166 F 
ENDBRANCH  31  32
ENDBRANCH  24  26
ENDBRANCH   2  22
TORSDOF 8
