REMARK  Name = ZINC24886684
REMARK  8 active torsions:
REMARK  status: ('A' for Active; 'I' for Inactive)
REMARK    1  A    between atoms: C_1  and  C_2
REMARK    2  A    between atoms: C_3  and  C_16
REMARK    3  A    between atoms: N_5  and  C_7
REMARK    4  A    between atoms: C_7  and  C_8
REMARK    5  A    between atoms: C_16  and  N_18
REMARK    6  A    between atoms: C_21  and  C_24
REMARK    7  A    between atoms: C_24  and  N_25
REMARK    8  A    between atoms: C_29  and  C_32
REMARK                            x       y       z     vdW  Elec       q    Type
REMARK                         _______ _______ _______ _____ _____    ______ ____
ROOT
ATOM      1  C   UNL     1      -0.473  -0.362  -2.274  0.00  0.00    +0.274 C 
ATOM      2  O   UNL     1       0.624  -0.117  -2.746  0.00  0.00    -0.268 OA
ENDROOT
BRANCH   1   5
ATOM      3  C   UNL     1      -0.806   1.465   0.299  0.00  0.00    +0.068 C 
ATOM      4  C   UNL     1      -0.737  -0.040   0.271  0.00  0.00    +0.074 A 
ATOM      5  C   UNL     1      -0.588  -0.842  -0.882  0.00  0.00    +0.098 A 
ATOM      6  C   UNL     1      -0.571  -2.158  -0.464  0.00  0.00    +0.140 A 
ATOM      7  N   UNL     1      -0.702  -2.157   0.874  0.00  0.00    -0.248 N 
ATOM      8  N   UNL     1      -0.799  -0.830   1.308  0.00  0.00    -0.174 NA
ATOM      9 CL   UNL     1      -0.409  -3.556  -1.480  0.00  0.00    -0.062 Cl
BRANCH   7  10
ATOM     10  C   UNL     1      -0.735  -3.343   1.733  0.00  0.00    +0.181 C 
BRANCH  10  11
ATOM     11  C   UNL     1       0.667  -3.688   2.166  0.00  0.00    -0.008 A 
ATOM     12  C   UNL     1       1.400  -4.621   1.456  0.00  0.00    +0.007 A 
ATOM     13  C   UNL     1       2.686  -4.937   1.853  0.00  0.00    +0.000 A 
ATOM     14  C   UNL     1       3.239  -4.321   2.960  0.00  0.00    +0.001 A 
ATOM     15  C   UNL     1       2.507  -3.389   3.671  0.00  0.00    +0.020 A 
ATOM     16  C   UNL     1       1.222  -3.067   3.270  0.00  0.00    +0.046 A 
ATOM     17 CL   UNL     1       0.305  -1.891   4.158  0.00  0.00    -0.083 Cl
ENDBRANCH  10  11
ENDBRANCH   7  10
ENDBRANCH   1   5
BRANCH   1  18
ATOM     18  N   UNL     1      -1.572  -0.197  -3.017  0.00  0.00    -0.152 NA
ATOM     19  C   UNL     1      -1.468   0.235  -4.272  0.00  0.00    +0.163 A 
ATOM     20  N   UNL     1      -2.464   0.468  -5.171  0.00  0.00    -0.341 N 
ATOM     21  C   UNL     1      -2.133   0.912  -6.414  0.00  0.00    +0.008 A 
ATOM     22  C   UNL     1      -0.834   1.095  -6.675  0.00  0.00    +0.067 A 
ATOM     23  S   UNL     1      -0.077   0.634  -5.128  0.00  0.00    -0.061 S 
ATOM     24  H   UNL     1      -3.392   0.319  -4.931  0.00  0.00    +0.167 HD
BRANCH  21  25
ATOM     25  C   UNL     1      -3.188   1.188  -7.455  0.00  0.00    -0.024 C 
BRANCH  25  26
ATOM     26  N   UNL     1      -3.858  -0.068  -7.816  0.00  0.00    +0.384 N 
ATOM     27  C   UNL     1      -4.981   0.220  -8.717  0.00  0.00    -0.078 C 
ATOM     28  C   UNL     1      -5.732  -1.076  -9.033  0.00  0.00    -0.018 C 
ATOM     29  C   UNL     1      -4.775  -2.063  -9.707  0.00  0.00    -0.001 C 
ATOM     30  C   UNL     1      -3.571  -2.299  -8.790  0.00  0.00    -0.031 C 
ATOM     31  C   UNL     1      -2.900  -0.958  -8.483  0.00  0.00    -0.075 C 
ATOM     32  C   UNL     1      -2.572  -3.224  -9.486  0.00  0.00    +0.005 C 
ATOM     33  H   UNL     1      -4.206  -0.515  -6.981  0.00  0.00    -0.081 HD
ENDBRANCH  25  26
ENDBRANCH  21  25
ENDBRANCH   1  18
TORSDOF 6
