REMARK  Name = ZINC16033145
REMARK  6 active torsions:
REMARK  status: ('A' for Active; 'I' for Inactive)
REMARK    1  A    between atoms: C_1  and  N_55
REMARK    2  A    between atoms: C_3  and  C_29
REMARK    3  A    between atoms: C_5  and  C_21
REMARK    4  A    between atoms: C_12  and  C_17
REMARK    5  A    between atoms: C_21  and  C_23
REMARK    6  A    between atoms: C_33  and  N_35
REMARK                            x       y       z     vdW  Elec       q    Type
REMARK                         _______ _______ _______ _____ _____    ______ ____
ROOT
ATOM      1  C   UNL     1       5.256  -2.832  -0.304  0.00  0.00    -0.094 C 
ATOM      2  C   UNL     1       3.545  -2.177   1.301  0.00  0.00    -0.068 C 
ATOM      3  C   UNL     1       2.570  -0.978   1.423  0.00  0.00    +0.013 C 
ATOM      4  C   UNL     1       2.509  -0.432  -0.024  0.00  0.00    +0.068 C 
ATOM      5  C   UNL     1       3.795  -0.937  -0.689  0.00  0.00    +0.050 C 
ATOM      6  C   UNL     1       3.484  -1.782  -1.895  0.00  0.00    -0.027 A 
ATOM      7  C   UNL     1       2.785  -2.955  -2.072  0.00  0.00    +0.004 A 
ATOM      8  C   UNL     1       2.667  -3.506  -3.336  0.00  0.00    +0.001 A 
ATOM      9  C   UNL     1       3.252  -2.876  -4.419  0.00  0.00    +0.014 A 
ATOM     10  C   UNL     1       3.954  -1.701  -4.246  0.00  0.00    +0.076 A 
ATOM     11  C   UNL     1       4.078  -1.140  -2.976  0.00  0.00    +0.047 A 
ATOM     12  N   UNL     1       4.728   0.021  -2.551  0.00  0.00    -0.286 N 
ATOM     13  C   UNL     1       4.611   0.211  -1.224  0.00  0.00    +0.212 C 
ATOM     14  O   UNL     1       5.072   1.131  -0.582  0.00  0.00    -0.277 OA
ATOM     15  H   UNL     1       5.208   0.620  -3.144  0.00  0.00    +0.155 HD
ATOM     16  N   UNL     1       4.527  -1.689   0.325  0.00  0.00    +0.391 N 
ATOM     17  H   UNL     1       5.204  -1.074   0.793  0.00  0.00    -0.080 HD
ENDROOT
BRANCH   3  18
ATOM     18  C   UNL     1       1.209  -1.441   1.876  0.00  0.00    -0.043 A 
ATOM     19  C   UNL     1       0.556  -2.446   1.187  0.00  0.00    +0.004 A 
ATOM     20  C   UNL     1      -0.692  -2.870   1.603  0.00  0.00    +0.002 A 
ATOM     21  C   UNL     1      -1.287  -2.290   2.708  0.00  0.00    +0.033 A 
ATOM     22  C   UNL     1      -0.634  -1.286   3.397  0.00  0.00    +0.126 A 
ATOM     23  C   UNL     1       0.617  -0.864   2.983  0.00  0.00    +0.036 A 
BRANCH  22  24
ATOM     24  N   UNL     1      -1.271  -0.664   4.579  0.00  0.00    +0.056 N 
ATOM     25  O   UNL     1      -2.371  -1.038   4.945  0.00  0.00    -0.126 OA
ATOM     26  O   UNL     1      -0.696   0.221   5.186  0.00  0.00    -0.126 OA
ENDBRANCH  22  24
ENDBRANCH   3  18
BRANCH  10  27
ATOM     27  C   UNL     1       4.588  -1.023  -5.432  0.00  0.00    +0.419 C 
ATOM     28  F   UNL     1       4.329  -1.767  -6.588  0.00  0.00    -0.166 F 
ATOM     29  F   UNL     1       4.054   0.262  -5.576  0.00  0.00    -0.166 F 
ATOM     30  F   UNL     1       5.970  -0.934  -5.235  0.00  0.00    -0.166 F 
ENDBRANCH  10  27
BRANCH   4  31
ATOM     31  C   UNL     1       2.480   1.075  -0.016  0.00  0.00    +0.168 C 
ATOM     32  O   UNL     1       2.964   1.685   0.913  0.00  0.00    -0.292 OA
BRANCH  31  33
ATOM     33  C   UNL     1       1.865   1.805  -1.135  0.00  0.00    +0.036 A 
ATOM     34  C   UNL     1       1.831   3.208  -1.141  0.00  0.00    +0.014 A 
ATOM     35  C   UNL     1       1.242   3.845  -2.217  0.00  0.00    +0.020 A 
ATOM     36  C   UNL     1       0.708   3.086  -3.245  0.00  0.00    +0.111 A 
ATOM     37  N   UNL     1       0.758   1.768  -3.216  0.00  0.00    -0.263 NA
ATOM     38  C   UNL     1       1.303   1.113  -2.213  0.00  0.00    +0.122 A 
ENDBRANCH  31  33
ENDBRANCH   4  31
TORSDOF 5
