REMARK  Name = ZINC01871087
REMARK  8 active torsions:
REMARK  status: ('A' for Active; 'I' for Inactive)
REMARK    1  A    between atoms: C_1  and  N_56
REMARK    2  A    between atoms: C_2  and  C_3
REMARK    3  A    between atoms: C_2  and  N_56
REMARK    4  A    between atoms: C_4  and  O_26
REMARK    5  A    between atoms: C_10  and  C_22
REMARK    6  A    between atoms: C_11  and  O_14
REMARK    7  A    between atoms: O_14  and  C_15
REMARK    8  A    between atoms: C_27  and  N_56
REMARK                            x       y       z     vdW  Elec       q    Type
REMARK                         _______ _______ _______ _____ _____    ______ ____
ROOT
ATOM      1  C   UNL     1       1.058   3.460   0.010  0.00  0.00    +0.020 A 
ATOM      2  C   UNL     1       2.233   4.193   0.002  0.00  0.00    +0.122 A 
ATOM      3  C   UNL     1       3.469   3.551  -0.013  0.00  0.00    +0.046 A 
ATOM      4  C   UNL     1       3.539   2.187  -0.020  0.00  0.00    +0.019 A 
ATOM      5  C   UNL     1       2.365   1.434  -0.013  0.00  0.00    +0.068 A 
ATOM      6  C   UNL     1       1.112   2.073   0.003  0.00  0.00    +0.144 A 
ATOM      7  O   UNL     1      -0.016   1.335   0.009  0.00  0.00    -0.447 OA
ATOM      8  C   UNL     1       0.002  -0.004   0.002  0.00  0.00    +0.254 A 
ATOM      9  C   UNL     1       1.145  -0.718  -0.013  0.00  0.00    +0.222 A 
ATOM     10  C   UNL     1       2.397  -0.039  -0.021  0.00  0.00    +0.235 A 
ATOM     11  O   UNL     1       3.452  -0.651  -0.034  0.00  0.00    -0.283 OA
ENDROOT
BRANCH   8  12
ATOM     12  C   UNL     1      -1.311  -0.744   0.011  0.00  0.00    +0.454 C 
ATOM     13  F   UNL     1      -1.704  -0.980   1.333  0.00  0.00    -0.163 F 
ATOM     14  F   UNL     1      -2.284   0.026  -0.635  0.00  0.00    -0.163 F 
ATOM     15  F   UNL     1      -1.163  -1.964  -0.656  0.00  0.00    -0.163 F 
ENDBRANCH   8  12
BRANCH   2  16
ATOM     16  O   UNL     1       2.179   5.550   0.009  0.00  0.00    -0.506 OA
ATOM     17  H   UNL     1       2.172   5.939   0.894  0.00  0.00    +0.292 HD
ENDBRANCH   2  16
BRANCH   1  18
ATOM     18  C   UNL     1      -0.274   4.165   0.027  0.00  0.00    -0.036 C 
BRANCH  18  20
ATOM     19  C   UNL     1       0.210   5.328   2.095  0.00  0.00    -0.095 C 
ATOM     20  N   UNL     1      -0.691   4.362   1.431  0.00  0.00    +0.383 N 
ATOM     21  H   UNL     1      -0.637   3.463   1.924  0.00  0.00    -0.081 HD
BRANCH  20  22
ATOM     22  C   UNL     1      -2.084   4.854   1.480  0.00  0.00    -0.069 C 
ATOM     23  C   UNL     1      -2.190   6.230   0.820  0.00  0.00    -0.015 C 
ATOM     24  C   UNL     1      -3.639   6.717   0.885  0.00  0.00    -0.002 C 
ATOM     25  C   UNL     1      -4.078   6.817   2.347  0.00  0.00    -0.000 C 
ATOM     26  C   UNL     1      -3.972   5.441   3.007  0.00  0.00    -0.002 C 
ATOM     27  C   UNL     1      -2.523   4.955   2.942  0.00  0.00    -0.015 C 
ENDBRANCH  20  22
ENDBRANCH  18  20
ENDBRANCH   1  18
BRANCH   9  28
ATOM     28  O   UNL     1       1.104  -2.078  -0.019  0.00  0.00    -0.447 OA
BRANCH  28  29
ATOM     29  C   UNL     1       1.073  -2.710  -1.222  0.00  0.00    +0.147 A 
ATOM     30  C   UNL     1       1.078  -1.970  -2.396  0.00  0.00    +0.048 A 
ATOM     31  C   UNL     1       1.051  -2.615  -3.617  0.00  0.00    +0.004 A 
ATOM     32  C   UNL     1       1.008  -3.996  -3.671  0.00  0.00    +0.002 A 
ATOM     33  C   UNL     1       0.998  -4.736  -2.504  0.00  0.00    +0.024 A 
ATOM     34  C   UNL     1       1.030  -4.096  -1.279  0.00  0.00    +0.083 A 
ATOM     35 CL   UNL     1       1.017  -5.026   0.188  0.00  0.00    -0.080 Cl
ENDBRANCH  28  29
ENDBRANCH   9  28
TORSDOF 7
