REMARK  Name = ZINC50659851
REMARK  5 active torsions:
REMARK  status: ('A' for Active; 'I' for Inactive)
REMARK    1  A    between atoms: C_2  and  N_19
REMARK    2  A    between atoms: C_5  and  S_8
REMARK    3  A    between atoms: C_6  and  N_7
REMARK    4  A    between atoms: S_8  and  N_11
REMARK    5  A    between atoms: N_11  and  C_12
REMARK                            x       y       z     vdW  Elec       q    Type
REMARK                         _______ _______ _______ _____ _____    ______ ____
ROOT
ATOM      1  C   UNL     1       0.082   1.414   0.428  0.00  0.00    +0.057 A 
ATOM      2  C   UNL     1       1.247   2.085   0.113  0.00  0.00    +0.131 A 
ATOM      3  C   UNL     1       2.356   1.383  -0.320  0.00  0.00    +0.073 A 
ATOM      4  C   UNL     1       2.303   0.004  -0.439  0.00  0.00    +0.154 A 
ATOM      5  C   UNL     1       1.139  -0.673  -0.125  0.00  0.00    +0.166 A 
ATOM      6  C   UNL     1       0.024   0.031   0.311  0.00  0.00    +0.057 A 
ATOM      7  F   UNL     1       3.388  -0.680  -0.862  0.00  0.00    -0.203 F 
ENDROOT
BRANCH   6   8
ATOM      8  N   UNL     1      -1.154  -0.649   0.629  0.00  0.00    -0.356 N 
ATOM      9  H   UNL     1      -1.976  -0.155   0.772  0.00  0.00    +0.142 HD
ATOM     10  H   UNL     1      -1.149  -1.616   0.708  0.00  0.00    +0.142 HD
ENDBRANCH   6   8
BRANCH   5  11
ATOM     11  S   UNL     1       1.070  -2.428  -0.277  0.00  0.00    +0.098 S 
ATOM     12  O   UNL     1      -0.261  -2.750  -0.659  0.00  0.00    -0.148 OA
ATOM     13  O   UNL     1       2.199  -2.813  -1.050  0.00  0.00    -0.148 OA
BRANCH  11  14
ATOM     14  N   UNL     1       1.294  -3.060   1.237  0.00  0.00    -0.070 NA
BRANCH  14  15
ATOM     15  C   UNL     1       1.288  -4.434   1.422  0.00  0.00    +0.202 A 
ATOM     16  N   UNL     1       1.127  -5.380   0.522  0.00  0.00    -0.229 NA
ATOM     17  C   UNL     1       1.148  -6.657   0.863  0.00  0.00    +0.136 A 
ATOM     18  C   UNL     1       1.341  -6.941   2.174  0.00  0.00    +0.076 A 
ATOM     19  S   UNL     1       1.494  -5.297   2.853  0.00  0.00    -0.042 S 
ATOM     20 BR   UNL     1       1.433  -8.618   3.043  0.00  0.00    -0.041 Br
ENDBRANCH  14  15
ENDBRANCH  11  14
ENDBRANCH   5  11
BRANCH   2  21
ATOM     21  N   UNL     1       1.308   3.559   0.237  0.00  0.00    +0.057 N 
ATOM     22  O   UNL     1       0.338   4.174   0.615  0.00  0.00    -0.126 OA
ATOM     23  O   UNL     1       2.327   4.147  -0.038  0.00  0.00    -0.126 OA
ENDBRANCH   2  21
TORSDOF 5
