REMARK  Name = ZINC09092841
REMARK  6 active torsions:
REMARK  status: ('A' for Active; 'I' for Inactive)
REMARK    1  A    between atoms: C_1  and  C_2
REMARK    2  A    between atoms: C_2  and  C_24
REMARK    3  A    between atoms: N_5  and  C_9
REMARK    4  A    between atoms: C_9  and  C_10
REMARK    5  A    between atoms: N_12  and  C_13
REMARK    6  A    between atoms: C_18  and  C_19
REMARK                            x       y       z     vdW  Elec       q    Type
REMARK                         _______ _______ _______ _____ _____    ______ ____
ROOT
ATOM      1  C   UNL     1       2.888   4.243  -1.426  0.00  0.00    +0.047 C 
ATOM      2  C   UNL     1       2.451   3.955   0.011  0.00  0.00    +0.135 C 
ATOM      3  C   UNL     1       3.525   3.182   0.751  0.00  0.00    +0.251 C 
ATOM      4  O   UNL     1       3.959   2.085   0.475  0.00  0.00    -0.272 OA
ATOM      5  N   UNL     1       3.897   3.970   1.779  0.00  0.00    -0.215 N 
ATOM      6  C   UNL     1       3.215   5.121   1.792  0.00  0.00    +0.310 C 
ATOM      7  O   UNL     1       3.376   5.992   2.624  0.00  0.00    -0.252 OA
ATOM      8  N   UNL     1       2.330   5.207   0.778  0.00  0.00    -0.281 N 
ATOM      9  H   UNL     1       1.732   5.947   0.589  0.00  0.00    +0.152 HD
ENDROOT
BRANCH   2  10
ATOM     10  C   UNL     1       1.148   3.197   0.026  0.00  0.00    -0.012 A 
ATOM     11  C   UNL     1       1.154   1.815   0.022  0.00  0.00    +0.010 A 
ATOM     12  C   UNL     1      -0.038   1.115   0.035  0.00  0.00    +0.050 A 
ATOM     13  C   UNL     1      -1.243   1.799   0.046  0.00  0.00    +0.166 A 
ATOM     14  C   UNL     1      -1.249   3.192   0.055  0.00  0.00    +0.167 A 
ATOM     15  C   UNL     1      -0.050   3.886   0.042  0.00  0.00    +0.055 A 
ATOM     16  O   UNL     1      -2.544   3.623   0.072  0.00  0.00    -0.453 OA
ATOM     17  C   UNL     1      -3.322   2.486   0.492  0.00  0.00    +0.466 C 
ATOM     18  O   UNL     1      -2.534   1.357   0.068  0.00  0.00    -0.453 OA
ENDBRANCH   2  10
BRANCH   5  19
ATOM     19  C   UNL     1       4.923   3.610   2.762  0.00  0.00    +0.214 C 
BRANCH  19  20
ATOM     20  C   UNL     1       6.269   4.085   2.280  0.00  0.00    +0.235 C 
ATOM     21  O   UNL     1       6.363   4.667   1.220  0.00  0.00    -0.274 OA
ATOM     22  N   UNL     1       7.369   3.863   3.027  0.00  0.00    -0.284 N 
ATOM     23  H   UNL     1       7.286   3.457   3.904  0.00  0.00    +0.155 HD
BRANCH  22  24
ATOM     24  C   UNL     1       8.631   4.220   2.538  0.00  0.00    +0.045 A 
ATOM     25  C   UNL     1       8.776   5.350   1.744  0.00  0.00    +0.025 A 
ATOM     26  C   UNL     1      10.023   5.702   1.267  0.00  0.00    +0.022 A 
ATOM     27  C   UNL     1      11.126   4.924   1.570  0.00  0.00    +0.042 A 
ATOM     28  C   UNL     1      10.984   3.794   2.356  0.00  0.00    +0.034 A 
ATOM     29  C   UNL     1       9.739   3.440   2.840  0.00  0.00    +0.077 A 
ATOM     30 CL   UNL     1      12.691   5.365   0.963  0.00  0.00    -0.084 Cl
BRANCH  29  31
ATOM     31  C   UNL     1       9.585   2.210   3.696  0.00  0.00    +0.419 C 
ATOM     32  F   UNL     1      10.832   1.596   3.860  0.00  0.00    -0.166 F 
ATOM     33  F   UNL     1       9.077   2.573   4.948  0.00  0.00    -0.166 F 
ATOM     34  F   UNL     1       8.704   1.317   3.077  0.00  0.00    -0.166 F 
ENDBRANCH  29  31
ENDBRANCH  22  24
ENDBRANCH  19  20
ENDBRANCH   5  19
TORSDOF 5
