REMARK  Name = ZINC34757545
REMARK  9 active torsions:
REMARK  status: ('A' for Active; 'I' for Inactive)
REMARK    1  A    between atoms: C_1  and  C_2
REMARK    2  A    between atoms: C_5  and  C_9
REMARK    3  A    between atoms: C_6  and  C_8
REMARK    4  A    between atoms: C_9  and  S_10
REMARK    5  A    between atoms: S_10  and  C_11
REMARK    6  A    between atoms: N_26  and  C_29
REMARK    7  A    between atoms: C_29  and  C_30
REMARK    8  A    between atoms: C_30  and  C_31
REMARK    9  A    between atoms: C_30  and  C_32
REMARK                            x       y       z     vdW  Elec       q    Type
REMARK                         _______ _______ _______ _____ _____    ______ ____
ROOT
ATOM      1  C   UNL     1       1.624  -6.624  -0.221  0.00  0.00    +0.191 A 
ATOM      2  N   UNL     1       2.725  -7.368  -0.220  0.00  0.00    -0.206 NA
ATOM      3  C   UNL     1       2.686  -8.680  -0.054  0.00  0.00    +0.134 A 
ATOM      4  C   UNL     1       1.428  -9.318   0.130  0.00  0.00    +0.051 A 
ATOM      5  C   UNL     1       1.150 -10.750   0.331  0.00  0.00    -0.025 A 
ATOM      6  C   UNL     1      -0.136 -11.104   0.481  0.00  0.00    -0.004 A 
ATOM      7  S   UNL     1      -1.050  -9.583   0.370  0.00  0.00    -0.073 S 
ATOM      8  C   UNL     1       0.306  -8.470   0.118  0.00  0.00    +0.115 A 
ATOM      9  N   UNL     1       0.426  -7.166  -0.049  0.00  0.00    -0.215 NA
ATOM     10  C   UNL     1      -0.299 -12.588   0.673  0.00  0.00    +0.043 C 
ATOM     11  C   UNL     1       1.040 -13.190   0.195  0.00  0.00    +0.010 C 
ATOM     12  C   UNL     1       2.010 -12.014   0.421  0.00  0.00    +0.037 C 
ATOM     13  N   UNL     1       3.853  -9.422  -0.059  0.00  0.00    -0.318 N 
ATOM     14  C   UNL     1       4.434  -9.908  -1.320  0.00  0.00    +0.088 C 
ATOM     15  C   UNL     1       5.917  -9.521  -1.353  0.00  0.00    -0.060 C 
ATOM     16  N   UNL     1       6.580 -10.027  -0.144  0.00  0.00    +0.382 N 
ATOM     17  C   UNL     1       6.026  -9.367   1.044  0.00  0.00    -0.060 C 
ATOM     18  C   UNL     1       4.552  -9.741   1.195  0.00  0.00    +0.088 C 
ATOM     19  H   UNL     1       6.434 -11.023  -0.073  0.00  0.00    -0.082 HD
ENDROOT
BRANCH   1  20
ATOM     20  S   UNL     1       1.760  -4.882  -0.449  0.00  0.00    -0.081 S 
BRANCH  20  21
ATOM     21  C   UNL     1       0.045  -4.295  -0.371  0.00  0.00    +0.112 C 
BRANCH  21  26
ATOM     22  C   UNL     1      -0.063   1.440  -1.071  0.00  0.00    +0.044 C 
ATOM     23  C   UNL     1      -0.035  -0.056  -0.889  0.00  0.00    -0.050 A 
ATOM     24  C   UNL     1      -0.125  -0.888  -1.989  0.00  0.00    +0.003 A 
ATOM     25  C   UNL     1      -0.099  -2.260  -1.821  0.00  0.00    +0.005 A 
ATOM     26  C   UNL     1       0.018  -2.800  -0.554  0.00  0.00    -0.034 A 
ATOM     27  C   UNL     1       0.109  -1.967   0.546  0.00  0.00    -0.046 A 
ATOM     28  C   UNL     1       0.087  -0.595   0.378  0.00  0.00    +0.007 A 
ATOM     29  C   UNL     1       0.235  -2.555   1.928  0.00  0.00    +0.044 C 
ENDBRANCH  21  26
ENDBRANCH  20  21
ENDBRANCH   1  20
BRANCH  16  30
ATOM     30  C   UNL     1       8.021  -9.752  -0.228  0.00  0.00    -0.076 C 
BRANCH  30  31
ATOM     31  C   UNL     1       8.731 -10.387   0.969  0.00  0.00    -0.034 C 
ATOM     32  C   UNL     1       8.604 -11.910   0.889  0.00  0.00    +0.005 C 
ATOM     33  C   UNL     1      10.211  -9.997   0.950  0.00  0.00    +0.005 C 
ENDBRANCH  30  31
ENDBRANCH  16  30
TORSDOF 5
