REMARK  Name = ZINC40826351
REMARK  6 active torsions:
REMARK  status: ('A' for Active; 'I' for Inactive)
REMARK    1  A    between atoms: C_1  and  C_2
REMARK    2  A    between atoms: C_6  and  C_7
REMARK    3  A    between atoms: N_9  and  C_10
REMARK    4  A    between atoms: N_23  and  N_24
REMARK    5  A    between atoms: C_25  and  C_27
REMARK    6  A    between atoms: C_32  and  O_33
REMARK                            x       y       z     vdW  Elec       q    Type
REMARK                         _______ _______ _______ _____ _____    ______ ____
ROOT
ATOM      1  C   UNL     1      -0.556   1.496   0.058  0.00  0.00    +0.048 C 
ATOM      2  C   UNL     1      -0.323   0.007   0.027  0.00  0.00    +0.009 A 
ATOM      3  C   UNL     1      -0.243  -0.807  -1.110  0.00  0.00    +0.042 A 
ATOM      4  C   UNL     1      -0.023  -2.094  -0.680  0.00  0.00    +0.115 A 
ATOM      5  O   UNL     1       0.035  -2.080   0.649  0.00  0.00    -0.454 OA
ATOM      6  C   UNL     1      -0.140  -0.817   1.101  0.00  0.00    +0.193 A 
ATOM      7  C   UNL     1       0.115  -3.262  -1.624  0.00  0.00    +0.075 C 
ATOM      8  C   UNL     1      -0.519  -2.904  -2.971  0.00  0.00    +0.014 C 
ATOM      9  C   UNL     1       0.050  -1.584  -3.503  0.00  0.00    +0.058 C 
ATOM     10  C   UNL     1      -0.355  -0.472  -2.547  0.00  0.00    +0.070 C 
ATOM     11  N   UNL     1      -0.768   0.686  -2.961  0.00  0.00    -0.184 NA
ENDROOT
BRANCH   6  12
ATOM     12  C   UNL     1      -0.138  -0.403   2.509  0.00  0.00    +0.284 C 
ATOM     13  O   UNL     1      -0.308   0.766   2.799  0.00  0.00    -0.266 OA
ATOM     14  N   UNL     1       0.054  -1.317   3.480  0.00  0.00    -0.279 N 
ATOM     15  H   UNL     1       0.114  -2.259   3.255  0.00  0.00    +0.155 HD
BRANCH  14  16
ATOM     16  C   UNL     1       0.167  -0.908   4.814  0.00  0.00    +0.037 A 
ATOM     17  C   UNL     1      -0.308  -1.723   5.833  0.00  0.00    +0.027 A 
ATOM     18  C   UNL     1      -0.196  -1.321   7.150  0.00  0.00    +0.051 A 
ATOM     19  C   UNL     1       0.389  -0.104   7.458  0.00  0.00    +0.166 A 
ATOM     20  C   UNL     1       0.867   0.716   6.439  0.00  0.00    +0.168 A 
ATOM     21  C   UNL     1       0.760   0.310   5.119  0.00  0.00    +0.072 A 
ATOM     22  O   UNL     1       1.391   1.846   6.997  0.00  0.00    -0.453 OA
ATOM     23  C   UNL     1       0.864   1.895   8.335  0.00  0.00    +0.466 C 
ATOM     24  O   UNL     1       0.616   0.513   8.656  0.00  0.00    -0.453 OA
ENDBRANCH  14  16
ENDBRANCH   6  12
BRANCH  11  25
ATOM     25  N   UNL     1      -0.854   0.949  -4.335  0.00  0.00    -0.203 N 
ATOM     26  C   UNL     1      -1.283   2.152  -4.766  0.00  0.00    +0.267 C 
ATOM     27  O   UNL     1      -1.595   3.010  -3.962  0.00  0.00    -0.268 OA
ATOM     28  H   UNL     1      -0.606   0.265  -4.976  0.00  0.00    +0.178 HD
BRANCH  26  29
ATOM     29  C   UNL     1      -1.374   2.428  -6.212  0.00  0.00    +0.080 A 
ATOM     30  C   UNL     1      -1.022   1.444  -7.138  0.00  0.00    +0.017 A 
ATOM     31  C   UNL     1      -1.110   1.708  -8.488  0.00  0.00    +0.001 A 
ATOM     32  C   UNL     1      -1.545   2.946  -8.931  0.00  0.00    +0.004 A 
ATOM     33  C   UNL     1      -1.896   3.928  -8.026  0.00  0.00    +0.046 A 
ATOM     34  C   UNL     1      -1.819   3.678  -6.664  0.00  0.00    +0.129 A 
BRANCH  34  35
ATOM     35  O   UNL     1      -2.169   4.639  -5.774  0.00  0.00    -0.506 OA
ATOM     36  H   UNL     1      -1.439   5.216  -5.511  0.00  0.00    +0.292 HD
ENDBRANCH  34  35
ENDBRANCH  26  29
ENDBRANCH  11  25
TORSDOF 5
