REMARK  Name = ZINC01856260
REMARK  6 active torsions:
REMARK  status: ('A' for Active; 'I' for Inactive)
REMARK    1  A    between atoms: C_1  and  C_2
REMARK    2  A    between atoms: C_18  and  C_19
REMARK    3  A    between atoms: C_18  and  N_59
REMARK    4  A    between atoms: N_21  and  N_22
REMARK    5  A    between atoms: C_23  and  C_24
REMARK    6  A    between atoms: C_25  and  C_26
REMARK                            x       y       z     vdW  Elec       q    Type
REMARK                         _______ _______ _______ _____ _____    ______ ____
ROOT
ATOM      1  C   UNL     1      -0.018   1.503   0.010  0.00  0.00    +0.044 C 
ATOM      2  C   UNL     1       0.002  -0.004   0.002  0.00  0.00    -0.050 A 
ATOM      3  C   UNL     1      -0.006  -0.668  -1.214  0.00  0.00    +0.005 A 
ATOM      4  C   UNL     1       0.017  -2.049  -1.298  0.00  0.00    +0.026 A 
ATOM      5  C   UNL     1       0.038  -2.761  -0.102  0.00  0.00    +0.049 A 
ATOM      6  C   UNL     1       0.042  -2.073   1.149  0.00  0.00    +0.003 A 
ATOM      7  C   UNL     1       0.022  -0.675   1.199  0.00  0.00    +0.013 A 
ATOM      8  C   UNL     1       0.066  -3.091   2.163  0.00  0.00    -0.020 A 
ATOM      9  C   UNL     1       0.103  -4.274   1.518  0.00  0.00    +0.009 A 
ATOM     10  N   UNL     1       0.042  -4.112   0.153  0.00  0.00    -0.347 N 
ATOM     11  C   UNL     1       0.021  -5.268  -0.757  0.00  0.00    +0.103 C 
ATOM     12  C   UNL     1       0.459  -6.506   0.035  0.00  0.00    -0.055 C 
ATOM     13  C   UNL     1       0.149  -5.590   2.260  0.00  0.00    -0.020 C 
ATOM     14  C   UNL     1      -0.817  -5.508   3.431  0.00  0.00    -0.009 C 
ATOM     15  C   UNL     1      -0.871  -4.190   4.163  0.00  0.00    +0.003 C 
ATOM     16  C   UNL     1       0.048  -3.084   3.667  0.00  0.00    +0.037 C 
ATOM     17  N   UNL     1      -0.313  -6.617   1.292  0.00  0.00    +0.392 N 
ATOM     18  H   UNL     1      -1.307  -6.462   1.088  0.00  0.00    -0.080 HD
ENDROOT
BRANCH  17  19
ATOM     19  C   UNL     1      -0.146  -7.968   1.869  0.00  0.00    +0.021 C 
BRANCH  19  20
ATOM     20  C   UNL     1      -0.821  -8.970   0.968  0.00  0.00    +0.216 C 
ATOM     21  O   UNL     1      -1.365  -8.599  -0.051  0.00  0.00    -0.276 OA
ATOM     22  N   UNL     1      -0.821 -10.277   1.293  0.00  0.00    -0.209 N 
ATOM     23  H   UNL     1      -0.386 -10.574   2.108  0.00  0.00    +0.177 HD
BRANCH  22  24
ATOM     24  N   UNL     1      -1.448 -11.208   0.455  0.00  0.00    -0.188 NA
ATOM     25  C   UNL     1      -1.447 -12.472   0.770  0.00  0.00    +0.130 C 
BRANCH  25  26
ATOM     26  C   UNL     1      -2.082 -13.415  -0.078  0.00  0.00    +0.022 C 
ATOM     27  C   UNL     1      -2.081 -14.723   0.247  0.00  0.00    +0.009 C 
BRANCH  27  28
ATOM     28  C   UNL     1      -2.741 -15.701  -0.633  0.00  0.00    -0.025 A 
ATOM     29  C   UNL     1      -3.374 -15.277  -1.805  0.00  0.00    +0.008 A 
ATOM     30  C   UNL     1      -3.985 -16.200  -2.628  0.00  0.00    +0.001 A 
ATOM     31  C   UNL     1      -3.982 -17.542  -2.290  0.00  0.00    +0.000 A 
ATOM     32  C   UNL     1      -3.362 -17.969  -1.128  0.00  0.00    +0.001 A 
ATOM     33  C   UNL     1      -2.742 -17.059  -0.299  0.00  0.00    +0.008 A 
ENDBRANCH  27  28
ENDBRANCH  25  26
ENDBRANCH  22  24
ENDBRANCH  19  20
ENDBRANCH  17  19
TORSDOF 5
