REMARK  Name = ZINC33299532
REMARK  5 active torsions:
REMARK  status: ('A' for Active; 'I' for Inactive)
REMARK    1  A    between atoms: C_4  and  C_7
REMARK    2  A    between atoms: C_7  and  N_8
REMARK    3  A    between atoms: C_16  and  N_17
REMARK    4  A    between atoms: C_20  and  C_23
REMARK    5  A    between atoms: N_28  and  C_31
REMARK                            x       y       z     vdW  Elec       q    Type
REMARK                         _______ _______ _______ _____ _____    ______ ____
ROOT
ATOM      1  N   UNL     1      -1.178  -1.934   5.643  0.00  0.00    -0.316 N 
ATOM      2  C   UNL     1      -0.384  -3.159   5.489  0.00  0.00    +0.107 C 
ATOM      3  C   UNL     1       0.184  -3.574   6.848  0.00  0.00    +0.032 C 
ATOM      4  C   UNL     1      -0.969  -3.811   7.827  0.00  0.00    +0.078 C 
ATOM      5  C   UNL     1      -1.809  -2.535   7.932  0.00  0.00    +0.032 C 
ATOM      6  C   UNL     1      -2.319  -2.150   6.542  0.00  0.00    +0.107 C 
ENDROOT
BRANCH   1  15
ATOM      7  N   UNL     1      -0.012  -0.520   1.369  0.00  0.00    -0.342 N 
ATOM      8  C   UNL     1       1.120  -0.868   2.059  0.00  0.00    +0.087 A 
ATOM      9  C   UNL     1       0.793  -1.278   3.295  0.00  0.00    +0.031 A 
ATOM     10  C   UNL     1      -0.663  -1.185   3.404  0.00  0.00    +0.038 A 
ATOM     11  C   UNL     1      -1.115  -0.697   2.163  0.00  0.00    +0.054 A 
ATOM     12  C   UNL     1      -2.487  -0.504   1.992  0.00  0.00    +0.044 A 
ATOM     13  C   UNL     1      -3.333  -0.789   3.025  0.00  0.00    +0.086 A 
ATOM     14  N   UNL     1      -2.887  -1.244   4.185  0.00  0.00    -0.349 N 
ATOM     15  C   UNL     1      -1.600  -1.457   4.409  0.00  0.00    +0.108 A 
ATOM     16  H   UNL     1      -3.593  -1.458   5.001  0.00  0.00    +0.167 HD
BRANCH   7  17
ATOM     17  C   UNL     1      -0.039  -0.028  -0.011  0.00  0.00    +0.157 C 
BRANCH  17  21
ATOM     18  C   UNL     1      -0.072   4.244   0.003  0.00  0.00    +0.000 A 
ATOM     19  C   UNL     1       1.130   3.562  -0.019  0.00  0.00    +0.000 A 
ATOM     20  C   UNL     1       1.141   2.180  -0.023  0.00  0.00    +0.005 A 
ATOM     21  C   UNL     1      -0.051   1.479  -0.006  0.00  0.00    -0.028 A 
ATOM     22  C   UNL     1      -1.253   2.161   0.011  0.00  0.00    +0.005 A 
ATOM     23  C   UNL     1      -1.264   3.543   0.020  0.00  0.00    +0.000 A 
ENDBRANCH  17  21
ENDBRANCH   7  17
ENDBRANCH   1  15
BRANCH   4  24
ATOM     24  C   UNL     1      -0.416  -4.162   9.184  0.00  0.00    +0.219 C 
ATOM     25  O   UNL     1      -0.096  -3.282   9.956  0.00  0.00    -0.275 OA
ATOM     26  N   UNL     1      -0.275  -5.454   9.541  0.00  0.00    -0.298 N 
ATOM     27  C   UNL     1      -0.551  -6.536   8.583  0.00  0.00    +0.126 C 
ATOM     28  C   UNL     1       0.658  -7.485   8.567  0.00  0.00    +0.124 C 
ATOM     29  N   UNL     1       0.944  -7.928   9.938  0.00  0.00    -0.325 N 
ATOM     30  C   UNL     1       1.327  -6.798  10.794  0.00  0.00    +0.124 C 
ATOM     31  C   UNL     1       0.151  -5.820  10.900  0.00  0.00    +0.126 C 
BRANCH  29  32
ATOM     32  C   UNL     1       1.929  -8.921   9.949  0.00  0.00    +0.065 A 
ATOM     33  C   UNL     1       2.286  -9.535  11.142  0.00  0.00    +0.026 A 
ATOM     34  C   UNL     1       3.256 -10.518  11.148  0.00  0.00    +0.002 A 
ATOM     35  C   UNL     1       3.880 -10.885   9.970  0.00  0.00    +0.003 A 
ATOM     36  C   UNL     1       3.531 -10.273   8.780  0.00  0.00    +0.040 A 
ATOM     37  C   UNL     1       2.558  -9.292   8.765  0.00  0.00    +0.144 A 
ATOM     38  F   UNL     1       2.218  -8.693   7.602  0.00  0.00    -0.204 F 
ENDBRANCH  29  32
ENDBRANCH   4  24
TORSDOF 5
