REMARK  Name = ZINC28057633
REMARK  5 active torsions:
REMARK  status: ('A' for Active; 'I' for Inactive)
REMARK    1  A    between atoms: C_1  and  C_2
REMARK    2  A    between atoms: C_10  and  C_13
REMARK    3  A    between atoms: C_16  and  N_19
REMARK    4  A    between atoms: C_20  and  C_22
REMARK    5  A    between atoms: C_23  and  C_31
REMARK                            x       y       z     vdW  Elec       q    Type
REMARK                         _______ _______ _______ _____ _____    ______ ____
ROOT
ATOM      1  C   UNL     1      -0.135   1.199  -1.182  0.00  0.00    +0.044 C 
ATOM      2  C   UNL     1      -0.079  -0.284  -0.916  0.00  0.00    -0.050 A 
ATOM      3  C   UNL     1      -0.027  -1.172  -1.977  0.00  0.00    +0.007 A 
ATOM      4  C   UNL     1       0.032  -2.535  -1.748  0.00  0.00    +0.046 A 
ATOM      5  C   UNL     1       0.029  -3.015  -0.452  0.00  0.00    +0.131 A 
ATOM      6  C   UNL     1      -0.031  -2.117   0.622  0.00  0.00    +0.038 A 
ATOM      7  C   UNL     1      -0.086  -0.750   0.384  0.00  0.00    +0.016 A 
ATOM      8  C   UNL     1      -0.037  -2.667   1.999  0.00  0.00    +0.050 C 
ATOM      9  C   UNL     1       0.356  -3.929   2.180  0.00  0.00    +0.026 C 
ATOM     10  C   UNL     1       0.796  -4.743   0.985  0.00  0.00    +0.234 C 
ATOM     11  O   UNL     1       0.084  -4.345  -0.186  0.00  0.00    -0.479 OA
ATOM     12  C   UNL     1       0.380  -4.580   3.542  0.00  0.00    +0.177 C 
ATOM     13  N   UNL     1      -0.345  -3.760   4.502  0.00  0.00    -0.201 N 
ATOM     14  C   UNL     1      -0.728  -2.478   4.267  0.00  0.00    +0.240 A 
ATOM     15  N   UNL     1      -1.338  -2.053   5.335  0.00  0.00    -0.092 NA
ATOM     16  N   UNL     1      -1.375  -2.982   6.228  0.00  0.00    -0.021 NA
ATOM     17  N   UNL     1      -0.791  -4.051   5.790  0.00  0.00    -0.042 NA
ATOM     18  N   UNL     1      -0.459  -1.855   3.059  0.00  0.00    -0.282 N 
ATOM     19  H   UNL     1      -0.566  -0.770   2.912  0.00  0.00    +0.155 HD
ENDROOT
BRANCH  12  20
ATOM     20  C   UNL     1       1.809  -4.731   3.997  0.00  0.00    +0.017 A 
ATOM     21  C   UNL     1       2.610  -3.615   4.144  0.00  0.00    +0.009 A 
ATOM     22  C   UNL     1       3.920  -3.753   4.562  0.00  0.00    +0.001 A 
ATOM     23  C   UNL     1       4.431  -5.009   4.834  0.00  0.00    +0.003 A 
ATOM     24  C   UNL     1       3.632  -6.127   4.687  0.00  0.00    +0.039 A 
ATOM     25  C   UNL     1       2.318  -5.989   4.273  0.00  0.00    +0.129 A 
ATOM     26  F   UNL     1       1.534  -7.081   4.135  0.00  0.00    -0.205 F 
ENDBRANCH  12  20
BRANCH  10  27
ATOM     27  C   UNL     1       2.272  -4.538   0.761  0.00  0.00    -0.003 A 
ATOM     28  C   UNL     1       3.164  -5.551   1.066  0.00  0.00    +0.009 A 
ATOM     29  C   UNL     1       4.517  -5.368   0.858  0.00  0.00    +0.024 A 
ATOM     30  C   UNL     1       4.983  -4.161   0.352  0.00  0.00    +0.033 A 
ATOM     31  C   UNL     1       4.086  -3.144   0.052  0.00  0.00    +0.024 A 
ATOM     32  C   UNL     1       2.733  -3.336   0.257  0.00  0.00    +0.009 A 
BRANCH  30  33
ATOM     33  N   UNL     1       6.354  -3.971   0.145  0.00  0.00    -0.286 N 
ATOM     34  C   UNL     1       6.896  -2.747   0.305  0.00  0.00    +0.214 C 
ATOM     35  O   UNL     1       6.218  -1.834   0.726  0.00  0.00    -0.276 OA
ATOM     36  C   UNL     1       8.344  -2.514  -0.039  0.00  0.00    +0.109 C 
ATOM     37  H   UNL     1       6.989  -4.820  -0.148  0.00  0.00    +0.155 HD
ENDBRANCH  30  33
ENDBRANCH  10  27
TORSDOF 3
