REMARK  Name = ZINC09811661
REMARK  11 active torsions:
REMARK  status: ('A' for Active; 'I' for Inactive)
REMARK    1  A    between atoms: C_1  and  C_2
REMARK    2  A    between atoms: C_5  and  C_8
REMARK    3  A    between atoms: C_8  and  N_9
REMARK    4  A    between atoms: C_11  and  C_15
REMARK    5  A    between atoms: C_12  and  C_14
REMARK    6  A    between atoms: C_15  and  O_17
REMARK    7  A    between atoms: O_17  and  C_18
REMARK    8  A    between atoms: C_18  and  C_19
REMARK    9  A    between atoms: N_21  and  C_22
REMARK   10  A    between atoms: C_24  and  N_29
REMARK   11  A    between atoms: C_27  and  C_28
REMARK                            x       y       z     vdW  Elec       q    Type
REMARK                         _______ _______ _______ _____ _____    ______ ____
ROOT
ATOM      1  C   UNL     1      -0.015   1.210  -0.018  0.00  0.00    +0.344 C 
ATOM      2  O   UNL     1       0.002  -0.005  -0.032  0.00  0.00    -0.245 OA
ENDROOT
BRANCH   1   5
ATOM      3  N   UNL     1      -3.124   2.957  -0.672  0.00  0.00    -0.248 N 
ATOM      4  C   UNL     1      -2.013   2.348  -1.118  0.00  0.00    +0.142 A 
ATOM      5  C   UNL     1      -1.299   1.929  -0.010  0.00  0.00    +0.118 A 
ATOM      6  C   UNL     1      -2.032   2.325   1.132  0.00  0.00    +0.075 A 
ATOM      7  N   UNL     1      -3.112   2.934   0.727  0.00  0.00    -0.174 NA
ATOM      8  C   UNL     1      -1.636   2.086   2.566  0.00  0.00    +0.068 C 
ATOM      9 CL   UNL     1      -1.559   2.124  -2.779  0.00  0.00    -0.061 Cl
BRANCH   3  10
ATOM     10  C   UNL     1      -4.169   3.552  -1.509  0.00  0.00    +0.180 C 
BRANCH  10  15
ATOM     11  C   UNL     1      -2.883   9.088  -2.552  0.00  0.00    +0.044 C 
ATOM     12  C   UNL     1      -3.219   7.644  -2.280  0.00  0.00    -0.050 A 
ATOM     13  C   UNL     1      -2.770   6.657  -3.138  0.00  0.00    +0.004 A 
ATOM     14  C   UNL     1      -3.077   5.333  -2.888  0.00  0.00    +0.006 A 
ATOM     15  C   UNL     1      -3.833   4.995  -1.781  0.00  0.00    -0.026 A 
ATOM     16  C   UNL     1      -4.287   5.983  -0.927  0.00  0.00    +0.006 A 
ATOM     17  C   UNL     1      -3.976   7.307  -1.174  0.00  0.00    +0.004 A 
ENDBRANCH  10  15
ENDBRANCH   3  10
ENDBRANCH   1   5
BRANCH   1  18
ATOM     18  O   UNL     1       1.143   1.900  -0.015  0.00  0.00    -0.452 OA
BRANCH  18  19
ATOM     19  C   UNL     1       2.372   1.126  -0.030  0.00  0.00    +0.328 C 
BRANCH  19  20
ATOM     20  C   UNL     1       3.554   2.061  -0.024  0.00  0.00    +0.255 C 
ATOM     21  O   UNL     1       3.379   3.261  -0.009  0.00  0.00    -0.272 OA
ATOM     22  N   UNL     1       4.806   1.563  -0.035  0.00  0.00    -0.282 N 
ATOM     23  H   UNL     1       4.949   0.606   0.034  0.00  0.00    +0.155 HD
BRANCH  22  24
ATOM     24  C   UNL     1       5.902   2.426  -0.147  0.00  0.00    +0.039 A 
ATOM     25  C   UNL     1       5.749   3.671  -0.745  0.00  0.00    +0.056 A 
ATOM     26  C   UNL     1       6.830   4.523  -0.849  0.00  0.00    +0.128 A 
ATOM     27  C   UNL     1       8.068   4.134  -0.367  0.00  0.00    +0.033 A 
ATOM     28  C   UNL     1       8.224   2.894   0.224  0.00  0.00    +0.007 A 
ATOM     29  C   UNL     1       7.145   2.039   0.335  0.00  0.00    -0.029 A 
ATOM     30  C   UNL     1       7.317   0.688   0.979  0.00  0.00    +0.045 C 
BRANCH  26  31
ATOM     31  N   UNL     1       6.667   5.851  -1.480  0.00  0.00    +0.056 N 
ATOM     32  O   UNL     1       7.622   6.602  -1.577  0.00  0.00    -0.126 OA
ATOM     33  O   UNL     1       5.578   6.194  -1.905  0.00  0.00    -0.126 OA
ENDBRANCH  26  31
ENDBRANCH  22  24
ENDBRANCH  19  20
ENDBRANCH  18  19
ENDBRANCH   1  18
TORSDOF 8
