REMARK  Name = ZINC16610700
REMARK  11 active torsions:
REMARK  status: ('A' for Active; 'I' for Inactive)
REMARK    1  A    between atoms: C_1  and  C_2
REMARK    2  A    between atoms: C_2  and  C_3
REMARK    3  A    between atoms: C_8  and  N_9
REMARK    4  A    between atoms: N_12  and  C_13
REMARK    5  A    between atoms: C_16  and  C_19
REMARK    6  A    between atoms: C_21  and  C_30
REMARK    7  A    between atoms: C_22  and  C_29
REMARK    8  A    between atoms: N_23  and  C_27
REMARK    9  A    between atoms: C_27  and  C_28
REMARK   10  A    between atoms: C_30  and  O_32
REMARK   11  A    between atoms: O_32  and  C_33
REMARK                            x       y       z     vdW  Elec       q    Type
REMARK                         _______ _______ _______ _____ _____    ______ ____
ROOT
ATOM      1  C   UNL     1      -2.331   5.463   0.262  0.00  0.00    +0.035 A 
ATOM      2  C   UNL     1      -1.145   6.185   0.260  0.00  0.00    +0.024 A 
ATOM      3  C   UNL     1      -1.179   7.566   0.259  0.00  0.00    +0.007 A 
ATOM      4  C   UNL     1      -2.392   8.229   0.269  0.00  0.00    -0.022 A 
ATOM      5  C   UNL     1      -3.575   7.513   0.277  0.00  0.00    +0.007 A 
ATOM      6  C   UNL     1      -3.548   6.132   0.273  0.00  0.00    +0.024 A 
ENDROOT
BRANCH   4   7
ATOM      7  C   UNL     1      -2.425   9.736   0.273  0.00  0.00    +0.141 C 
ATOM      8  C   UNL     1      -2.378  10.208  -1.166  0.00  0.00    +0.078 C 
ATOM      9  C   UNL     1      -1.366  11.027  -1.526  0.00  0.00    +0.021 C 
ATOM     10  N   UNL     1      -0.418  11.413  -0.624  0.00  0.00    -0.286 N 
ATOM     11  C   UNL     1      -0.411  11.027   0.658  0.00  0.00    +0.138 C 
ATOM     12  S   UNL     1       0.839  11.587   1.685  0.00  0.00    -0.018 S 
ATOM     13  N   UNL     1      -1.356  10.211   1.167  0.00  0.00    -0.315 N 
ATOM     14  C   UNL     1      -1.282  11.521  -2.947  0.00  0.00    +0.061 C 
ATOM     15  H   UNL     1      -1.331   9.943   2.099  0.00  0.00    +0.149 HD
BRANCH  10  16
ATOM     16  C   UNL     1       0.652  12.302  -1.083  0.00  0.00    +0.109 C 
ATOM     17  C   UNL     1       1.771  11.470  -1.712  0.00  0.00    +0.025 C 
ENDBRANCH  10  16
BRANCH   8  18
ATOM     18  C   UNL     1      -3.361   9.806  -2.100  0.00  0.00    +0.339 C 
ATOM     19  O   UNL     1      -3.303  10.197  -3.251  0.00  0.00    -0.245 OA
BRANCH  18  20
ATOM     20  O   UNL     1      -4.363   8.988  -1.715  0.00  0.00    -0.465 OA
ATOM     21  C   UNL     1      -5.321   8.622  -2.711  0.00  0.00    +0.280 C 
ENDBRANCH  18  20
ENDBRANCH   8  18
ENDBRANCH   4   7
BRANCH   1  25
ATOM     22  N   UNL     1      -1.359   2.067  -0.500  0.00  0.00    -0.269 N 
ATOM     23  C   UNL     1      -1.336   3.413  -0.421  0.00  0.00    +0.308 C 
ATOM     24  O   UNL     1      -0.446   4.039  -0.963  0.00  0.00    -0.252 OA
ATOM     25  N   UNL     1      -2.300   4.064   0.259  0.00  0.00    -0.269 N 
ATOM     26  H   UNL     1      -2.103   1.572  -0.125  0.00  0.00    +0.156 HD
ATOM     27  H   UNL     1      -2.973   3.563   0.746  0.00  0.00    +0.156 HD
BRANCH  22  33
ATOM     28  C   UNL     1       0.093   0.143  -0.652  0.00  0.00    -0.026 A 
ATOM     29  C   UNL     1       1.126  -0.530  -1.274  0.00  0.00    +0.005 A 
ATOM     30  C   UNL     1       1.762   0.032  -2.365  0.00  0.00    +0.000 A 
ATOM     31  C   UNL     1       1.365   1.270  -2.838  0.00  0.00    +0.002 A 
ATOM     32  C   UNL     1       0.332   1.948  -2.221  0.00  0.00    +0.023 A 
ATOM     33  C   UNL     1      -0.308   1.386  -1.124  0.00  0.00    +0.038 A 
BRANCH  28  35
ATOM     34  C   UNL     1      -1.852  -1.216   0.070  0.00  0.00    +0.009 C 
ATOM     35  C   UNL     1      -0.600  -0.471   0.537  0.00  0.00    +0.033 C 
ENDBRANCH  28  35
ENDBRANCH  22  33
ENDBRANCH   1  25
TORSDOF 7
