REMARK  Name = ZINC44877829
REMARK  13 active torsions:
REMARK  status: ('A' for Active; 'I' for Inactive)
REMARK    1  A    between atoms: C_1  and  C_2
REMARK    2  A    between atoms: N_7  and  C_9
REMARK    3  A    between atoms: C_9  and  C_10
REMARK    4  A    between atoms: C_13  and  C_16
REMARK    5  A    between atoms: C_16  and  N_17
REMARK    6  A    between atoms: C_18  and  C_20
REMARK    7  A    between atoms: C_20  and  N_21
REMARK    8  A    between atoms: N_21  and  C_22
REMARK    9  A    between atoms: N_21  and  S_31
REMARK   10  A    between atoms: C_25  and  C_28
REMARK   11  A    between atoms: C_28  and  C_29
REMARK   12  A    between atoms: C_28  and  C_30
REMARK   13  A    between atoms: S_31  and  C_34
REMARK                            x       y       z     vdW  Elec       q    Type
REMARK                         _______ _______ _______ _____ _____    ______ ____
ROOT
ATOM      1  N   UNL     1       0.734  -9.450   2.432  0.00  0.00    -0.310 N 
ATOM      2  C   UNL     1       0.342 -10.618   1.885  0.00  0.00    +0.232 C 
ATOM      3  O   UNL     1       0.522 -11.658   2.482  0.00  0.00    -0.274 OA
ATOM      4  H   UNL     1       0.590  -8.618   1.954  0.00  0.00    +0.149 HD
ENDROOT
BRANCH   1   5
ATOM      5  C   UNL     1       1.376  -9.437   3.748  0.00  0.00    +0.139 C 
BRANCH   5   9
ATOM      6  C   UNL     1       2.333  -5.415   4.827  0.00  0.00    -0.064 A 
ATOM      7  C   UNL     1       1.106  -5.951   5.174  0.00  0.00    +0.002 A 
ATOM      8  C   UNL     1       0.797  -7.252   4.824  0.00  0.00    +0.005 A 
ATOM      9  C   UNL     1       1.713  -8.018   4.128  0.00  0.00    -0.030 A 
ATOM     10  C   UNL     1       2.939  -7.482   3.781  0.00  0.00    +0.005 A 
ATOM     11  C   UNL     1       3.247  -6.179   4.126  0.00  0.00    +0.002 A 
BRANCH   6  12
ATOM     12  C   UNL     1       2.670  -3.997   5.208  0.00  0.00    -0.043 C 
BRANCH  12  18
ATOM     13  C   UNL     1       2.154   0.701   3.932  0.00  0.00    +0.005 C 
ATOM     14  C   UNL     1       1.930  -0.745   3.486  0.00  0.00    -0.031 C 
ATOM     15  C   UNL     1       2.685  -1.000   2.179  0.00  0.00    -0.001 C 
ATOM     16  C   UNL     1       2.519  -2.470   1.783  0.00  0.00    -0.018 C 
ATOM     17  C   UNL     1       3.018  -3.360   2.924  0.00  0.00    -0.078 C 
ATOM     18  N   UNL     1       2.240  -3.087   4.138  0.00  0.00    +0.383 N 
ATOM     19  C   UNL     1       2.450  -1.698   4.565  0.00  0.00    -0.075 C 
ATOM     20  H   UNL     1       1.260  -3.234   3.948  0.00  0.00    -0.081 HD
ENDBRANCH  12  18
ENDBRANCH   6  12
ENDBRANCH   5   9
ENDBRANCH   1   5
BRANCH   2  21
ATOM     21  C   UNL     1      -0.319 -10.632   0.530  0.00  0.00    +0.226 C 
BRANCH  21  22
ATOM     22  N   UNL     1      -0.647 -12.011   0.161  0.00  0.00    -0.199 N 
BRANCH  22  23
ATOM     23  C   UNL     1      -1.840 -12.587   0.601  0.00  0.00    +0.051 A 
ATOM     24  C   UNL     1      -3.057 -12.000   0.278  0.00  0.00    +0.025 A 
ATOM     25  C   UNL     1      -4.236 -12.573   0.715  0.00  0.00    +0.006 A 
ATOM     26  C   UNL     1      -4.205 -13.729   1.473  0.00  0.00    -0.045 A 
ATOM     27  C   UNL     1      -2.995 -14.316   1.797  0.00  0.00    +0.006 A 
ATOM     28  C   UNL     1      -1.814 -13.751   1.359  0.00  0.00    +0.025 A 
BRANCH  26  29
ATOM     29  C   UNL     1      -5.493 -14.350   1.948  0.00  0.00    +0.013 C 
ATOM     30  C   UNL     1      -5.610 -15.771   1.392  0.00  0.00    +0.012 C 
ATOM     31  C   UNL     1      -5.502 -14.399   3.478  0.00  0.00    +0.012 C 
ENDBRANCH  26  29
ENDBRANCH  22  23
BRANCH  22  32
ATOM     32  S   UNL     1       0.398 -12.887  -0.779  0.00  0.00    +0.043 S 
ATOM     33  O   UNL     1      -0.396 -13.927  -1.332  0.00  0.00    -0.155 OA
ATOM     34  O   UNL     1       1.022 -11.926  -1.619  0.00  0.00    -0.155 OA
ATOM     35  C   UNL     1       1.606 -13.576   0.386  0.00  0.00    +0.218 C 
ENDBRANCH  22  32
ENDBRANCH  21  22
ENDBRANCH   2  21
TORSDOF 9
