REMARK  Name = ZINC10612803
REMARK  8 active torsions:
REMARK  status: ('A' for Active; 'I' for Inactive)
REMARK    1  A    between atoms: C_1  and  C_2
REMARK    2  A    between atoms: C_2  and  C_3
REMARK    3  A    between atoms: C_6  and  N_9
REMARK    4  A    between atoms: C_10  and  C_12
REMARK    5  A    between atoms: C_12  and  S_13
REMARK    6  A    between atoms: S_13  and  C_14
REMARK    7  A    between atoms: N_22  and  C_25
REMARK    8  A    between atoms: C_28  and  C_31
REMARK                            x       y       z     vdW  Elec       q    Type
REMARK                         _______ _______ _______ _____ _____    ______ ____
ROOT
ATOM      1  C   UNL     1       0.115   0.979  -2.723  0.00  0.00    +0.172 A 
ATOM      2  N   UNL     1      -0.216   1.198  -4.029  0.00  0.00    -0.301 N 
ATOM      3  H   UNL     1      -0.994   1.735  -4.246  0.00  0.00    +0.171 HD
ATOM      4  C   UNL     1       0.538   0.675  -5.021  0.00  0.00    +0.263 A 
ATOM      5  O   UNL     1       0.255   0.869  -6.191  0.00  0.00    -0.267 OA
ATOM      6  C   UNL     1       1.665  -0.109  -4.667  0.00  0.00    +0.103 A 
ATOM      7  C   UNL     1       2.651  -0.800  -5.400  0.00  0.00    +0.150 A 
ATOM      8  N   UNL     1       3.470  -1.367  -4.558  0.00  0.00    -0.172 NA
ATOM      9  N   UNL     1       3.066  -1.081  -3.247  0.00  0.00    -0.214 N 
ATOM     10  C   UNL     1       1.949  -0.303  -3.305  0.00  0.00    +0.171 A 
ATOM     11  N   UNL     1       1.156   0.253  -2.380  0.00  0.00    -0.204 NA
ENDROOT
BRANCH   9  12
ATOM     12  C   UNL     1       3.702  -1.520  -2.079  0.00  0.00    +0.068 A 
ATOM     13  C   UNL     1       3.744  -0.699  -0.960  0.00  0.00    +0.028 A 
ATOM     14  C   UNL     1       4.367  -1.137   0.193  0.00  0.00    +0.005 A 
ATOM     15  C   UNL     1       4.958  -2.387   0.229  0.00  0.00    -0.050 A 
ATOM     16  C   UNL     1       4.923  -3.204  -0.886  0.00  0.00    +0.005 A 
ATOM     17  C   UNL     1       4.297  -2.774  -2.039  0.00  0.00    +0.028 A 
ATOM     18  C   UNL     1       5.642  -2.859   1.486  0.00  0.00    +0.044 C 
ENDBRANCH   9  12
BRANCH   1  19
ATOM     19  S   UNL     1      -0.889   1.683  -1.458  0.00  0.00    -0.078 S 
BRANCH  19  20
ATOM     20  C   UNL     1      -0.016   1.080   0.008  0.00  0.00    +0.173 C 
BRANCH  20  22
ATOM     21  N   UNL     1      -0.242   1.246   2.466  0.00  0.00    -0.285 N 
ATOM     22  C   UNL     1      -0.717   1.573   1.248  0.00  0.00    +0.227 C 
ATOM     23  O   UNL     1      -1.709   2.264   1.150  0.00  0.00    -0.275 OA
ATOM     24  H   UNL     1       0.511   0.639   2.546  0.00  0.00    +0.155 HD
BRANCH  21  28
ATOM     25  C   UNL     1      -2.003   2.842   5.887  0.00  0.00    -0.048 A 
ATOM     26  C   UNL     1      -2.784   2.535   4.788  0.00  0.00    +0.005 A 
ATOM     27  C   UNL     1      -2.203   2.006   3.652  0.00  0.00    +0.023 A 
ATOM     28  C   UNL     1      -0.833   1.782   3.615  0.00  0.00    +0.033 A 
ATOM     29  C   UNL     1      -0.053   2.086   4.722  0.00  0.00    +0.023 A 
ATOM     30  C   UNL     1      -0.639   2.620   5.853  0.00  0.00    +0.005 A 
BRANCH  25  32
ATOM     31  C   UNL     1      -3.060   2.283   8.060  0.00  0.00    +0.009 C 
ATOM     32  C   UNL     1      -2.641   3.419   7.125  0.00  0.00    +0.032 C 
ENDBRANCH  25  32
ENDBRANCH  21  28
ENDBRANCH  20  22
ENDBRANCH  19  20
ENDBRANCH   1  19
TORSDOF 6
