REMARK  Name = ZINC63209058
REMARK  10 active torsions:
REMARK  status: ('A' for Active; 'I' for Inactive)
REMARK    1  A    between atoms: C_1  and  C_2
REMARK    2  A    between atoms: C_2  and  C_3
REMARK    3  A    between atoms: C_3  and  N_4
REMARK    4  A    between atoms: C_5  and  N_34
REMARK    5  A    between atoms: C_7  and  C_13
REMARK    6  A    between atoms: C_13  and  C_15
REMARK    7  A    between atoms: C_15  and  S_16
REMARK    8  A    between atoms: S_16  and  C_17
REMARK    9  A    between atoms: C_20  and  C_25
REMARK   10  A    between atoms: N_21  and  C_22
REMARK                            x       y       z     vdW  Elec       q    Type
REMARK                         _______ _______ _______ _____ _____    ______ ____
ROOT
ATOM      1  C   UNL     1      -0.412  -4.548  -3.729  0.00  0.00    +0.156 C 
ENDROOT
BRANCH   1   2
ATOM      2  C   UNL     1      -0.156  -5.207  -2.399  0.00  0.00    +0.174 C 
ATOM      3  O   UNL     1      -0.260  -6.414  -2.288  0.00  0.00    -0.291 OA
BRANCH   2   6
ATOM      4  N   UNL     1       0.771  -4.153   1.171  0.00  0.00    -0.295 N 
ATOM      5  C   UNL     1       0.394  -5.058   0.073  0.00  0.00    +0.057 C 
ATOM      6  C   UNL     1       0.202  -4.434  -1.295  0.00  0.00    +0.060 C 
ATOM      7  C   UNL     1       0.395  -3.072  -1.406  0.00  0.00    +0.251 C 
ATOM      8  O   UNL     1       0.236  -2.471  -2.603  0.00  0.00    -0.270 OA
ATOM      9  N   UNL     1       0.746  -2.327  -0.316  0.00  0.00    -0.236 N 
ATOM     10  C   UNL     1       0.919  -2.841   0.908  0.00  0.00    +0.308 C 
ATOM     11  O   UNL     1       1.227  -2.094   1.817  0.00  0.00    -0.252 OA
ATOM     12  H   UNL     1       0.873  -1.373  -0.434  0.00  0.00    +0.159 HD
BRANCH   5  13
ATOM     13  N   UNL     1      -0.862  -5.723   0.447  0.00  0.00    +0.393 N 
ATOM     14  H   UNL     1      -1.554  -5.028   0.681  0.00  0.00    -0.087 HD
ATOM     15  H   UNL     1      -1.191  -6.279  -0.329  0.00  0.00    -0.087 HD
ATOM     16  H   UNL     1      -0.701  -6.321   1.244  0.00  0.00    -0.087 HD
ENDBRANCH   5  13
BRANCH   4  17
ATOM     17  C   UNL     1       0.977  -4.670   2.527  0.00  0.00    +0.107 C 
BRANCH  17  19
ATOM     18  C   UNL     1      -0.133  -5.173   4.708  0.00  0.00    +0.005 C 
ATOM     19  C   UNL     1      -0.347  -4.633   3.293  0.00  0.00    +0.016 C 
ENDBRANCH  17  19
ENDBRANCH   4  17
ENDBRANCH   2   6
ENDBRANCH   1   2
BRANCH   1  20
ATOM     20  S   UNL     1      -0.799  -5.815  -4.968  0.00  0.00    -0.078 S 
BRANCH  20  21
ATOM     21  C   UNL     1      -1.070  -4.897  -6.447  0.00  0.00    +0.193 A 
ATOM     22  N   UNL     1      -0.991  -3.581  -6.578  0.00  0.00    -0.122 NA
ATOM     23  N   UNL     1      -1.247  -3.242  -7.791  0.00  0.00    -0.129 NA
ATOM     24  C   UNL     1      -1.507  -4.322  -8.513  0.00  0.00    +0.163 A 
ATOM     25  N   UNL     1      -1.393  -5.410  -7.666  0.00  0.00    -0.299 N 
BRANCH  24  26
ATOM     26  C   UNL     1      -1.831  -4.357  -9.879  0.00  0.00    +0.025 C 
ATOM     27  C   UNL     1      -1.938  -3.271 -10.748  0.00  0.00    +0.006 A 
ATOM     28  C   UNL     1      -1.771  -1.882 -10.563  0.00  0.00    +0.010 A 
ATOM     29  C   UNL     1      -1.942  -1.038 -11.612  0.00  0.00    +0.001 A 
ATOM     30  C   UNL     1      -2.283  -1.509 -12.882  0.00  0.00    +0.002 A 
ATOM     31  C   UNL     1      -2.460  -2.830 -13.132  0.00  0.00    +0.026 A 
ATOM     32  C   UNL     1      -2.297  -3.773 -12.084  0.00  0.00    +0.043 A 
ATOM     33  N   UNL     1      -2.410  -5.087 -12.069  0.00  0.00    -0.380 N 
ATOM     34  C   UNL     1      -2.130  -5.580 -10.717  0.00  0.00    +0.152 C 
ATOM     35  H   UNL     1      -2.639  -5.640 -12.832  0.00  0.00    +0.160 HD
ENDBRANCH  24  26
BRANCH  25  36
ATOM     36  C   UNL     1      -1.585  -6.822  -8.008  0.00  0.00    +0.091 C 
ATOM     37  C   UNL     1      -1.812  -7.803  -6.857  0.00  0.00    +0.027 C 
ATOM     38  C   UNL     1      -0.480  -7.801  -7.609  0.00  0.00    +0.027 C 
ENDBRANCH  25  36
ENDBRANCH  20  21
ENDBRANCH   1  20
TORSDOF 9
