REMARK  Name = ZINC65182760
REMARK  8 active torsions:
REMARK  status: ('A' for Active; 'I' for Inactive)
REMARK    1  A    between atoms: C_1  and  C_2
REMARK    2  A    between atoms: C_7  and  C_13
REMARK    3  A    between atoms: C_9  and  C_12
REMARK    4  A    between atoms: C_16  and  C_19
REMARK    5  A    between atoms: C_19  and  C_20
REMARK    6  A    between atoms: C_20  and  N_21
REMARK    7  A    between atoms: N_21  and  C_22
REMARK    8  A    between atoms: C_23  and  C_25
REMARK                            x       y       z     vdW  Elec       q    Type
REMARK                         _______ _______ _______ _____ _____    ______ ____
ROOT
ATOM      1  C   UNL     1       1.797  -5.360   1.552  0.00  0.00    +0.318 C 
ATOM      2  N   UNL     1       2.013  -6.705   0.997  0.00  0.00    -0.291 N 
ATOM      3  C   UNL     1       1.685  -7.602   1.987  0.00  0.00    +0.139 C 
ATOM      4  N   UNL     1       1.304  -7.004   3.057  0.00  0.00    -0.072 NA
ATOM      5  O   UNL     1       1.338  -5.596   2.893  0.00  0.00    -0.367 OA
ATOM      6  H   UNL     1       2.326  -6.919   0.104  0.00  0.00    +0.151 HD
ENDROOT
BRANCH   1  13
ATOM      7  C   UNL     1       1.402   1.065  -1.350  0.00  0.00    +0.044 C 
ATOM      8  C   UNL     1       1.335  -0.430  -1.178  0.00  0.00    -0.050 A 
ATOM      9  C   UNL     1       1.640  -1.257  -2.269  0.00  0.00    +0.005 A 
ATOM     10  C   UNL     1       1.603  -2.604  -2.195  0.00  0.00    +0.026 A 
ATOM     11  C   UNL     1       1.246  -3.248  -0.979  0.00  0.00    +0.043 A 
ATOM     12  N   UNL     1       1.139  -4.516  -0.660  0.00  0.00    -0.373 N 
ATOM     13  C   UNL     1       0.733  -4.612   0.747  0.00  0.00    +0.168 C 
ATOM     14  C   UNL     1       0.608  -3.188   1.240  0.00  0.00    -0.036 C 
ATOM     15  C   UNL     1       0.920  -2.397   0.188  0.00  0.00    -0.001 A 
ATOM     16  C   UNL     1       0.990  -0.940   0.026  0.00  0.00    +0.013 A 
ATOM     17  C   UNL     1       0.214  -2.740   2.625  0.00  0.00    +0.042 C 
ATOM     18  H   UNL     1       1.301  -5.264  -1.255  0.00  0.00    +0.160 HD
ENDBRANCH   1  13
BRANCH   3  19
ATOM     19  C   UNL     1       1.762  -9.099   1.834  0.00  0.00    +0.094 C 
BRANCH  19  20
ATOM     20  C   UNL     1       1.322  -9.768   3.138  0.00  0.00    +0.115 C 
BRANCH  20  21
ATOM     21  N   UNL     1       1.397 -11.223   2.990  0.00  0.00    -0.300 N 
ATOM     22  C   UNL     1       2.634 -11.931   3.331  0.00  0.00    +0.132 C 
ATOM     23  C   UNL     1       0.329 -11.911   2.539  0.00  0.00    +0.248 C 
ATOM     24  O   UNL     1      -0.663 -11.317   2.166  0.00  0.00    -0.270 OA
BRANCH  23  25
ATOM     25  C   UNL     1       0.365 -13.387   2.499  0.00  0.00    +0.055 A 
ATOM     26  C   UNL     1       0.871 -14.106   3.585  0.00  0.00    +0.017 A 
ATOM     27  C   UNL     1       0.901 -15.482   3.543  0.00  0.00    +0.039 A 
ATOM     28  C   UNL     1       0.431 -16.156   2.425  0.00  0.00    +0.125 A 
ATOM     29  C   UNL     1      -0.073 -15.449   1.345  0.00  0.00    +0.059 A 
ATOM     30  C   UNL     1      -0.114 -14.070   1.378  0.00  0.00    +0.056 A 
ATOM     31 CL   UNL     1      -0.751 -13.185   0.027  0.00  0.00    -0.083 Cl
ATOM     32  F   UNL     1       0.464 -17.506   2.389  0.00  0.00    -0.205 F 
ENDBRANCH  23  25
ENDBRANCH  20  21
ENDBRANCH  19  20
ENDBRANCH   3  19
TORSDOF 5
