REMARK  Name = ZINC43735831
REMARK  5 active torsions:
REMARK  status: ('A' for Active; 'I' for Inactive)
REMARK    1  A    between atoms: C_1  and  C_2
REMARK    2  A    between atoms: C_5  and  O_35
REMARK    3  A    between atoms: C_18  and  C_34
REMARK    4  A    between atoms: N_24  and  N_25
REMARK    5  A    between atoms: C_26  and  C_28
REMARK                            x       y       z     vdW  Elec       q    Type
REMARK                         _______ _______ _______ _____ _____    ______ ____
ROOT
ATOM      1  C   UNL     1      -0.059   1.569  -0.156  0.00  0.00    +0.012 C 
ATOM      2  C   UNL     1      -0.022   0.036  -0.148  0.00  0.00    -0.026 C 
ATOM      3  C   UNL     1       0.644  -0.459  -1.430  0.00  0.00    +0.010 C 
ATOM      4  C   UNL     1       2.095   0.016  -1.493  0.00  0.00    +0.032 C 
ATOM      5  C   UNL     1       2.871  -0.460  -0.267  0.00  0.00    +0.115 C 
ATOM      6  C   UNL     1       2.200   0.038   1.014  0.00  0.00    +0.035 C 
ATOM      7  C   UNL     1       0.759  -0.470   1.062  0.00  0.00    -0.002 C 
ATOM      8  C   UNL     1       0.091  -0.064   2.372  0.00  0.00    +0.004 C 
ATOM      9  C   UNL     1      -1.347  -0.604   2.418  0.00  0.00    +0.004 C 
ATOM     10  C   UNL     1      -1.597  -1.399   1.142  0.00  0.00    -0.003 C 
ATOM     11  C   UNL     1      -1.467  -0.465  -0.063  0.00  0.00    -0.001 C 
ATOM     12  C   UNL     1      -1.925  -1.167  -1.329  0.00  0.00    +0.005 C 
ATOM     13  C   UNL     1      -3.420  -1.514  -1.271  0.00  0.00    +0.013 C 
ATOM     14  C   UNL     1      -3.926  -1.540   0.146  0.00  0.00    +0.011 C 
ATOM     15  C   UNL     1      -2.888  -2.151   1.107  0.00  0.00    +0.004 C 
ATOM     16  C   UNL     1      -3.699  -2.246   2.409  0.00  0.00    +0.010 C 
ATOM     17  C   UNL     1      -5.094  -2.703   1.898  0.00  0.00    +0.053 C 
ATOM     18  C   UNL     1      -5.100  -2.478   0.389  0.00  0.00    +0.043 C 
ATOM     19  N   UNL     1      -5.893  -2.955  -0.482  0.00  0.00    -0.188 NA
ATOM     20  C   UNL     1      -4.393  -0.152   0.590  0.00  0.00    +0.018 C 
ENDROOT
BRANCH  19  21
ATOM     21  N   UNL     1      -6.931  -3.811  -0.090  0.00  0.00    -0.203 N 
ATOM     22  C   UNL     1      -7.772  -4.317  -1.013  0.00  0.00    +0.263 C 
ATOM     23  O   UNL     1      -7.631  -4.030  -2.186  0.00  0.00    -0.268 OA
ATOM     24  H   UNL     1      -7.044  -4.039   0.846  0.00  0.00    +0.178 HD
BRANCH  22  25
ATOM     25  C   UNL     1      -8.869  -5.221  -0.599  0.00  0.00    +0.041 A 
ATOM     26  C   UNL     1      -9.053  -5.559   0.746  0.00  0.00    +0.033 A 
ATOM     27  C   UNL     1     -10.089  -6.406   1.087  0.00  0.00    +0.111 A 
ATOM     28  N   UNL     1     -10.897  -6.893   0.167  0.00  0.00    -0.263 NA
ATOM     29  C   UNL     1     -10.759  -6.601  -1.111  0.00  0.00    +0.111 A 
ATOM     30  C   UNL     1      -9.753  -5.757  -1.541  0.00  0.00    +0.033 A 
ENDBRANCH  22  25
ENDBRANCH  19  21
BRANCH   5  31
ATOM     31  O   UNL     1       2.924  -1.888  -0.257  0.00  0.00    -0.392 OA
ATOM     32  H   UNL     1       3.356  -2.271  -1.033  0.00  0.00    +0.210 HD
ENDBRANCH   5  31
TORSDOF 3
