REMARK  Name = ZINC39325388
REMARK  10 active torsions:
REMARK  status: ('A' for Active; 'I' for Inactive)
REMARK    1  A    between atoms: C_1  and  O_2
REMARK    2  A    between atoms: O_2  and  C_3
REMARK    3  A    between atoms: C_7  and  C_17
REMARK    4  A    between atoms: C_14  and  O_15
REMARK    5  A    between atoms: O_15  and  C_16
REMARK    6  A    between atoms: C_17  and  N_18
REMARK    7  A    between atoms: N_18  and  C_19
REMARK    8  A    between atoms: N_18  and  S_26
REMARK    9  A    between atoms: C_19  and  C_20
REMARK   10  A    between atoms: S_26  and  C_29
REMARK                            x       y       z     vdW  Elec       q    Type
REMARK                         _______ _______ _______ _____ _____    ______ ____
ROOT
ATOM      1  N   UNL     1      -8.237  -0.826   1.209  0.00  0.00    -0.171 NA
ENDROOT
BRANCH   1   2
ATOM      2  S   UNL     1      -9.424  -0.002   0.401  0.00  0.00    +0.061 S 
ATOM      3  O   UNL     1     -10.664  -0.507   0.875  0.00  0.00    -0.153 OA
ATOM      4  O   UNL     1      -9.085   1.376   0.475  0.00  0.00    -0.153 OA
BRANCH   2   5
ATOM      5  C   UNL     1      -9.311  -0.457  -1.298  0.00  0.00    +0.109 A 
ATOM      6  C   UNL     1      -8.502   0.267  -2.154  0.00  0.00    +0.032 A 
ATOM      7  C   UNL     1      -8.412  -0.086  -3.487  0.00  0.00    +0.051 A 
ATOM      8  C   UNL     1      -9.131  -1.170  -3.969  0.00  0.00    +0.162 A 
ATOM      9  C   UNL     1      -9.942  -1.899  -3.108  0.00  0.00    +0.164 A 
ATOM     10  C   UNL     1     -10.026  -1.541  -1.770  0.00  0.00    +0.078 A 
ATOM     11  O   UNL     1     -10.650  -2.971  -3.558  0.00  0.00    -0.485 OA
ATOM     12  C   UNL     1     -10.827  -3.076  -4.975  0.00  0.00    +0.270 C 
ATOM     13  C   UNL     1      -9.473  -2.817  -5.649  0.00  0.00    +0.270 C 
ATOM     14  O   UNL     1      -9.034  -1.504  -5.285  0.00  0.00    -0.485 OA
ENDBRANCH   2   5
ENDBRANCH   1   2
BRANCH   1  15
ATOM     15  C   UNL     1      -6.907  -0.230   1.363  0.00  0.00    +0.126 C 
BRANCH  15  20
ATOM     16  C   UNL     1      -1.188  -0.841   0.366  0.00  0.00    +0.162 A 
ATOM     17  C   UNL     1      -2.279  -0.033   0.406  0.00  0.00    +0.059 A 
ATOM     18  C   UNL     1      -3.610  -0.627   0.255  0.00  0.00    -0.003 A 
ATOM     19  C   UNL     1      -4.724   0.152   0.289  0.00  0.00    -0.003 C 
ATOM     20  C   UNL     1      -6.063  -0.540   0.125  0.00  0.00    +0.114 C 
ATOM     21  C   UNL     1      -6.052  -2.040  -0.065  0.00  0.00    +0.225 C 
ATOM     22  O   UNL     1      -7.099  -2.646  -0.202  0.00  0.00    -0.275 OA
ATOM     23  N   UNL     1      -4.902  -2.691  -0.081  0.00  0.00    -0.284 N 
ATOM     24  C   UNL     1      -3.721  -2.085   0.064  0.00  0.00    +0.044 A 
ATOM     25  C   UNL     1      -2.541  -2.842   0.035  0.00  0.00    +0.073 A 
ATOM     26  C   UNL     1      -1.317  -2.231   0.177  0.00  0.00    +0.163 A 
ATOM     27  H   UNL     1      -4.917  -3.653  -0.203  0.00  0.00    +0.155 HD
BRANCH  16  29
ATOM     28  C   UNL     1       0.121   1.117   0.694  0.00  0.00    +0.277 C 
ATOM     29  O   UNL     1       0.050  -0.298   0.505  0.00  0.00    -0.491 OA
ENDBRANCH  16  29
BRANCH  26  30
ATOM     30  O   UNL     1      -0.197  -2.992   0.138  0.00  0.00    -0.491 OA
ATOM     31  C   UNL     1      -0.374  -4.397  -0.056  0.00  0.00    +0.277 C 
ENDBRANCH  26  30
ENDBRANCH  15  20
ENDBRANCH   1  15
BRANCH   1  32
ATOM     32  C   UNL     1      -8.516  -2.150   1.770  0.00  0.00    +0.144 C 
BRANCH  32  33
ATOM     33  C   UNL     1      -8.930  -2.007   3.212  0.00  0.00    -0.032 A 
ATOM     34  C   UNL     1      -7.975  -2.034   4.211  0.00  0.00    +0.005 A 
ATOM     35  C   UNL     1      -8.355  -1.903   5.534  0.00  0.00    +0.000 A 
ATOM     36  C   UNL     1      -9.689  -1.744   5.857  0.00  0.00    +0.000 A 
ATOM     37  C   UNL     1     -10.644  -1.717   4.858  0.00  0.00    +0.000 A 
ATOM     38  C   UNL     1     -10.264  -1.843   3.535  0.00  0.00    +0.005 A 
ENDBRANCH  32  33
ENDBRANCH   1  32
TORSDOF 8
