REMARK  Name = ZINC35061642
REMARK  14 active torsions:
REMARK  status: ('A' for Active; 'I' for Inactive)
REMARK    1  A    between atoms: C_1  and  C_2
REMARK    2  A    between atoms: C_2  and  C_3
REMARK    3  A    between atoms: C_3  and  C_5
REMARK    4  A    between atoms: C_3  and  N_23
REMARK    5  A    between atoms: N_15  and  C_16
REMARK    6  A    between atoms: C_19  and  C_22
REMARK    7  A    between atoms: N_23  and  C_24
REMARK    8  A    between atoms: N_27  and  C_28
REMARK    9  A    between atoms: C_29  and  C_37
REMARK   10  A    between atoms: C_33  and  C_34
REMARK   11  A    between atoms: C_34  and  C_35
REMARK   12  A    between atoms: C_34  and  C_36
REMARK   13  A    between atoms: C_37  and  C_38
REMARK   14  A    between atoms: C_37  and  C_39
REMARK                            x       y       z     vdW  Elec       q    Type
REMARK                         _______ _______ _______ _____ _____    ______ ____
ROOT
ATOM      1  C   UNL     1      -2.366  -2.052   1.614  0.00  0.00    +0.143 C 
ENDROOT
BRANCH   1   2
ATOM      2  C   UNL     1      -2.301  -3.196   2.593  0.00  0.00    +0.138 A 
ATOM      3  N   UNL     1      -1.291  -3.254   3.406  0.00  0.00    -0.231 NA
ATOM      4  C   UNL     1      -1.165  -4.254   4.314  0.00  0.00    +0.078 A 
ATOM      5  C   UNL     1      -0.079  -4.317   5.189  0.00  0.00    +0.028 A 
ATOM      6  C   UNL     1       0.008  -5.349   6.096  0.00  0.00    +0.002 A 
ATOM      7  C   UNL     1      -0.972  -6.332   6.152  0.00  0.00    +0.001 A 
ATOM      8  C   UNL     1      -2.054  -6.292   5.299  0.00  0.00    +0.015 A 
ATOM      9  C   UNL     1      -2.161  -5.254   4.374  0.00  0.00    +0.065 A 
ATOM     10  C   UNL     1      -3.292  -5.160   3.440  0.00  0.00    +0.266 A 
ATOM     11  O   UNL     1      -4.183  -5.989   3.440  0.00  0.00    -0.267 OA
ATOM     12  N   UNL     1      -3.308  -4.112   2.584  0.00  0.00    -0.263 N 
BRANCH  12  13
ATOM     13  C   UNL     1      -4.365  -3.971   1.677  0.00  0.00    +0.051 A 
ATOM     14  C   UNL     1      -4.150  -4.176   0.321  0.00  0.00    +0.026 A 
ATOM     15  C   UNL     1      -5.196  -4.038  -0.572  0.00  0.00    +0.005 A 
ATOM     16  C   UNL     1      -6.455  -3.696  -0.115  0.00  0.00    -0.050 A 
ATOM     17  C   UNL     1      -6.673  -3.491   1.235  0.00  0.00    +0.005 A 
ATOM     18  C   UNL     1      -5.633  -3.633   2.133  0.00  0.00    +0.026 A 
ATOM     19  C   UNL     1      -7.594  -3.545  -1.091  0.00  0.00    +0.044 C 
ENDBRANCH  12  13
ENDBRANCH   1   2
BRANCH   1  20
ATOM     20  N   UNL     1      -2.546  -0.794   2.343  0.00  0.00    -0.278 N 
ATOM     21  C   UNL     1      -1.489  -0.306   3.232  0.00  0.00    +0.134 C 
ATOM     22  C   UNL     1      -3.683  -0.087   2.196  0.00  0.00    +0.307 C 
ATOM     23  O   UNL     1      -4.561  -0.492   1.458  0.00  0.00    -0.252 OA
ATOM     24  N   UNL     1      -3.849   1.071   2.866  0.00  0.00    -0.269 N 
ATOM     25  H   UNL     1      -3.132   1.417   3.420  0.00  0.00    +0.156 HD
BRANCH  24  26
ATOM     26  C   UNL     1      -5.055   1.773   2.764  0.00  0.00    +0.042 A 
ATOM     27  C   UNL     1      -5.822   2.006   3.897  0.00  0.00    -0.023 A 
ATOM     28  C   UNL     1      -7.012   2.700   3.792  0.00  0.00    +0.006 A 
ATOM     29  C   UNL     1      -7.439   3.162   2.561  0.00  0.00    +0.001 A 
ATOM     30  C   UNL     1      -6.677   2.930   1.430  0.00  0.00    +0.006 A 
ATOM     31  C   UNL     1      -5.484   2.242   1.529  0.00  0.00    -0.023 A 
BRANCH  31  32
ATOM     32  C   UNL     1      -4.651   1.996   0.298  0.00  0.00    +0.015 C 
ATOM     33  C   UNL     1      -5.509   1.317  -0.771  0.00  0.00    +0.012 C 
ATOM     34  C   UNL     1      -4.128   3.330  -0.239  0.00  0.00    +0.012 C 
ENDBRANCH  31  32
BRANCH  27  35
ATOM     35  C   UNL     1      -5.358   1.503   5.240  0.00  0.00    +0.015 C 
ATOM     36  C   UNL     1      -5.292   2.671   6.226  0.00  0.00    +0.012 C 
ATOM     37  C   UNL     1      -6.342   0.452   5.758  0.00  0.00    +0.012 C 
ENDBRANCH  27  35
ENDBRANCH  24  26
ENDBRANCH   1  20
BRANCH   1  39
ATOM     38  C   UNL     1      -1.179  -0.915  -0.268  0.00  0.00    +0.006 C 
ATOM     39  C   UNL     1      -1.065  -1.995   0.810  0.00  0.00    +0.027 C 
ENDBRANCH   1  39
TORSDOF 7
