REMARK  Name = ZINC13495819
REMARK  15 active torsions:
REMARK  status: ('A' for Active; 'I' for Inactive)
REMARK    1  A    between atoms: C_1  and  C_2
REMARK    2  A    between atoms: C_2  and  C_3
REMARK    3  A    between atoms: C_3  and  C_5
REMARK    4  A    between atoms: C_3  and  N_71
REMARK    5  A    between atoms: N_9  and  C_10
REMARK    6  A    between atoms: C_10  and  C_11
REMARK    7  A    between atoms: C_10  and  C_12
REMARK    8  A    between atoms: C_10  and  C_13
REMARK    9  A    between atoms: C_13  and  C_14
REMARK   10  A    between atoms: C_15  and  C_16
REMARK   11  A    between atoms: C_15  and  N_71
REMARK   12  A    between atoms: C_16  and  C_17
REMARK   13  A    between atoms: C_23  and  C_24
REMARK   14  A    between atoms: C_23  and  N_71
REMARK   15  A    between atoms: C_28  and  C_36
REMARK                            x       y       z     vdW  Elec       q    Type
REMARK                         _______ _______ _______ _____ _____    ______ ____
ROOT
ATOM      1  N   UNL     1      -0.483   1.899  -0.697  0.00  0.00    +0.389 N 
ATOM      2  H   UNL     1      -0.273   2.902  -0.641  0.00  0.00    -0.080 HD
ENDROOT
BRANCH   1   3
ATOM      3  C   UNL     1      -0.146   1.265   0.595  0.00  0.00    +0.003 C 
BRANCH   3   4
ATOM      4  C   UNL     1      -1.081   1.785   1.657  0.00  0.00    +0.139 A 
ATOM      5  N   UNL     1      -1.477   3.025   1.811  0.00  0.00    -0.115 NA
ATOM      6  N   UNL     1      -2.271   3.066   2.825  0.00  0.00    -0.023 NA
ATOM      7  N   UNL     1      -2.385   1.885   3.326  0.00  0.00    -0.043 NA
ATOM      8  N   UNL     1      -1.667   1.068   2.634  0.00  0.00    -0.225 N 
BRANCH   8   9
ATOM      9  C   UNL     1      -1.516  -0.370   2.867  0.00  0.00    +0.061 C 
ATOM     10  C   UNL     1      -2.080  -1.143   1.673  0.00  0.00    +0.036 C 
ATOM     11  C   UNL     1      -0.033  -0.707   3.037  0.00  0.00    +0.036 C 
BRANCH   9  12
ATOM     12  C   UNL     1      -2.277  -0.764   4.135  0.00  0.00    +0.026 C 
ATOM     13  C   UNL     1      -2.119  -2.266   4.378  0.00  0.00    +0.006 C 
ENDBRANCH   9  12
ENDBRANCH   8   9
ENDBRANCH   3   4
BRANCH   3  15
ATOM     14  C   UNL     1       1.431   3.148   1.051  0.00  0.00    +0.002 C 
ATOM     15  C   UNL     1       1.294   1.627   0.962  0.00  0.00    -0.011 C 
ENDBRANCH   3  15
ENDBRANCH   1   3
BRANCH   1  16
ATOM     16  C   UNL     1      -1.922   1.724  -0.986  0.00  0.00    -0.073 C 
BRANCH  16  17
ATOM     17  C   UNL     1      -2.270   2.502  -2.256  0.00  0.00    +0.016 C 
BRANCH  17  18
ATOM     18  C   UNL     1      -3.759   2.458  -2.480  0.00  0.00    -0.049 A 
ATOM     19  C   UNL     1      -4.327   1.388  -3.146  0.00  0.00    +0.003 A 
ATOM     20  C   UNL     1      -5.694   1.345  -3.348  0.00  0.00    +0.000 A 
ATOM     21  C   UNL     1      -6.492   2.377  -2.892  0.00  0.00    +0.000 A 
ATOM     22  C   UNL     1      -5.924   3.450  -2.231  0.00  0.00    +0.000 A 
ATOM     23  C   UNL     1      -4.558   3.490  -2.025  0.00  0.00    +0.003 A 
ENDBRANCH  17  18
ENDBRANCH  16  17
ENDBRANCH   1  16
BRANCH   1  24
ATOM     24  C   UNL     1       0.326   1.299  -1.779  0.00  0.00    -0.037 C 
BRANCH  24  25
ATOM     25  C   UNL     1      -0.027  -0.155  -1.959  0.00  0.00    +0.001 A 
ATOM     26  C   UNL     1      -0.947  -0.518  -2.886  0.00  0.00    +0.017 A 
ATOM     27  C   UNL     1      -1.266  -1.939  -3.036  0.00  0.00    -0.001 A 
ATOM     28  C   UNL     1      -2.207  -2.374  -3.976  0.00  0.00    +0.013 A 
ATOM     29  C   UNL     1      -2.482  -3.707  -4.091  0.00  0.00    -0.050 A 
ATOM     30  C   UNL     1      -1.838  -4.634  -3.283  0.00  0.00    +0.005 A 
ATOM     31  C   UNL     1      -0.908  -4.228  -2.350  0.00  0.00    +0.026 A 
ATOM     32  C   UNL     1      -0.611  -2.876  -2.215  0.00  0.00    +0.049 A 
ATOM     33  N   UNL     1       0.315  -2.442  -1.291  0.00  0.00    -0.322 N 
ATOM     34  H   UNL     1       0.766  -3.089  -0.726  0.00  0.00    +0.169 HD
ATOM     35  C   UNL     1       0.607  -1.135  -1.165  0.00  0.00    +0.251 A 
ATOM     36  O   UNL     1       1.434  -0.788  -0.340  0.00  0.00    -0.268 OA
ATOM     37  C   UNL     1      -3.496  -4.175  -5.103  0.00  0.00    +0.044 C 
ENDBRANCH  24  25
ENDBRANCH   1  24
TORSDOF 10
