REMARK  Name = ZINC00524961
REMARK  8 active torsions:
REMARK  status: ('A' for Active; 'I' for Inactive)
REMARK    1  A    between atoms: C_1  and  C_2
REMARK    2  A    between atoms: C_2  and  C_3
REMARK    3  A    between atoms: C_3  and  C_22
REMARK    4  A    between atoms: C_9  and  N_19
REMARK    5  A    between atoms: C_10  and  C_14
REMARK    6  A    between atoms: C_14  and  O_16
REMARK    7  A    between atoms: O_16  and  C_17
REMARK    8  A    between atoms: C_17  and  C_18
REMARK                            x       y       z     vdW  Elec       q    Type
REMARK                         _______ _______ _______ _____ _____    ______ ____
ROOT
ATOM      1  C   UNL     1       0.718  -0.497  -1.257  0.00  0.00    +0.072 C 
ATOM      2  C   UNL     1       0.655  -2.024  -1.319  0.00  0.00    +0.090 C 
ATOM      3  C   UNL     1       1.577  -2.529  -2.400  0.00  0.00    +0.051 A 
ATOM      4  C   UNL     1       2.577  -1.727  -2.925  0.00  0.00    +0.000 A 
ATOM      5  C   UNL     1       3.412  -2.216  -3.908  0.00  0.00    +0.020 A 
ATOM      6  C   UNL     1       3.233  -3.539  -4.376  0.00  0.00    +0.029 A 
ATOM      7  C   UNL     1       3.986  -4.255  -5.394  0.00  0.00    +0.055 A 
ATOM      8  C   UNL     1       3.622  -5.552  -5.686  0.00  0.00    +0.119 A 
ATOM      9  S   UNL     1       2.248  -5.851  -4.592  0.00  0.00    -0.060 S 
ATOM     10  C   UNL     1       2.183  -4.273  -3.779  0.00  0.00    +0.111 A 
ATOM     11  N   UNL     1       1.415  -3.765  -2.843  0.00  0.00    -0.244 NA
ATOM     12  C   UNL     1       2.776  -0.310  -2.450  0.00  0.00    +0.197 C 
ATOM     13  O   UNL     1       2.094  -0.102  -1.214  0.00  0.00    -0.369 OA
ATOM     14  C   UNL     1       0.050   0.100  -2.496  0.00  0.00    +0.042 C 
ENDROOT
BRANCH   7  15
ATOM     15  N   UNL     1       5.044  -3.647  -6.055  0.00  0.00    -0.356 N 
ATOM     16  H   UNL     1       5.289  -2.734  -5.840  0.00  0.00    +0.142 HD
ATOM     17  H   UNL     1       5.537  -4.136  -6.732  0.00  0.00    +0.142 HD
ENDBRANCH   7  15
BRANCH   1  19
ATOM     18  C   UNL     1      -0.019   1.526   0.010  0.00  0.00    +0.007 C 
ATOM     19  C   UNL     1       0.002  -0.004   0.002  0.00  0.00    +0.032 C 
ENDBRANCH   1  19
BRANCH   8  20
ATOM     20  C   UNL     1       4.201  -6.435  -6.628  0.00  0.00    +0.348 C 
ATOM     21  O   UNL     1       5.146  -6.070  -7.303  0.00  0.00    -0.244 OA
BRANCH  20  22
ATOM     22  O   UNL     1       3.707  -7.682  -6.777  0.00  0.00    -0.461 OA
BRANCH  22  23
ATOM     23  C   UNL     1       4.340  -8.519  -7.746  0.00  0.00    +0.229 C 
ATOM     24  C   UNL     1       3.647  -9.883  -7.773  0.00  0.00    +0.048 C 
ENDBRANCH  22  23
ENDBRANCH  20  22
ENDBRANCH   8  20
TORSDOF 5
