REMARK  Name = ZINC63182775
REMARK  10 active torsions:
REMARK  status: ('A' for Active; 'I' for Inactive)
REMARK    1  A    between atoms: C_1  and  C_2
REMARK    2  A    between atoms: C_6  and  S_8
REMARK    3  A    between atoms: S_8  and  N_11
REMARK    4  A    between atoms: N_11  and  C_12
REMARK    5  A    between atoms: C_12  and  C_14
REMARK    6  A    between atoms: C_12  and  C_24
REMARK    7  A    between atoms: C_14  and  C_15
REMARK    8  A    between atoms: N_26  and  C_27
REMARK    9  A    between atoms: C_30  and  C_33
REMARK   10  A    between atoms: C_33  and  C_34
REMARK                            x       y       z     vdW  Elec       q    Type
REMARK                         _______ _______ _______ _____ _____    ______ ____
ROOT
ATOM      1  C   UNL     1       2.651  -1.702   3.439  0.00  0.00    +0.166 C 
ENDROOT
BRANCH   1   2
ATOM      2  C   UNL     1       3.582  -2.342   4.436  0.00  0.00    +0.236 C 
ATOM      3  O   UNL     1       3.392  -3.484   4.798  0.00  0.00    -0.274 OA
ATOM      4  N   UNL     1       4.626  -1.645   4.927  0.00  0.00    -0.284 N 
ATOM      5  H   UNL     1       4.736  -0.709   4.696  0.00  0.00    +0.155 HD
BRANCH   4   6
ATOM      6  C   UNL     1       5.551  -2.270   5.770  0.00  0.00    +0.033 A 
ATOM      7  C   UNL     1       6.142  -1.558   6.805  0.00  0.00    +0.023 A 
ATOM      8  C   UNL     1       7.055  -2.179   7.635  0.00  0.00    +0.006 A 
ATOM      9  C   UNL     1       7.380  -3.508   7.437  0.00  0.00    -0.034 A 
ATOM     10  C   UNL     1       6.793  -4.220   6.407  0.00  0.00    +0.006 A 
ATOM     11  C   UNL     1       5.875  -3.607   5.577  0.00  0.00    +0.023 A 
BRANCH   9  12
ATOM     12  C   UNL     1       8.377  -4.182   8.345  0.00  0.00    +0.153 C 
BRANCH  12  13
ATOM     13  C   UNL     1       7.671  -4.780   9.489  0.00  0.00    +0.067 C 
ATOM     14  N   UNL     1       7.126  -5.242  10.373  0.00  0.00    -0.196 NA
ENDBRANCH  12  13
ENDBRANCH   9  12
ENDBRANCH   4   6
ENDBRANCH   1   2
BRANCH   1  15
ATOM     15  N   UNL     1       1.607  -2.659   3.062  0.00  0.00    -0.178 NA
ATOM     16  H   UNL     1       1.766  -3.294   2.347  0.00  0.00    +0.149 HD
BRANCH  15  17
ATOM     17  S   UNL     1       0.155  -2.655   3.859  0.00  0.00    +0.059 S 
ATOM     18  O   UNL     1       0.454  -2.627   5.248  0.00  0.00    -0.153 OA
ATOM     19  O   UNL     1      -0.634  -3.680   3.270  0.00  0.00    -0.153 OA
BRANCH  17  25
ATOM     20  C   UNL     1      -0.665   2.431   4.742  0.00  0.00    +0.044 C 
ATOM     21  C   UNL     1      -0.979   1.199   3.933  0.00  0.00    -0.049 A 
ATOM     22  C   UNL     1      -1.891   1.266   2.897  0.00  0.00    +0.003 A 
ATOM     23  C   UNL     1      -2.179   0.136   2.155  0.00  0.00    +0.002 A 
ATOM     24  C   UNL     1      -1.554  -1.061   2.449  0.00  0.00    +0.028 A 
ATOM     25  C   UNL     1      -0.641  -1.129   3.484  0.00  0.00    +0.106 A 
ATOM     26  C   UNL     1      -0.350   0.003   4.224  0.00  0.00    +0.032 A 
ENDBRANCH  17  25
ENDBRANCH  15  17
ENDBRANCH   1  15
BRANCH   1  27
ATOM     27  C   UNL     1       3.441  -1.293   2.194  0.00  0.00    +0.063 C 
BRANCH  27  28
ATOM     28  C   UNL     1       2.522  -0.598   1.222  0.00  0.00    -0.040 C 
ATOM     29  C   UNL     1       2.330   0.735   1.097  0.00  0.00    -0.001 A 
ATOM     30  C   UNL     1       2.895   1.892   1.802  0.00  0.00    +0.010 A 
ATOM     31  C   UNL     1       2.498   3.135   1.446  0.00  0.00    +0.001 A 
ATOM     32  C   UNL     1       1.563   3.345   0.423  0.00  0.00    +0.002 A 
ATOM     33  C   UNL     1       1.000   2.333  -0.270  0.00  0.00    +0.026 A 
ATOM     34  C   UNL     1       1.344   0.984   0.021  0.00  0.00    +0.043 A 
ATOM     35  N   UNL     1       0.943  -0.150  -0.499  0.00  0.00    -0.380 N 
ATOM     36  C   UNL     1       1.635  -1.249   0.185  0.00  0.00    +0.144 C 
ATOM     37  H   UNL     1       0.300  -0.247  -1.219  0.00  0.00    +0.160 HD
ENDBRANCH  27  28
ENDBRANCH   1  27
TORSDOF 9
