REMARK  Name = ZINC40301532
REMARK  4 active torsions:
REMARK  status: ('A' for Active; 'I' for Inactive)
REMARK    1  A    between atoms: C_1  and  C_2
REMARK    2  A    between atoms: C_12  and  C_14
REMARK    3  A    between atoms: C_17  and  N_21
REMARK    4  A    between atoms: C_19  and  N_20
REMARK                            x       y       z     vdW  Elec       q    Type
REMARK                         _______ _______ _______ _____ _____    ______ ____
ROOT
ATOM      1  C   UNL     1       0.722   1.546  -1.805  0.00  0.00    +0.044 C 
ATOM      2  C   UNL     1       0.655   0.067  -1.522  0.00  0.00    -0.050 A 
ATOM      3  C   UNL     1       0.367  -0.819  -2.545  0.00  0.00    +0.005 A 
ATOM      4  C   UNL     1       0.304  -2.173  -2.285  0.00  0.00    +0.024 A 
ATOM      5  C   UNL     1       0.531  -2.646  -0.997  0.00  0.00    +0.040 A 
ATOM      6  C   UNL     1       0.823  -1.758   0.026  0.00  0.00    -0.026 A 
ATOM      7  C   UNL     1       0.887  -0.401  -0.243  0.00  0.00    +0.008 A 
ATOM      8  C   UNL     1       1.085  -2.235   1.431  0.00  0.00    +0.038 C 
ATOM      9  C   UNL     1       0.496  -3.630   1.641  0.00  0.00    +0.024 C 
ATOM     10  C   UNL     1       0.984  -4.549   0.514  0.00  0.00    +0.114 C 
ATOM     11  N   UNL     1       0.458  -4.023  -0.753  0.00  0.00    -0.267 N 
ATOM     12  C   UNL     1      -0.086  -4.853  -1.666  0.00  0.00    +0.253 C 
ATOM     13  O   UNL     1      -0.622  -4.397  -2.659  0.00  0.00    -0.270 OA
ENDROOT
BRANCH  12  14
ATOM     14  C   UNL     1      -0.033  -6.308  -1.461  0.00  0.00    +0.058 A 
ATOM     15  C   UNL     1       1.169  -6.922  -1.094  0.00  0.00    +0.017 A 
ATOM     16  C   UNL     1       1.219  -8.273  -0.904  0.00  0.00    +0.023 A 
ATOM     17  C   UNL     1       0.074  -9.051  -1.075  0.00  0.00    +0.026 A 
ATOM     18  C   UNL     1      -1.127  -8.459  -1.439  0.00  0.00    +0.046 A 
ATOM     19  C   UNL     1      -1.191  -7.088  -1.629  0.00  0.00    +0.039 A 
BRANCH  19  20
ATOM     20  N   UNL     1      -2.391  -6.487  -1.988  0.00  0.00    -0.357 N 
ATOM     21  H   UNL     1      -2.457  -5.520  -2.029  0.00  0.00    +0.142 HD
ATOM     22  H   UNL     1      -3.164  -7.035  -2.197  0.00  0.00    +0.142 HD
ENDBRANCH  19  20
BRANCH  17  23
ATOM     23  N   UNL     1       0.138 -10.427  -0.879  0.00  0.00    -0.358 N 
ATOM     24  H   UNL     1       0.976 -10.843  -0.624  0.00  0.00    +0.142 HD
ATOM     25  H   UNL     1      -0.657 -10.970  -0.997  0.00  0.00    +0.142 HD
ENDBRANCH  17  23
ENDBRANCH  12  14
TORSDOF 3
