REMARK  Name = ZINC34917200
REMARK  18 active torsions:
REMARK  status: ('A' for Active; 'I' for Inactive)
REMARK    1  A    between atoms: C_1  and  C_2
REMARK    2  A    between atoms: C_2  and  C_3
REMARK    3  A    between atoms: C_3  and  C_4
REMARK    4  A    between atoms: C_4  and  C_5
REMARK    5  A    between atoms: C_5  and  O_6
REMARK    6  A    between atoms: O_6  and  C_7
REMARK    7  A    between atoms: C_10  and  C_16
REMARK    8  A    between atoms: C_12  and  O_13
REMARK    9  A    between atoms: O_13  and  C_14
REMARK   10  A    between atoms: C_14  and  C_15
REMARK   11  A    between atoms: C_18  and  C_29
REMARK   12  A    between atoms: N_22  and  C_23
REMARK   13  A    between atoms: C_23  and  C_24
REMARK   14  A    between atoms: C_24  and  C_25
REMARK   15  A    between atoms: C_25  and  O_26
REMARK   16  A    between atoms: O_26  and  C_27
REMARK   17  A    between atoms: C_29  and  C_31
REMARK   18  A    between atoms: C_34  and  C_36
REMARK                            x       y       z     vdW  Elec       q    Type
REMARK                         _______ _______ _______ _____ _____    ______ ____
ROOT
ATOM      1  C   UNL     1      -7.558  -6.512   0.113  0.00  0.00    +0.145 C 
ATOM      2  C   UNL     1      -8.412  -6.684  -1.122  0.00  0.00    +0.079 C 
ATOM      3  C   UNL     1      -9.655  -6.258  -0.799  0.00  0.00    +0.249 C 
ATOM      4  C   UNL     1      -9.665  -5.808   0.607  0.00  0.00    +0.288 C 
ATOM      5  O   UNL     1     -10.636  -5.370   1.192  0.00  0.00    -0.266 OA
ATOM      6  N   UNL     1      -8.440  -5.956   1.146  0.00  0.00    -0.283 N 
ATOM      7  O   UNL     1     -10.721  -6.247  -1.634  0.00  0.00    -0.282 OA
ENDROOT
BRANCH   1  11
ATOM      8  C   UNL     1      -4.337  -3.816  -0.686  0.00  0.00    +0.162 A 
ATOM      9  C   UNL     1      -4.080  -5.067  -0.149  0.00  0.00    +0.050 A 
ATOM     10  C   UNL     1      -5.123  -5.936   0.108  0.00  0.00    +0.009 A 
ATOM     11  C   UNL     1      -6.425  -5.561  -0.169  0.00  0.00    -0.019 A 
ATOM     12  C   UNL     1      -6.688  -4.314  -0.706  0.00  0.00    +0.055 A 
ATOM     13  C   UNL     1      -5.647  -3.435  -0.960  0.00  0.00    +0.162 A 
BRANCH   8  14
ATOM     14  O   UNL     1      -3.311  -2.959  -0.939  0.00  0.00    -0.488 OA
BRANCH  14  15
ATOM     15  C   UNL     1      -1.992  -3.417  -0.632  0.00  0.00    +0.229 C 
BRANCH  15  16
ATOM     16  C   UNL     1      -0.979  -2.326  -0.982  0.00  0.00    +0.041 C 
BRANCH  16  17
ATOM     17  C   UNL     1       0.432  -2.816  -0.654  0.00  0.00    +0.003 C 
BRANCH  17  19
ATOM     18  C   UNL     1       2.857  -2.215  -0.675  0.00  0.00    +0.004 C 
ATOM     19  C   UNL     1       1.446  -1.724  -1.004  0.00  0.00    -0.003 C 
ENDBRANCH  17  19
ENDBRANCH  16  17
ENDBRANCH  15  16
ENDBRANCH  14  15
ENDBRANCH   8  14
BRANCH  13  20
ATOM     20  O   UNL     1      -5.904  -2.206  -1.482  0.00  0.00    -0.489 OA
BRANCH  20  21
ATOM     21  C   UNL     1      -7.277  -1.845  -1.644  0.00  0.00    +0.226 C 
ATOM     22  C   UNL     1      -7.368  -0.481  -2.332  0.00  0.00    +0.048 C 
ENDBRANCH  20  21
ENDBRANCH  13  20
ENDBRANCH   1  11
BRANCH   2  23
ATOM     23  C   UNL     1      -7.977  -7.210  -2.421  0.00  0.00    +0.230 C 
ATOM     24  O   UNL     1      -8.732  -7.176  -3.377  0.00  0.00    -0.283 OA
BRANCH  23  25
ATOM     25  C   UNL     1      -6.633  -7.775  -2.570  0.00  0.00    +0.175 A 
ATOM     26  C   UNL     1      -6.041  -8.164  -3.753  0.00  0.00    +0.053 A 
ATOM     27  C   UNL     1      -4.765  -8.641  -3.423  0.00  0.00    +0.045 A 
ATOM     28  C   UNL     1      -4.630  -8.528  -2.082  0.00  0.00    +0.103 A 
ATOM     29  O   UNL     1      -5.752  -8.003  -1.574  0.00  0.00    -0.457 OA
ATOM     30  C   UNL     1      -3.411  -8.924  -1.289  0.00  0.00    +0.086 C 
ENDBRANCH  23  25
ENDBRANCH   2  23
BRANCH   6  31
ATOM     31  C   UNL     1      -8.054  -5.620   2.519  0.00  0.00    +0.111 C 
BRANCH  31  32
ATOM     32  C   UNL     1      -7.573  -4.168   2.573  0.00  0.00    +0.047 C 
BRANCH  32  33
ATOM     33  C   UNL     1      -7.170  -3.818   4.007  0.00  0.00    +0.161 C 
BRANCH  33  34
ATOM     34  O   UNL     1      -6.721  -2.462   4.058  0.00  0.00    -0.383 OA
ATOM     35  C   UNL     1      -6.319  -2.031   5.359  0.00  0.00    +0.193 C 
ENDBRANCH  33  34
ENDBRANCH  32  33
ENDBRANCH  31  32
ENDBRANCH   6  31
TORSDOF 14
