REMARK  Name = ZINC66271913
REMARK  9 active torsions:
REMARK  status: ('A' for Active; 'I' for Inactive)
REMARK    1  A    between atoms: C_1  and  C_2
REMARK    2  A    between atoms: C_2  and  C_4
REMARK    3  A    between atoms: C_2  and  N_22
REMARK    4  A    between atoms: C_4  and  C_5
REMARK    5  A    between atoms: N_7  and  C_8
REMARK    6  A    between atoms: C_8  and  C_9
REMARK    7  A    between atoms: C_9  and  C_11
REMARK    8  A    between atoms: C_9  and  N_16
REMARK    9  A    between atoms: C_23  and  C_25
REMARK                            x       y       z     vdW  Elec       q    Type
REMARK                         _______ _______ _______ _____ _____    ______ ____
ROOT
ATOM      1  C   UNL     1      -1.333  -2.316   0.873  0.00  0.00    +0.215 C 
ATOM      2  O   UNL     1      -0.364  -3.009   1.104  0.00  0.00    -0.276 OA
ATOM      3  N   UNL     1      -2.476  -2.880   0.437  0.00  0.00    -0.316 N 
ATOM      4  H   UNL     1      -3.251  -2.326   0.252  0.00  0.00    +0.149 HD
ENDROOT
BRANCH   1   5
ATOM      5  C   UNL     1      -1.256  -0.824   1.073  0.00  0.00    +0.117 C 
BRANCH   5   7
ATOM      6  C   UNL     1       0.258   1.076   1.652  0.00  0.00    +0.028 C 
ATOM      7  C   UNL     1       0.141  -0.447   1.568  0.00  0.00    +0.079 C 
BRANCH   7   8
ATOM      8  N   UNL     1       0.362  -1.027   2.895  0.00  0.00    -0.312 N 
ATOM      9  C   UNL     1       1.616  -1.276   3.322  0.00  0.00    +0.216 C 
ATOM     10  O   UNL     1       2.561  -1.020   2.607  0.00  0.00    -0.276 OA
ATOM     11  H   UNL     1      -0.395  -1.232   3.467  0.00  0.00    +0.149 HD
BRANCH   9  12
ATOM     12  C   UNL     1       1.843  -1.873   4.687  0.00  0.00    +0.075 C 
ATOM     13  C   UNL     1       1.268  -0.940   5.754  0.00  0.00    +0.013 C 
ATOM     14  C   UNL     1       1.498  -1.546   7.140  0.00  0.00    +0.001 C 
ATOM     15  C   UNL     1       2.999  -1.726   7.374  0.00  0.00    +0.000 C 
ATOM     16  C   UNL     1       3.574  -2.660   6.307  0.00  0.00    +0.001 C 
ATOM     17  C   UNL     1       3.344  -2.054   4.921  0.00  0.00    +0.013 C 
ENDBRANCH   9  12
ENDBRANCH   7   8
ENDBRANCH   5   7
ENDBRANCH   1   5
BRANCH   3  18
ATOM     18  C   UNL     1      -2.550  -4.330   0.243  0.00  0.00    +0.096 C 
BRANCH  18  19
ATOM     19  C   UNL     1      -3.982  -4.723  -0.126  0.00  0.00    +0.016 C 
BRANCH  19  20
ATOM     20  N   UNL     1      -4.903  -4.258   0.920  0.00  0.00    +0.387 N 
ATOM     21  C   UNL     1      -4.473  -4.787   2.220  0.00  0.00    -0.078 C 
ATOM     22  C   UNL     1      -5.380  -4.240   3.324  0.00  0.00    -0.019 C 
ATOM     23  C   UNL     1      -6.824  -4.668   3.049  0.00  0.00    -0.004 C 
ATOM     24  C   UNL     1      -7.237  -4.174   1.660  0.00  0.00    -0.019 C 
ATOM     25  C   UNL     1      -6.261  -4.724   0.617  0.00  0.00    -0.078 C 
ATOM     26  H   UNL     1      -4.893  -3.249   0.950  0.00  0.00    -0.081 HD
ENDBRANCH  19  20
BRANCH  19  27
ATOM     27  C   UNL     1      -4.077  -6.222  -0.247  0.00  0.00    +0.093 A 
ATOM     28  C   UNL     1      -4.220  -6.911  -1.393  0.00  0.00    +0.043 A 
ATOM     29  C   UNL     1      -4.264  -8.281  -1.045  0.00  0.00    +0.041 A 
ATOM     30  C   UNL     1      -4.145  -8.347   0.293  0.00  0.00    +0.195 A 
ATOM     31  O   UNL     1      -4.026  -7.097   0.771  0.00  0.00    -0.469 OA
ENDBRANCH  19  27
ENDBRANCH  18  19
ENDBRANCH   3  18
TORSDOF 8
