REMARK  Name = ZINC63069445
REMARK  5 active torsions:
REMARK  status: ('A' for Active; 'I' for Inactive)
REMARK    1  A    between atoms: C_7  and  C_10
REMARK    2  A    between atoms: C_10  and  C_11
REMARK    3  A    between atoms: C_11  and  C_12
REMARK    4  A    between atoms: C_12  and  C_13
REMARK    5  A    between atoms: N_15  and  C_16
REMARK                            x       y       z     vdW  Elec       q    Type
REMARK                         _______ _______ _______ _____ _____    ______ ____
ROOT
ATOM      1  C   UNL     1      -0.725  -5.313  -2.876  0.00  0.00    +0.217 C 
ATOM      2  O   UNL     1      -0.181  -4.740  -3.797  0.00  0.00    -0.275 OA
ATOM      3  N   UNL     1      -1.542  -6.356  -3.120  0.00  0.00    -0.284 N 
ATOM      4  H   UNL     1      -1.925  -6.856  -2.382  0.00  0.00    +0.155 HD
ENDROOT
BRANCH   3   5
ATOM      5  C   UNL     1      -1.840  -6.719  -4.441  0.00  0.00    +0.056 A 
ATOM      6  C   UNL     1      -0.877  -6.585  -5.432  0.00  0.00    +0.074 A 
ATOM      7  C   UNL     1      -1.171  -6.944  -6.736  0.00  0.00    +0.168 A 
ATOM      8  C   UNL     1      -2.434  -7.439  -7.052  0.00  0.00    +0.168 A 
ATOM      9  C   UNL     1      -3.393  -7.571  -6.061  0.00  0.00    +0.071 A 
ATOM     10  C   UNL     1      -3.097  -7.219  -4.758  0.00  0.00    +0.066 A 
ATOM     11 CL   UNL     1      -4.298  -7.393  -3.517  0.00  0.00    -0.082 Cl
ATOM     12  O   UNL     1      -2.471  -7.716  -8.389  0.00  0.00    -0.453 OA
ATOM     13  C   UNL     1      -1.358  -7.004  -8.961  0.00  0.00    +0.466 C 
ATOM     14  O   UNL     1      -0.418  -6.911  -7.875  0.00  0.00    -0.453 OA
ENDBRANCH   3   5
BRANCH   1  15
ATOM     15  C   UNL     1      -0.484  -4.859  -1.460  0.00  0.00    +0.096 C 
BRANCH  15  16
ATOM     16  C   UNL     1       0.475  -3.667  -1.461  0.00  0.00    +0.014 C 
BRANCH  16  17
ATOM     17  C   UNL     1       0.719  -3.206  -0.023  0.00  0.00    +0.033 C 
BRANCH  17  24
ATOM     18  C   UNL     1       0.027   1.329   0.034  0.00  0.00    +0.001 A 
ATOM     19  C   UNL     1       1.212   2.079   0.023  0.00  0.00    +0.002 A 
ATOM     20  C   UNL     1       2.435   1.508  -0.001  0.00  0.00    +0.026 A 
ATOM     21  C   UNL     1       2.568   0.093  -0.017  0.00  0.00    +0.043 A 
ATOM     22  N   UNL     1       3.623  -0.685  -0.041  0.00  0.00    -0.380 N 
ATOM     23  C   UNL     1       3.175  -2.082  -0.049  0.00  0.00    +0.144 C 
ATOM     24  C   UNL     1       1.663  -2.033  -0.025  0.00  0.00    -0.042 C 
ATOM     25  C   UNL     1       1.331  -0.721  -0.006  0.00  0.00    -0.001 A 
ATOM     26  C   UNL     1       0.041  -0.023   0.021  0.00  0.00    +0.010 A 
ATOM     27  H   UNL     1       4.546  -0.387  -0.053  0.00  0.00    +0.160 HD
ENDBRANCH  17  24
ENDBRANCH  16  17
ENDBRANCH  15  16
ENDBRANCH   1  15
TORSDOF 5
