REMARK  Name = ZINC14035098
REMARK  10 active torsions:
REMARK  status: ('A' for Active; 'I' for Inactive)
REMARK    1  A    between atoms: C_1  and  C_2
REMARK    2  A    between atoms: C_2  and  C_3
REMARK    3  A    between atoms: C_2  and  C_4
REMARK    4  A    between atoms: C_4  and  O_5
REMARK    5  A    between atoms: O_5  and  C_6
REMARK    6  A    between atoms: C_11  and  C_12
REMARK    7  A    between atoms: N_14  and  C_15
REMARK    8  A    between atoms: C_15  and  N_17
REMARK    9  A    between atoms: N_17  and  C_18
REMARK   10  A    between atoms: C_19  and  C_27
REMARK                            x       y       z     vdW  Elec       q    Type
REMARK                         _______ _______ _______ _____ _____    ______ ____
ROOT
ATOM      1  C   UNL     1      -4.825  -0.059   0.050  0.00  0.00    +0.141 C 
ATOM      2  S   UNL     1      -4.859   1.653   0.060  0.00  0.00    -0.018 S 
ENDROOT
BRANCH   1   5
ATOM      3  C   UNL     1      -2.491  -0.013   0.027  0.00  0.00    +0.253 C 
ATOM      4  O   UNL     1      -2.515   1.203   0.034  0.00  0.00    -0.270 OA
ATOM      5  N   UNL     1      -3.645  -0.709   0.034  0.00  0.00    -0.263 N 
ATOM      6  H   UNL     1      -3.626  -1.679   0.028  0.00  0.00    +0.157 HD
BRANCH   3  12
ATOM      7  C   UNL     1       0.002  -0.004   0.002  0.00  0.00    +0.133 A 
ATOM      8  C   UNL     1       1.211  -0.684  -0.019  0.00  0.00    +0.046 A 
ATOM      9  C   UNL     1       1.228  -2.065  -0.022  0.00  0.00    +0.004 A 
ATOM     10  C   UNL     1       0.042  -2.781  -0.014  0.00  0.00    +0.001 A 
ATOM     11  C   UNL     1      -1.168  -2.122   0.001  0.00  0.00    +0.017 A 
ATOM     12  C   UNL     1      -1.200  -0.725   0.010  0.00  0.00    +0.079 A 
BRANCH   7  13
ATOM     13  O   UNL     1      -0.016   1.352   0.009  0.00  0.00    -0.491 OA
BRANCH  13  14
ATOM     14  C   UNL     1       1.248   2.018   0.001  0.00  0.00    +0.232 C 
BRANCH  14  16
ATOM     15  C   UNL     1       2.376   4.244   0.128  0.00  0.00    +0.010 C 
ATOM     16  C   UNL     1       1.027   3.532   0.011  0.00  0.00    +0.020 C 
ATOM     17  C   UNL     1       0.338   3.956  -1.287  0.00  0.00    +0.010 C 
ENDBRANCH  14  16
ENDBRANCH  13  14
ENDBRANCH   7  13
ENDBRANCH   3  12
ENDBRANCH   1   5
BRANCH   1  18
ATOM     18  N   UNL     1      -5.979  -0.755   0.057  0.00  0.00    -0.291 N 
ATOM     19  H   UNL     1      -5.960  -1.725   0.051  0.00  0.00    +0.154 HD
BRANCH  18  20
ATOM     20  C   UNL     1      -7.192  -0.086   0.073  0.00  0.00    +0.084 A 
ATOM     21  C   UNL     1      -8.473  -0.622   0.077  0.00  0.00    +0.068 A 
ATOM     22  C   UNL     1      -9.589   0.307   0.098  0.00  0.00    -0.023 A 
ATOM     23  C   UNL     1      -9.250   1.615   0.102  0.00  0.00    -0.004 A 
ATOM     24  S   UNL     1      -7.479   1.622   0.086  0.00  0.00    -0.077 S 
ATOM     25  C   UNL     1     -10.179   2.789   0.118  0.00  0.00    +0.043 C 
ATOM     26  C   UNL     1     -11.586   2.298  -0.249  0.00  0.00    +0.005 C 
ATOM     27  C   UNL     1     -11.907   1.053   0.583  0.00  0.00    +0.005 C 
ATOM     28  C   UNL     1     -11.051  -0.123   0.111  0.00  0.00    +0.037 C 
BRANCH  21  29
ATOM     29  C   UNL     1      -8.690  -2.072   0.064  0.00  0.00    +0.244 C 
ATOM     30  O   UNL     1      -8.774  -2.684   1.112  0.00  0.00    -0.270 OA
ATOM     31  N   UNL     1      -8.798  -2.726  -1.109  0.00  0.00    -0.325 N 
ATOM     32  H   UNL     1      -8.732  -2.238  -1.945  0.00  0.00    +0.145 HD
ATOM     33  H   UNL     1      -8.942  -3.686  -1.118  0.00  0.00    +0.145 HD
ENDBRANCH  21  29
ENDBRANCH  18  20
ENDBRANCH   1  18
TORSDOF 8
