REMARK  Name = ZINC38545969
REMARK  5 active torsions:
REMARK  status: ('A' for Active; 'I' for Inactive)
REMARK    1  A    between atoms: C_5  and  C_7
REMARK    2  A    between atoms: C_7  and  C_9
REMARK    3  A    between atoms: C_7  and  N_26
REMARK    4  A    between atoms: C_13  and  N_14
REMARK    5  A    between atoms: C_15  and  C_17
REMARK                            x       y       z     vdW  Elec       q    Type
REMARK                         _______ _______ _______ _____ _____    ______ ____
ROOT
ATOM      1  C   UNL     1       1.472  -2.727   1.332  0.00  0.00    -0.025 A 
ATOM      2  C   UNL     1       2.752  -3.132   1.713  0.00  0.00    -0.033 A 
ATOM      3  C   UNL     1       2.896  -3.571   2.993  0.00  0.00    -0.005 A 
ATOM      4  S   UNL     1       1.268  -3.425   3.679  0.00  0.00    -0.078 S 
ATOM      5  C   UNL     1       0.451  -2.778   2.228  0.00  0.00    +0.074 A 
ATOM      6  C   UNL     1       4.145  -4.060   3.652  0.00  0.00    +0.043 C 
ATOM      7  C   UNL     1       5.188  -4.345   2.562  0.00  0.00    +0.005 C 
ATOM      8  C   UNL     1       5.234  -3.151   1.603  0.00  0.00    +0.005 C 
ATOM      9  C   UNL     1       3.952  -3.099   0.771  0.00  0.00    +0.036 C 
ENDROOT
BRANCH   5  10
ATOM     10  N   UNL     1      -0.888  -2.420   2.058  0.00  0.00    -0.273 N 
ATOM     11  C   UNL     1      -1.780  -2.664   3.039  0.00  0.00    +0.284 C 
ATOM     12  O   UNL     1      -1.419  -3.196   4.072  0.00  0.00    -0.266 OA
ATOM     13  H   UNL     1      -1.175  -1.996   1.235  0.00  0.00    +0.156 HD
BRANCH  11  14
ATOM     14  C   UNL     1      -3.186  -2.288   2.860  0.00  0.00    +0.189 A 
ATOM     15  C   UNL     1      -4.188  -2.472   3.770  0.00  0.00    +0.054 A 
ATOM     16  C   UNL     1      -5.361  -1.968   3.187  0.00  0.00    +0.042 A 
ATOM     17  C   UNL     1      -5.028  -1.505   1.962  0.00  0.00    +0.196 A 
ATOM     18  O   UNL     1      -3.716  -1.695   1.770  0.00  0.00    -0.458 OA
ENDBRANCH  11  14
ENDBRANCH   5  10
BRANCH   1  19
ATOM     19  C   UNL     1       1.224  -2.228  -0.068  0.00  0.00    -0.001 C 
BRANCH  19  24
ATOM     20  C   UNL     1      -0.597   1.079  -0.046  0.00  0.00    +0.000 A 
ATOM     21  C   UNL     1       0.454   1.974   0.033  0.00  0.00    +0.003 A 
ATOM     22  C   UNL     1       1.755   1.511   0.079  0.00  0.00    +0.038 A 
ATOM     23  C   UNL     1       2.006   0.149   0.047  0.00  0.00    +0.125 A 
ATOM     24  C   UNL     1       0.953  -0.746  -0.032  0.00  0.00    -0.021 A 
ATOM     25  C   UNL     1      -0.348  -0.280  -0.078  0.00  0.00    +0.005 A 
ATOM     26  F   UNL     1       3.277  -0.305   0.091  0.00  0.00    -0.205 F 
ENDBRANCH  19  24
BRANCH  19  27
ATOM     27  N   UNL     1       0.063  -2.925  -0.638  0.00  0.00    +0.387 N 
ATOM     28  C   UNL     1       0.271  -4.375  -0.546  0.00  0.00    -0.078 C 
ATOM     29  C   UNL     1      -0.969  -5.106  -1.063  0.00  0.00    -0.019 C 
ATOM     30  C   UNL     1      -1.213  -4.715  -2.524  0.00  0.00    -0.004 C 
ATOM     31  C   UNL     1      -1.354  -3.193  -2.618  0.00  0.00    -0.019 C 
ATOM     32  C   UNL     1      -0.100  -2.533  -2.043  0.00  0.00    -0.078 C 
ATOM     33  H   UNL     1      -0.766  -2.672  -0.121  0.00  0.00    -0.080 HD
ENDBRANCH  19  27
ENDBRANCH   1  19
TORSDOF 5
