REMARK  Name = ZINC35426986
REMARK  6 active torsions:
REMARK  status: ('A' for Active; 'I' for Inactive)
REMARK    1  A    between atoms: C_1  and  C_2
REMARK    2  A    between atoms: C_6  and  N_8
REMARK    3  A    between atoms: C_23  and  C_25
REMARK    4  A    between atoms: C_28  and  O_31
REMARK    5  A    between atoms: O_31  and  C_32
REMARK    6  A    between atoms: N_34  and  C_37
REMARK                            x       y       z     vdW  Elec       q    Type
REMARK                         _______ _______ _______ _____ _____    ______ ____
ROOT
ATOM      1  N   UNL     1       0.055  -3.189   1.582  0.00  0.00    -0.269 N 
ATOM      2  C   UNL     1       0.004  -4.497   1.903  0.00  0.00    +0.308 C 
ATOM      3  O   UNL     1       0.096  -5.341   1.032  0.00  0.00    -0.252 OA
ATOM      4  N   UNL     1      -0.151  -4.870   3.189  0.00  0.00    -0.268 N 
ATOM      5  C   UNL     1      -0.273  -3.877   4.271  0.00  0.00    +0.148 C 
ATOM      6  C   UNL     1      -1.295  -4.271   5.314  0.00  0.00    +0.004 A 
ATOM      7  C   UNL     1      -2.520  -3.599   5.486  0.00  0.00    -0.034 A 
ATOM      8  C   UNL     1      -3.349  -4.032   6.474  0.00  0.00    -0.021 A 
ATOM      9  S   UNL     1      -2.471  -5.392   7.197  0.00  0.00    -0.077 S 
ATOM     10  C   UNL     1      -1.054  -5.322   6.145  0.00  0.00    +0.090 A 
ATOM     11  N   UNL     1       0.082  -6.120   6.082  0.00  0.00    -0.312 N 
ATOM     12  C   UNL     1       0.910  -6.578   7.048  0.00  0.00    +0.092 A 
ATOM     13  C   UNL     1       1.913  -7.262   6.451  0.00  0.00    +0.020 A 
ATOM     14  C   UNL     1       1.675  -7.236   5.059  0.00  0.00    +0.025 A 
ATOM     15  C   UNL     1       0.538  -6.554   4.859  0.00  0.00    +0.049 A 
ATOM     16  C   UNL     1      -0.212  -6.298   3.582  0.00  0.00    +0.155 C 
ATOM     17  C   UNL     1      -4.682  -3.466   6.838  0.00  0.00    -0.036 C 
ATOM     18  N   UNL     1      -4.811  -2.139   6.206  0.00  0.00    +0.381 N 
ATOM     19  C   UNL     1      -4.463  -2.241   4.782  0.00  0.00    -0.074 C 
ATOM     20  C   UNL     1      -2.951  -2.420   4.616  0.00  0.00    +0.018 C 
ATOM     21  C   UNL     1      -6.195  -1.666   6.339  0.00  0.00    -0.096 C 
ATOM     22  H   UNL     1       0.055  -2.518   2.282  0.00  0.00    +0.156 HD
ATOM     23  H   UNL     1      -4.187  -1.489   6.659  0.00  0.00    -0.082 HD
ENDROOT
BRANCH   1  29
ATOM     24  C   UNL     1      -1.151  -4.008  -3.114  0.00  0.00    +0.044 C 
ATOM     25  C   UNL     1      -0.466  -3.178  -2.058  0.00  0.00    -0.049 A 
ATOM     26  C   UNL     1       0.217  -2.031  -2.417  0.00  0.00    +0.003 A 
ATOM     27  C   UNL     1       0.846  -1.267  -1.452  0.00  0.00    +0.002 A 
ATOM     28  C   UNL     1       0.795  -1.648  -0.125  0.00  0.00    +0.023 A 
ATOM     29  C   UNL     1       0.110  -2.800   0.238  0.00  0.00    +0.035 A 
ATOM     30  C   UNL     1      -0.527  -3.562  -0.733  0.00  0.00    +0.026 A 
ENDBRANCH   1  29
BRANCH  16  31
ATOM     31  C   UNL     1      -1.655  -6.695   3.766  0.00  0.00    -0.021 A 
ATOM     32  C   UNL     1      -2.651  -6.006   3.099  0.00  0.00    +0.009 A 
ATOM     33  C   UNL     1      -3.973  -6.367   3.267  0.00  0.00    +0.046 A 
ATOM     34  C   UNL     1      -4.302  -7.423   4.106  0.00  0.00    +0.120 A 
ATOM     35  C   UNL     1      -3.301  -8.112   4.774  0.00  0.00    +0.046 A 
ATOM     36  C   UNL     1      -1.979  -7.750   4.598  0.00  0.00    +0.009 A 
BRANCH  34  37
ATOM     37  O   UNL     1      -5.603  -7.780   4.273  0.00  0.00    -0.495 OA
ATOM     38  C   UNL     1      -5.867  -8.875   5.151  0.00  0.00    +0.277 C 
ENDBRANCH  34  37
ENDBRANCH  16  31
TORSDOF 3
