REMARK  Name = ZINC59983621
REMARK  11 active torsions:
REMARK  status: ('A' for Active; 'I' for Inactive)
REMARK    1  A    between atoms: C_1  and  C_2
REMARK    2  A    between atoms: N_7  and  C_9
REMARK    3  A    between atoms: C_9  and  C_10
REMARK    4  A    between atoms: C_9  and  C_11
REMARK    5  A    between atoms: C_9  and  C_12
REMARK    6  A    between atoms: C_12  and  N_13
REMARK    7  A    between atoms: C_14  and  C_16
REMARK    8  A    between atoms: C_16  and  N_17
REMARK    9  A    between atoms: N_17  and  C_18
REMARK   10  A    between atoms: N_17  and  S_19
REMARK   11  A    between atoms: S_19  and  C_22
REMARK                            x       y       z     vdW  Elec       q    Type
REMARK                         _______ _______ _______ _____ _____    ______ ____
ROOT
ATOM      1  N   UNL     1       2.186  -4.461   1.142  0.00  0.00    -0.316 N 
ATOM      2  C   UNL     1       2.321  -5.782   0.914  0.00  0.00    +0.229 C 
ATOM      3  O   UNL     1       1.925  -6.582   1.736  0.00  0.00    -0.274 OA
ATOM      4  H   UNL     1       2.502  -3.821   0.485  0.00  0.00    +0.149 HD
ENDROOT
BRANCH   1   5
ATOM      5  C   UNL     1       1.562  -3.991   2.382  0.00  0.00    +0.092 C 
BRANCH   5   6
ATOM      6  C   UNL     1       1.534  -2.461   2.390  0.00  0.00    -0.055 C 
ATOM      7  C   UNL     1       2.963  -1.924   2.303  0.00  0.00    -0.008 C 
ATOM      8  C   UNL     1       0.882  -1.970   3.685  0.00  0.00    -0.008 C 
BRANCH   6  14
ATOM      9  C   UNL     1      -0.019   1.526   0.010  0.00  0.00    +0.005 C 
ATOM     10  C   UNL     1       0.002  -0.004   0.002  0.00  0.00    -0.031 C 
ATOM     11  C   UNL     1      -1.434  -0.535   0.015  0.00  0.00    -0.001 C 
ATOM     12  C   UNL     1      -1.402  -2.064   0.086  0.00  0.00    -0.018 C 
ATOM     13  C   UNL     1      -0.613  -2.496   1.324  0.00  0.00    -0.078 C 
ATOM     14  N   UNL     1       0.758  -1.980   1.239  0.00  0.00    +0.384 N 
ATOM     15  C   UNL     1       0.740  -0.512   1.242  0.00  0.00    -0.075 C 
ATOM     16  H   UNL     1       1.188  -2.307   0.386  0.00  0.00    -0.081 HD
ENDBRANCH   6  14
ENDBRANCH   5   6
ENDBRANCH   1   5
BRANCH   2  17
ATOM     17  C   UNL     1       2.962  -6.266  -0.361  0.00  0.00    +0.204 C 
BRANCH  17  18
ATOM     18  N   UNL     1       2.990  -7.730  -0.369  0.00  0.00    -0.171 NA
ATOM     19  C   UNL     1       1.823  -8.482  -0.836  0.00  0.00    +0.132 C 
BRANCH  18  20
ATOM     20  S   UNL     1       4.340  -8.536   0.151  0.00  0.00    +0.061 S 
ATOM     21  O   UNL     1       4.313  -9.815  -0.468  0.00  0.00    -0.153 OA
ATOM     22  O   UNL     1       5.432  -7.639  -0.001  0.00  0.00    -0.153 OA
BRANCH  20  23
ATOM     23  C   UNL     1       4.150  -8.809   1.881  0.00  0.00    +0.109 A 
ATOM     24  C   UNL     1       4.609  -7.867   2.783  0.00  0.00    +0.032 A 
ATOM     25  C   UNL     1       4.463  -8.079   4.141  0.00  0.00    +0.051 A 
ATOM     26  C   UNL     1       3.855  -9.237   4.602  0.00  0.00    +0.162 A 
ATOM     27  C   UNL     1       3.392 -10.183   3.696  0.00  0.00    +0.164 A 
ATOM     28  C   UNL     1       3.538  -9.963   2.334  0.00  0.00    +0.078 A 
ATOM     29  O   UNL     1       2.785 -11.322   4.127  0.00  0.00    -0.485 OA
ATOM     30  C   UNL     1       2.984 -11.678   5.499  0.00  0.00    +0.270 C 
ATOM     31  C   UNL     1       2.773 -10.423   6.357  0.00  0.00    +0.270 C 
ATOM     32  O   UNL     1       3.721  -9.433   5.943  0.00  0.00    -0.485 OA
ENDBRANCH  20  23
ENDBRANCH  18  20
ENDBRANCH  17  18
ENDBRANCH   2  17
TORSDOF 7
