REMARK  Name = ZINC57342078
REMARK  3 active torsions:
REMARK  status: ('A' for Active; 'I' for Inactive)
REMARK    1  A    between atoms: C_1  and  C_2
REMARK    2  A    between atoms: C_5  and  C_8
REMARK    3  A    between atoms: N_14  and  C_15
REMARK                            x       y       z     vdW  Elec       q    Type
REMARK                         _______ _______ _______ _____ _____    ______ ____
ROOT
ATOM      1  C   UNL     1      -0.072  -4.266  -0.014  0.00  0.00    +0.080 A 
ATOM      2  C   UNL     1       0.161  -4.950   1.170  0.00  0.00    +0.098 A 
ATOM      3  C   UNL     1       0.375  -6.335   1.116  0.00  0.00    +0.253 A 
ATOM      4  N   UNL     1       0.347  -6.952  -0.084  0.00  0.00    -0.295 N 
ATOM      5  C   UNL     1       0.115  -6.234  -1.217  0.00  0.00    +0.201 A 
ATOM      6  N   UNL     1      -0.093  -4.935  -1.175  0.00  0.00    -0.216 NA
ATOM      7  N   UNL     1       0.090  -6.878  -2.426  0.00  0.00    -0.283 N 
ATOM      8  O   UNL     1       0.584  -6.972   2.136  0.00  0.00    -0.268 OA
ATOM      9  H   UNL     1       0.153  -7.845  -2.462  0.00  0.00    +0.155 HD
ATOM     10  H   UNL     1       0.494  -7.909  -0.140  0.00  0.00    +0.172 HD
ENDROOT
BRANCH   7  11
ATOM     11  C   UNL     1      -0.025  -6.139  -3.611  0.00  0.00    +0.069 A 
ATOM     12  C   UNL     1       0.550  -4.879  -3.704  0.00  0.00    +0.029 A 
ATOM     13  C   UNL     1       0.435  -4.153  -4.873  0.00  0.00    +0.040 A 
ATOM     14  C   UNL     1      -0.253  -4.679  -5.953  0.00  0.00    +0.126 A 
ATOM     15  C   UNL     1      -0.829  -5.935  -5.865  0.00  0.00    +0.078 A 
ATOM     16  C   UNL     1      -0.712  -6.669  -4.698  0.00  0.00    +0.147 A 
ATOM     17  F   UNL     1      -1.269  -7.897  -4.613  0.00  0.00    -0.203 F 
ATOM     18  F   UNL     1      -0.364  -3.965  -7.095  0.00  0.00    -0.205 F 
ENDBRANCH   7  11
BRANCH   1  23
ATOM     19  C   UNL     1      -0.973   1.421   0.062  0.00  0.00    +0.044 C 
ATOM     20  C   UNL     1      -0.737  -0.068   0.042  0.00  0.00    -0.050 A 
ATOM     21  C   UNL     1      -0.758  -0.753  -1.160  0.00  0.00    +0.004 A 
ATOM     22  C   UNL     1      -0.543  -2.115  -1.184  0.00  0.00    +0.010 A 
ATOM     23  C   UNL     1      -0.303  -2.802   0.005  0.00  0.00    +0.001 A 
ATOM     24  C   UNL     1      -0.282  -2.106   1.214  0.00  0.00    +0.010 A 
ATOM     25  C   UNL     1      -0.493  -0.743   1.225  0.00  0.00    +0.004 A 
ENDBRANCH   1  23
TORSDOF 2
