REMARK  Name = ZINC19791714
REMARK  8 active torsions:
REMARK  status: ('A' for Active; 'I' for Inactive)
REMARK    1  A    between atoms: C_1  and  C_2
REMARK    2  A    between atoms: C_4  and  C_29
REMARK    3  A    between atoms: C_6  and  O_8
REMARK    4  A    between atoms: O_8  and  C_9
REMARK    5  A    between atoms: C_18  and  O_28
REMARK    6  A    between atoms: C_19  and  C_20
REMARK    7  A    between atoms: C_20  and  N_21
REMARK    8  A    between atoms: C_24  and  C_27
REMARK                            x       y       z     vdW  Elec       q    Type
REMARK                         _______ _______ _______ _____ _____    ______ ____
ROOT
ATOM      1  C   UNL     1      -0.002  -0.064   0.310  0.00  0.00    +0.210 A 
ATOM      2  C   UNL     1      -0.022   1.218   0.725  0.00  0.00    +0.245 A 
ATOM      3  O   UNL     1       1.091   1.897   1.035  0.00  0.00    -0.459 OA
ATOM      4  C   UNL     1       2.319   1.347   0.954  0.00  0.00    +0.143 A 
ATOM      5  C   UNL     1       2.460   0.013   0.531  0.00  0.00    +0.068 A 
ATOM      6  C   UNL     1       1.243  -0.744   0.188  0.00  0.00    +0.235 A 
ATOM      7  O   UNL     1       1.300  -1.903  -0.185  0.00  0.00    -0.283 OA
ATOM      8  C   UNL     1       3.726  -0.567   0.444  0.00  0.00    +0.019 A 
ATOM      9  C   UNL     1       4.831   0.166   0.769  0.00  0.00    +0.046 A 
ATOM     10  C   UNL     1       4.701   1.488   1.189  0.00  0.00    +0.122 A 
ATOM     11  C   UNL     1       3.451   2.078   1.281  0.00  0.00    +0.020 A 
ENDROOT
BRANCH  10  12
ATOM     12  O   UNL     1       5.809   2.205   1.510  0.00  0.00    -0.506 OA
ATOM     13  H   UNL     1       5.711   3.249   1.841  0.00  0.00    +0.292 HD
ENDBRANCH  10  12
BRANCH   1  14
ATOM     14  O   UNL     1      -1.165  -0.705   0.010  0.00  0.00    -0.449 OA
BRANCH  14  20
ATOM     15  C   UNL     1      -4.949   0.691   2.758  0.00  0.00    +0.044 C 
ATOM     16  C   UNL     1      -4.197   0.694   1.452  0.00  0.00    -0.047 A 
ATOM     17  C   UNL     1      -4.690   1.406   0.374  0.00  0.00    +0.007 A 
ATOM     18  C   UNL     1      -4.004   1.411  -0.827  0.00  0.00    -0.047 A 
ATOM     19  C   UNL     1      -2.823   0.705  -0.951  0.00  0.00    +0.049 A 
ATOM     20  C   UNL     1      -2.326  -0.010   0.130  0.00  0.00    +0.129 A 
ATOM     21  C   UNL     1      -3.020  -0.018   1.331  0.00  0.00    +0.049 A 
ATOM     22  C   UNL     1      -4.544   2.187  -2.000  0.00  0.00    +0.044 C 
ENDBRANCH  14  20
ENDBRANCH   1  14
BRANCH  11  23
ATOM     23  C   UNL     1       3.322   3.509   1.736  0.00  0.00    -0.036 C 
BRANCH  23  24
ATOM     24  N   UNL     1       3.176   3.548   3.197  0.00  0.00    +0.383 N 
ATOM     25  C   UNL     1       4.152   2.665   3.847  0.00  0.00    -0.078 C 
ATOM     26  C   UNL     1       3.877   2.618   5.352  0.00  0.00    -0.016 C 
ATOM     27  C   UNL     1       3.977   4.033   5.929  0.00  0.00    -0.018 C 
ATOM     28  C   UNL     1       2.983   4.943   5.201  0.00  0.00    -0.016 C 
ATOM     29  C   UNL     1       3.285   4.923   3.701  0.00  0.00    -0.078 C 
ATOM     30  C   UNL     1       3.643   4.002   7.421  0.00  0.00    +0.007 C 
ATOM     31  H   UNL     1       2.171   3.178   3.447  0.00  0.00    -0.081 HD
ENDBRANCH  23  24
ENDBRANCH  11  23
TORSDOF 5
