REMARK  Name = ZINC40734505
REMARK  14 active torsions:
REMARK  status: ('A' for Active; 'I' for Inactive)
REMARK    1  A    between atoms: C_1  and  C_2
REMARK    2  A    between atoms: C_5  and  N_8
REMARK    3  A    between atoms: C_9  and  C_11
REMARK    4  A    between atoms: C_11  and  O_12
REMARK    5  A    between atoms: O_12  and  C_13
REMARK    6  A    between atoms: C_14  and  O_33
REMARK    7  A    between atoms: C_16  and  C_20
REMARK    8  A    between atoms: C_20  and  N_21
REMARK    9  A    between atoms: N_21  and  C_22
REMARK   10  A    between atoms: C_22  and  C_24
REMARK   11  A    between atoms: C_22  and  C_25
REMARK   12  A    between atoms: C_25  and  C_26
REMARK   13  A    between atoms: C_26  and  C_27
REMARK   14  A    between atoms: O_33  and  C_34
REMARK                            x       y       z     vdW  Elec       q    Type
REMARK                         _______ _______ _______ _____ _____    ______ ____
ROOT
ATOM      1  C   UNL     1       0.545  -8.177   2.625  0.00  0.00    +0.176 A 
ATOM      2  C   UNL     1      -0.588  -8.974   2.761  0.00  0.00    +0.163 A 
ATOM      3  C   UNL     1      -0.452 -10.343   2.928  0.00  0.00    +0.051 A 
ATOM      4  C   UNL     1       0.806 -10.915   2.958  0.00  0.00    -0.060 A 
ATOM      5  C   UNL     1       1.932 -10.123   2.823  0.00  0.00    +0.021 A 
ATOM      6  C   UNL     1       1.804  -8.757   2.651  0.00  0.00    +0.063 A 
ATOM      7 BR   UNL     1       3.345  -7.679   2.458  0.00  0.00    -0.046 Br
ENDROOT
BRANCH   2   8
ATOM      8  O   UNL     1      -1.825  -8.410   2.732  0.00  0.00    -0.491 OA
ATOM      9  C   UNL     1      -2.942  -9.290   2.877  0.00  0.00    +0.277 C 
ENDBRANCH   2   8
BRANCH   1  10
ATOM     10  O   UNL     1       0.417  -6.833   2.462  0.00  0.00    -0.478 OA
BRANCH  10  11
ATOM     11  C   UNL     1       0.309  -6.349   1.121  0.00  0.00    +0.325 C 
BRANCH  11  13
ATOM     12  N   UNL     1       0.059  -4.170  -0.021  0.00  0.00    -0.283 N 
ATOM     13  C   UNL     1       0.175  -4.848   1.138  0.00  0.00    +0.255 C 
ATOM     14  O   UNL     1       0.173  -4.251   2.193  0.00  0.00    -0.272 OA
ATOM     15  H   UNL     1      -0.017  -4.651  -0.860  0.00  0.00    +0.155 HD
BRANCH  12  20
ATOM     16  C   UNL     1       0.008   1.503   0.007  0.00  0.00    +0.044 C 
ATOM     17  C   UNL     1       0.022  -0.004  -0.001  0.00  0.00    -0.050 A 
ATOM     18  C   UNL     1       0.777  -0.692   0.931  0.00  0.00    +0.005 A 
ATOM     19  C   UNL     1       0.791  -2.073   0.927  0.00  0.00    +0.023 A 
ATOM     20  C   UNL     1       0.046  -2.771  -0.014  0.00  0.00    +0.034 A 
ATOM     21  C   UNL     1      -0.712  -2.077  -0.948  0.00  0.00    +0.023 A 
ATOM     22  C   UNL     1      -0.726  -0.696  -0.936  0.00  0.00    +0.005 A 
ENDBRANCH  12  20
ENDBRANCH  11  13
ENDBRANCH  10  11
ENDBRANCH   1  10
BRANCH   4  23
ATOM     23  C   UNL     1       0.952 -12.403   3.139  0.00  0.00    -0.046 C 
BRANCH  23  24
ATOM     24  N   UNL     1       0.954 -13.059   1.824  0.00  0.00    +0.383 N 
ATOM     25  H   UNL     1       0.087 -12.861   1.348  0.00  0.00    -0.085 HD
ATOM     26  H   UNL     1       1.726 -12.710   1.276  0.00  0.00    -0.085 HD
BRANCH  24  27
ATOM     27  C   UNL     1       1.095 -14.510   2.001  0.00  0.00    -0.074 C 
ATOM     28  C   UNL     1       2.465 -14.819   2.609  0.00  0.00    -0.014 C 
BRANCH  27  29
ATOM     29  C   UNL     1       0.973 -15.203   0.642  0.00  0.00    -0.011 C 
BRANCH  29  30
ATOM     30  C   UNL     1      -0.439 -14.998   0.090  0.00  0.00    +0.033 C 
BRANCH  30  31
ATOM     31  C   UNL     1      -0.559 -15.681  -1.248  0.00  0.00    -0.047 A 
ATOM     32  C   UNL     1      -0.251 -14.992  -2.406  0.00  0.00    +0.003 A 
ATOM     33  C   UNL     1      -0.361 -15.618  -3.633  0.00  0.00    +0.000 A 
ATOM     34  C   UNL     1      -0.780 -16.934  -3.703  0.00  0.00    +0.000 A 
ATOM     35  C   UNL     1      -1.088 -17.623  -2.545  0.00  0.00    +0.000 A 
ATOM     36  C   UNL     1      -0.973 -16.998  -1.317  0.00  0.00    +0.003 A 
ENDBRANCH  30  31
ENDBRANCH  29  30
ENDBRANCH  27  29
ENDBRANCH  24  27
ENDBRANCH  23  24
ENDBRANCH   4  23
TORSDOF 11
