REMARK  Name = ZINC28464123
REMARK  5 active torsions:
REMARK  status: ('A' for Active; 'I' for Inactive)
REMARK    1  A    between atoms: C_4  and  S_14
REMARK    2  A    between atoms: S_14  and  N_17
REMARK    3  A    between atoms: N_17  and  N_18
REMARK    4  A    between atoms: N_18  and  C_19
REMARK    5  A    between atoms: C_22  and  N_25
REMARK                            x       y       z     vdW  Elec       q    Type
REMARK                         _______ _______ _______ _____ _____    ______ ____
ROOT
ATOM      1  S   UNL     1       2.526   5.342  -1.184  0.00  0.00    +0.074 S 
ATOM      2  O   UNL     1       3.761   6.032  -1.042  0.00  0.00    -0.152 OA
ATOM      3  O   UNL     1       2.185   4.626  -2.363  0.00  0.00    -0.152 OA
ENDROOT
BRANCH   1   7
ATOM      4  C   UNL     1      -1.799   4.478  -1.238  0.00  0.00    +0.001 A 
ATOM      5  C   UNL     1      -0.474   4.803  -1.211  0.00  0.00    +0.010 A 
ATOM      6  C   UNL     1      -0.095   6.135  -0.971  0.00  0.00    +0.010 A 
ATOM      7  C   UNL     1       1.252   6.533  -0.931  0.00  0.00    +0.115 A 
ATOM      8  C   UNL     1       1.578   7.835  -0.692  0.00  0.00    +0.030 A 
ATOM      9  C   UNL     1       0.587   8.799  -0.492  0.00  0.00    +0.018 A 
ATOM     10  C   UNL     1      -0.731   8.435  -0.527  0.00  0.00    +0.024 A 
ATOM     11  C   UNL     1      -1.103   7.105  -0.765  0.00  0.00    +0.009 A 
ATOM     12  C   UNL     1      -2.459   6.765  -0.795  0.00  0.00    +0.038 A 
ATOM     13  C   UNL     1      -2.791   5.425  -1.037  0.00  0.00    +0.013 A 
ATOM     14  C   UNL     1      -3.386   7.905  -0.559  0.00  0.00    +0.225 C 
ATOM     15  O   UNL     1      -4.603   7.899  -0.530  0.00  0.00    -0.279 OA
ATOM     16  S   UNL     1      -2.276   9.284  -0.330  0.00  0.00    -0.046 S 
ENDBRANCH   1   7
BRANCH   1  17
ATOM     17  N   UNL     1       2.442   4.261   0.068  0.00  0.00    -0.110 NA
ATOM     18  H   UNL     1       2.261   3.325  -0.111  0.00  0.00    +0.172 HD
BRANCH  17  19
ATOM     19  N   UNL     1       2.631   4.699   1.385  0.00  0.00    -0.262 N 
ATOM     20  H   UNL     1       3.543   5.252   1.656  0.00  0.00    +0.168 HD
BRANCH  19  21
ATOM     21  C   UNL     1       1.662   4.433   2.356  0.00  0.00    +0.043 A 
ATOM     22  C   UNL     1       1.848   4.866   3.662  0.00  0.00    +0.026 A 
ATOM     23  C   UNL     1       0.887   4.602   4.619  0.00  0.00    +0.034 A 
ATOM     24  C   UNL     1      -0.259   3.908   4.277  0.00  0.00    +0.126 A 
ATOM     25  C   UNL     1      -0.447   3.475   2.977  0.00  0.00    +0.034 A 
ATOM     26  C   UNL     1       0.510   3.735   2.016  0.00  0.00    +0.026 A 
BRANCH  24  27
ATOM     27  N   UNL     1      -1.286   3.627   5.305  0.00  0.00    +0.056 N 
ATOM     28  O   UNL     1      -1.122   4.008   6.450  0.00  0.00    -0.126 OA
ATOM     29  O   UNL     1      -2.296   3.016   5.005  0.00  0.00    -0.126 OA
ENDBRANCH  24  27
ENDBRANCH  19  21
ENDBRANCH  17  19
ENDBRANCH   1  17
TORSDOF 5
