REMARK  Name = ZINC19853441
REMARK  18 active torsions:
REMARK  status: ('A' for Active; 'I' for Inactive)
REMARK    1  A    between atoms: C_1  and  N_2
REMARK    2  A    between atoms: N_2  and  C_3
REMARK    3  A    between atoms: N_2  and  C_4
REMARK    4  A    between atoms: C_4  and  C_5
REMARK    5  A    between atoms: C_5  and  N_6
REMARK    6  A    between atoms: N_6  and  C_7
REMARK    7  A    between atoms: C_7  and  C_8
REMARK    8  A    between atoms: C_13  and  O_20
REMARK    9  A    between atoms: C_14  and  O_18
REMARK   10  A    between atoms: C_15  and  O_16
REMARK   11  A    between atoms: O_16  and  C_17
REMARK   12  A    between atoms: O_18  and  C_19
REMARK   13  A    between atoms: O_20  and  C_21
REMARK   14  A    between atoms: C_23  and  N_24
REMARK   15  A    between atoms: N_24  and  C_25
REMARK   16  A    between atoms: N_24  and  C_26
REMARK   17  A    between atoms: C_27  and  C_29
REMARK   18  A    between atoms: C_29  and  C_30
REMARK                            x       y       z     vdW  Elec       q    Type
REMARK                         _______ _______ _______ _____ _____    ______ ____
ROOT
ATOM      1  C   UNL     1      -5.096   4.862  -2.987  0.00  0.00    +0.010 A 
ATOM      2  C   UNL     1      -4.859   3.637  -3.538  0.00  0.00    +0.022 A 
ATOM      3  C   UNL     1      -5.915   2.991  -4.208  0.00  0.00    +0.046 A 
ATOM      4  C   UNL     1      -7.177   3.630  -4.286  0.00  0.00    +0.080 A 
ATOM      5  C   UNL     1      -8.234   2.989  -4.952  0.00  0.00    +0.078 A 
ATOM      6  C   UNL     1      -8.036   1.752  -5.522  0.00  0.00    +0.167 A 
ATOM      7  C   UNL     1      -6.790   1.119  -5.446  0.00  0.00    +0.204 A 
ATOM      8  C   UNL     1      -5.735   1.724  -4.798  0.00  0.00    +0.174 A 
ATOM      9  N   UNL     1      -7.350   4.834  -3.725  0.00  0.00    -0.231 NA
ATOM     10  C   UNL     1      -6.367   5.441  -3.092  0.00  0.00    +0.126 A 
ENDROOT
BRANCH  10  11
ATOM     11  N   UNL     1      -6.594   6.686  -2.522  0.00  0.00    -0.321 N 
ATOM     12  C   UNL     1      -6.836   7.702  -3.555  0.00  0.00    +0.130 C 
ATOM     13  C   UNL     1      -7.709   6.631  -1.566  0.00  0.00    +0.130 C 
ENDBRANCH  10  11
BRANCH   8  14
ATOM     14  O   UNL     1      -4.528   1.103  -4.728  0.00  0.00    -0.491 OA
ATOM     15  C   UNL     1      -3.629   1.308  -5.819  0.00  0.00    +0.277 C 
ENDBRANCH   8  14
BRANCH   7  16
ATOM     16  O   UNL     1      -6.619  -0.105  -6.017  0.00  0.00    -0.488 OA
ATOM     17  C   UNL     1      -6.928  -1.246  -5.213  0.00  0.00    +0.277 C 
ENDBRANCH   7  16
BRANCH   6  18
ATOM     18  O   UNL     1      -9.064   1.137  -6.165  0.00  0.00    -0.491 OA
ATOM     19  C   UNL     1     -10.311   1.834  -6.208  0.00  0.00    +0.277 C 
ENDBRANCH   6  18
BRANCH   1  20
ATOM     20  C   UNL     1      -3.993   5.588  -2.261  0.00  0.00    +0.146 C 
BRANCH  20  21
ATOM     21  N   UNL     1      -4.154   5.401  -0.817  0.00  0.00    -0.299 N 
ATOM     22  C   UNL     1      -3.703   4.275  -0.229  0.00  0.00    +0.220 C 
ATOM     23  O   UNL     1      -3.165   3.417  -0.896  0.00  0.00    -0.275 OA
BRANCH  21  24
ATOM     24  C   UNL     1      -4.804   6.438  -0.011  0.00  0.00    +0.089 C 
BRANCH  24  25
ATOM     25  C   UNL     1      -3.747   7.409   0.519  0.00  0.00    -0.060 C 
BRANCH  25  27
ATOM     26  C   UNL     1      -4.990   7.877   2.544  0.00  0.00    -0.097 C 
ATOM     27  N   UNL     1      -4.399   8.449   1.327  0.00  0.00    +0.377 N 
ATOM     28  C   UNL     1      -3.458   9.527   1.655  0.00  0.00    -0.097 C 
ATOM     29  H   UNL     1      -5.214   8.882   0.727  0.00  0.00    -0.083 HD
ENDBRANCH  25  27
ENDBRANCH  24  25
ENDBRANCH  21  24
BRANCH  22  30
ATOM     30  C   UNL     1      -3.869   4.082   1.256  0.00  0.00    +0.131 C 
BRANCH  30  31
ATOM     31  C   UNL     1      -3.285   2.752   1.658  0.00  0.00    -0.032 A 
ATOM     32  C   UNL     1      -4.069   1.613   1.656  0.00  0.00    +0.011 A 
ATOM     33  C   UNL     1      -3.514   0.433   2.027  0.00  0.00    +0.045 A 
ATOM     34  S   UNL     1      -1.832   0.912   2.385  0.00  0.00    -0.105 S 
ATOM     35  C   UNL     1      -1.983   2.653   2.022  0.00  0.00    +0.049 A 
ENDBRANCH  30  31
ENDBRANCH  22  30
ENDBRANCH  20  21
ENDBRANCH   1  20
TORSDOF 11
