REMARK  Name = ZINC36346830
REMARK  17 active torsions:
REMARK  status: ('A' for Active; 'I' for Inactive)
REMARK    1  A    between atoms: C_1  and  C_2
REMARK    2  A    between atoms: C_2  and  C_3
REMARK    3  A    between atoms: C_2  and  C_4
REMARK    4  A    between atoms: C_5  and  C_24
REMARK    5  A    between atoms: C_6  and  O_17
REMARK    6  A    between atoms: N_7  and  C_9
REMARK    7  A    between atoms: C_12  and  O_15
REMARK    8  A    between atoms: O_15  and  C_16
REMARK    9  A    between atoms: O_17  and  C_18
REMARK   10  A    between atoms: C_24  and  N_25
REMARK   11  A    between atoms: N_25  and  C_26
REMARK   12  A    between atoms: N_25  and  C_30
REMARK   13  A    between atoms: C_26  and  C_27
REMARK   14  A    between atoms: C_30  and  C_31
REMARK   15  A    between atoms: C_31  and  C_32
REMARK   16  A    between atoms: C_31  and  C_33
REMARK   17  A    between atoms: C_31  and  O_35
REMARK                            x       y       z     vdW  Elec       q    Type
REMARK                         _______ _______ _______ _____ _____    ______ ____
ROOT
ATOM      1  C   UNL     1       1.856  -1.237   0.028  0.00  0.00    +0.071 A 
ATOM      2  C   UNL     1       0.923  -1.235   1.070  0.00  0.00    +0.021 A 
ATOM      3  C   UNL     1       1.560  -0.827   2.200  0.00  0.00    +0.225 A 
ATOM      4  N   UNL     1       2.857  -0.581   1.872  0.00  0.00    -0.200 N 
ATOM      5  N   UNL     1       3.012  -0.852   0.507  0.00  0.00    -0.168 NA
ENDROOT
BRANCH   4   6
ATOM      6  C   UNL     1       3.861  -0.140   2.747  0.00  0.00    +0.069 A 
ATOM      7  C   UNL     1       3.584   0.849   3.680  0.00  0.00    +0.031 A 
ATOM      8  C   UNL     1       4.573   1.283   4.541  0.00  0.00    +0.048 A 
ATOM      9  C   UNL     1       5.843   0.730   4.473  0.00  0.00    +0.120 A 
ATOM     10  C   UNL     1       6.121  -0.258   3.540  0.00  0.00    +0.048 A 
ATOM     11  C   UNL     1       5.131  -0.697   2.683  0.00  0.00    +0.031 A 
BRANCH   9  12
ATOM     12  O   UNL     1       6.817   1.158   5.320  0.00  0.00    -0.495 OA
ATOM     13  C   UNL     1       8.101   0.545   5.195  0.00  0.00    +0.277 C 
ENDBRANCH   9  12
ENDBRANCH   4   6
BRANCH   1  15
ATOM     14  C   UNL     1       1.889  -0.439  -2.319  0.00  0.00    +0.014 C 
ATOM     15  C   UNL     1       1.579  -1.623  -1.402  0.00  0.00    +0.034 C 
ATOM     16  C   UNL     1       2.461  -2.813  -1.788  0.00  0.00    +0.014 C 
ENDBRANCH   1  15
BRANCH   3  17
ATOM     17  O   UNL     1       1.003  -0.690   3.430  0.00  0.00    -0.438 OA
BRANCH  17  18
ATOM     18  C   UNL     1       0.401   0.491   3.730  0.00  0.00    +0.130 A 
ATOM     19  C   UNL     1       0.278   1.474   2.759  0.00  0.00    +0.046 A 
ATOM     20  C   UNL     1      -0.335   2.674   3.066  0.00  0.00    +0.004 A 
ATOM     21  C   UNL     1      -0.825   2.895   4.340  0.00  0.00    +0.000 A 
ATOM     22  C   UNL     1      -0.703   1.917   5.309  0.00  0.00    +0.004 A 
ATOM     23  C   UNL     1      -0.096   0.713   5.006  0.00  0.00    +0.046 A 
ENDBRANCH  17  18
ENDBRANCH   3  17
BRANCH   2  24
ATOM     24  C   UNL     1      -0.530  -1.616   0.959  0.00  0.00    -0.036 C 
BRANCH  24  25
ATOM     25  N   UNL     1      -0.680  -3.055   1.216  0.00  0.00    +0.385 N 
ATOM     26  H   UNL     1      -0.080  -3.572   0.591  0.00  0.00    -0.081 HD
BRANCH  25  27
ATOM     27  C   UNL     1      -0.306  -3.346   2.606  0.00  0.00    -0.075 C 
BRANCH  27  28
ATOM     28  C   UNL     1      -0.021  -4.842   2.756  0.00  0.00    -0.028 C 
ATOM     29  C   UNL     1      -0.932  -5.645   3.687  0.00  0.00    +0.002 C 
ATOM     30  C   UNL     1       0.505  -5.329   4.107  0.00  0.00    +0.002 C 
ENDBRANCH  27  28
ENDBRANCH  25  27
BRANCH  25  31
ATOM     31  C   UNL     1      -2.077  -3.450   0.991  0.00  0.00    -0.039 C 
BRANCH  31  32
ATOM     32  C   UNL     1      -2.116  -4.779   0.235  0.00  0.00    +0.067 C 
ATOM     33  C   UNL     1      -1.232  -4.684  -1.010  0.00  0.00    +0.044 C 
BRANCH  32  34
ATOM     34  C   UNL     1      -3.533  -5.081  -0.177  0.00  0.00    -0.003 C 
ATOM     35  C   UNL     1      -4.121  -6.172   0.247  0.00  0.00    +0.006 C 
ENDBRANCH  32  34
BRANCH  32  36
ATOM     36  O   UNL     1      -1.634  -5.824   1.083  0.00  0.00    -0.387 OA
ATOM     37  H   UNL     1      -2.197  -6.000   1.849  0.00  0.00    +0.210 HD
ENDBRANCH  32  36
ENDBRANCH  31  32
ENDBRANCH  25  31
ENDBRANCH  24  25
ENDBRANCH   2  24
TORSDOF 13
