REMARK  Name = ZINC39281255
REMARK  3 active torsions:
REMARK  status: ('A' for Active; 'I' for Inactive)
REMARK    1  A    between atoms: C_1  and  C_2
REMARK    2  A    between atoms: C_2  and  C_19
REMARK    3  A    between atoms: C_7  and  C_16
REMARK                            x       y       z     vdW  Elec       q    Type
REMARK                         _______ _______ _______ _____ _____    ______ ____
ROOT
ATOM      1  C   UNL     1      -0.007   1.523  -0.086  0.00  0.00    +0.012 C 
ATOM      2  C   UNL     1       0.002  -0.004   0.002  0.00  0.00    -0.016 C 
ATOM      3  C   UNL     1       1.022  -0.646  -1.006  0.00  0.00    -0.002 C 
ATOM      4  C   UNL     1       2.362  -0.066  -0.460  0.00  0.00    +0.005 C 
ATOM      5  C   UNL     1       2.157   0.028   1.070  0.00  0.00    +0.019 C 
ATOM      6  C   UNL     1       0.714  -0.515   1.308  0.00  0.00    +0.082 C 
ATOM      7  C   UNL     1       0.809  -2.029   0.996  0.00  0.00    +0.127 C 
ATOM      8  C   UNL     1       0.997  -2.135  -0.533  0.00  0.00    +0.040 C 
ATOM      9  C   UNL     1       1.937  -2.667   1.758  0.00  0.00    +0.245 C 
ATOM     10  O   UNL     1       3.116  -2.388   1.700  0.00  0.00    -0.273 OA
ATOM     11  N   UNL     1       1.354  -3.618   2.522  0.00  0.00    -0.238 N 
ATOM     12  C   UNL     1       0.027  -3.653   2.335  0.00  0.00    +0.307 C 
ATOM     13  O   UNL     1      -0.717  -4.423   2.910  0.00  0.00    -0.252 OA
ATOM     14  N   UNL     1      -0.390  -2.735   1.438  0.00  0.00    -0.284 N 
ATOM     15  C   UNL     1      -1.404  -0.588  -0.151  0.00  0.00    +0.012 C 
ATOM     16  H   UNL     1       1.835  -4.202   3.128  0.00  0.00    +0.159 HD
ATOM     17  H   UNL     1      -1.301  -2.577   1.145  0.00  0.00    +0.151 HD
ENDROOT
BRANCH   6  18
ATOM     18  C   UNL     1       0.070  -0.133   2.615  0.00  0.00    +0.220 C 
ATOM     19  O   UNL     1      -0.943   0.535   2.620  0.00  0.00    -0.275 OA
ATOM     20  N   UNL     1       0.619  -0.532   3.779  0.00  0.00    -0.329 N 
ATOM     21  H   UNL     1       1.429  -1.066   3.775  0.00  0.00    +0.145 HD
ATOM     22  H   UNL     1       0.205  -0.286   4.621  0.00  0.00    +0.145 HD
ENDBRANCH   6  18
TORSDOF 1
