REMARK  Name = ZINC59224428
REMARK  6 active torsions:
REMARK  status: ('A' for Active; 'I' for Inactive)
REMARK    1  A    between atoms: C_1  and  C_2
REMARK    2  A    between atoms: C_7  and  N_8
REMARK    3  A    between atoms: C_14  and  C_15
REMARK    4  A    between atoms: C_17  and  N_28
REMARK    5  A    between atoms: C_20  and  S_21
REMARK    6  A    between atoms: S_21  and  C_22
REMARK                            x       y       z     vdW  Elec       q    Type
REMARK                         _______ _______ _______ _____ _____    ______ ____
ROOT
ATOM      1  N   UNL     1       1.204  -0.427   2.654  0.00  0.00    -0.225 NA
ATOM      2  C   UNL     1       0.958  -1.034   3.804  0.00  0.00    +0.166 C 
ATOM      3  N   UNL     1       1.134  -2.359   4.097  0.00  0.00    -0.260 N 
ATOM      4  C   UNL     1       0.824  -2.769   5.322  0.00  0.00    +0.256 C 
ATOM      5  O   UNL     1       0.943  -3.923   5.685  0.00  0.00    -0.269 OA
ATOM      6  C   UNL     1       0.319  -1.694   6.208  0.00  0.00    +0.078 C 
ATOM      7  C   UNL     1      -0.094  -1.782   7.548  0.00  0.00    +0.029 C 
ATOM      8  S   UNL     1       0.371  -0.342   5.213  0.00  0.00    -0.049 S 
ATOM      9  H   UNL     1       1.474  -2.979   3.433  0.00  0.00    +0.157 HD
ENDROOT
BRANCH   1  16
ATOM     10  C   UNL     1       3.554   0.530   1.363  0.00  0.00    +0.046 C 
ATOM     11  C   UNL     1       2.825  -0.713   0.924  0.00  0.00    -0.025 A 
ATOM     12  C   UNL     1       3.287  -1.442  -0.135  0.00  0.00    +0.007 A 
ATOM     13  C   UNL     1       2.618  -2.587  -0.543  0.00  0.00    +0.020 A 
ATOM     14  C   UNL     1       1.470  -3.006   0.119  0.00  0.00    +0.043 A 
ATOM     15  C   UNL     1       0.988  -2.294   1.181  0.00  0.00    +0.048 A 
ATOM     16  C   UNL     1       1.664  -1.132   1.607  0.00  0.00    +0.071 A 
ATOM     17 CL   UNL     1       0.645  -4.441  -0.406  0.00  0.00    -0.083 Cl
ENDBRANCH   1  16
BRANCH   7  18
ATOM     18  C   UNL     1      -0.399  -0.618   8.265  0.00  0.00    -0.008 A 
ATOM     19  C   UNL     1       0.209   0.614   7.932  0.00  0.00    +0.041 A 
ATOM     20  C   UNL     1      -0.098   1.733   8.638  0.00  0.00    +0.127 A 
ATOM     21  C   UNL     1      -1.008   1.699   9.694  0.00  0.00    +0.034 A 
ATOM     22  C   UNL     1      -1.631   0.531  10.064  0.00  0.00    +0.018 A 
ATOM     23  C   UNL     1      -1.362  -0.652   9.374  0.00  0.00    +0.023 A 
BRANCH  20  24
ATOM     24  N   UNL     1       0.547   3.016   8.279  0.00  0.00    +0.056 N 
ATOM     25  O   UNL     1       1.409   3.064   7.284  0.00  0.00    -0.126 OA
ATOM     26  O   UNL     1       0.259   4.110   8.954  0.00  0.00    -0.126 OA
ENDBRANCH  20  24
BRANCH  23  27
ATOM     27  S   UNL     1      -2.157  -2.157   9.828  0.00  0.00    -0.049 S 
BRANCH  27  28
ATOM     28  C   UNL     1      -3.408  -2.365   8.604  0.00  0.00    +0.193 A 
ATOM     29  N   UNL     1      -3.474  -1.508   7.595  0.00  0.00    -0.230 NA
ATOM     30  C   UNL     1      -4.400  -1.635   6.660  0.00  0.00    +0.115 A 
ATOM     31  C   UNL     1      -5.308  -2.680   6.745  0.00  0.00    +0.039 A 
ATOM     32  C   UNL     1      -5.210  -3.558   7.814  0.00  0.00    +0.115 A 
ATOM     33  N   UNL     1      -4.256  -3.377   8.712  0.00  0.00    -0.230 NA
ENDBRANCH  27  28
ENDBRANCH  23  27
ENDBRANCH   7  18
TORSDOF 5
