REMARK  Name = ZINC43041747
REMARK  7 active torsions:
REMARK  status: ('A' for Active; 'I' for Inactive)
REMARK    1  A    between atoms: C_1  and  C_2
REMARK    2  A    between atoms: C_7  and  N_12
REMARK    3  A    between atoms: C_9  and  C_11
REMARK    4  A    between atoms: N_15  and  C_16
REMARK    5  A    between atoms: N_15  and  C_17
REMARK    6  A    between atoms: C_17  and  C_18
REMARK    7  A    between atoms: C_23  and  O_24
REMARK                            x       y       z     vdW  Elec       q    Type
REMARK                         _______ _______ _______ _____ _____    ______ ____
ROOT
ATOM      1  N   UNL     1       1.471  -2.526   2.420  0.00  0.00    -0.296 N 
ATOM      2  C   UNL     1       1.207  -3.754   2.907  0.00  0.00    +0.302 C 
ATOM      3  O   UNL     1       0.380  -4.460   2.362  0.00  0.00    -0.253 OA
ATOM      4  N   UNL     1       1.859  -4.201   3.999  0.00  0.00    -0.284 N 
ATOM      5  C   UNL     1       2.855  -3.351   4.656  0.00  0.00    +0.134 C 
ATOM      6  H   UNL     1       2.131  -1.963   2.855  0.00  0.00    +0.151 HD
ENDROOT
BRANCH   1  12
ATOM      7  C   UNL     1      -0.019   1.526   0.010  0.00  0.00    +0.008 C 
ATOM      8  C   UNL     1       0.002  -0.004   0.002  0.00  0.00    -0.009 C 
ATOM      9  C   UNL     1       0.718  -0.497  -1.257  0.00  0.00    +0.003 C 
ATOM     10  C   UNL     1       0.739  -2.027  -1.265  0.00  0.00    +0.002 C 
ATOM     11  C   UNL     1       1.479  -2.534  -0.026  0.00  0.00    +0.022 C 
ATOM     12  C   UNL     1       0.763  -2.041   1.233  0.00  0.00    +0.078 C 
ATOM     13  C   UNL     1       0.742  -0.511   1.242  0.00  0.00    +0.009 C 
ATOM     14  C   UNL     1       0.026  -0.018   2.500  0.00  0.00    +0.009 C 
ENDBRANCH   1  12
BRANCH   4  15
ATOM     15  C   UNL     1       1.571  -5.536   4.529  0.00  0.00    +0.147 C 
BRANCH  15  16
ATOM     16  C   UNL     1       2.487  -6.542   3.881  0.00  0.00    +0.011 A 
ATOM     17  C   UNL     1       2.030  -7.320   2.835  0.00  0.00    +0.009 A 
ATOM     18  C   UNL     1       2.870  -8.243   2.240  0.00  0.00    +0.001 A 
ATOM     19  C   UNL     1       4.170  -8.390   2.690  0.00  0.00    +0.004 A 
ATOM     20  C   UNL     1       4.632  -7.614   3.735  0.00  0.00    +0.046 A 
ATOM     21  C   UNL     1       3.792  -6.683   4.330  0.00  0.00    +0.122 A 
BRANCH  21  22
ATOM     22  O   UNL     1       4.246  -5.914   5.355  0.00  0.00    -0.506 OA
ATOM     23  H   UNL     1       4.112  -6.305   6.229  0.00  0.00    +0.292 HD
ENDBRANCH  21  22
ENDBRANCH  15  16
ENDBRANCH   4  15
TORSDOF 4
