REMARK  Name = ZINC19755521
REMARK  3 active torsions:
REMARK  status: ('A' for Active; 'I' for Inactive)
REMARK    1  A    between atoms: C_1  and  C_2
REMARK    2  A    between atoms: C_3  and  C_8
REMARK    3  A    between atoms: C_16  and  C_19
REMARK                            x       y       z     vdW  Elec       q    Type
REMARK                         _______ _______ _______ _____ _____    ______ ____
ROOT
ATOM      1  C   UNL     1       1.659  -4.502   1.337  0.00  0.00    +0.003 A 
ATOM      2  C   UNL     1       1.611  -3.733   2.499  0.00  0.00    +0.014 A 
ATOM      3  C   UNL     1       1.289  -2.393   2.431  0.00  0.00    +0.048 A 
ATOM      4  C   UNL     1       1.011  -1.803   1.206  0.00  0.00    +0.142 A 
ATOM      5  C   UNL     1       1.056  -2.569   0.043  0.00  0.00    +0.070 A 
ATOM      6  C   UNL     1       1.379  -3.913   0.105  0.00  0.00    +0.036 A 
ATOM      7  N   UNL     1       0.766  -1.973  -1.195  0.00  0.00    -0.337 N 
ATOM      8  C   UNL     1       0.726  -0.502  -1.257  0.00  0.00    +0.145 C 
ATOM      9  C   UNL     1       0.002  -0.004   0.002  0.00  0.00    +0.187 C 
ATOM     10  O   UNL     1       0.699  -0.480   1.156  0.00  0.00    -0.486 OA
ATOM     11  C   UNL     1      -0.019   1.526   0.010  0.00  0.00    +0.053 C 
ATOM     12  H   UNL     1       0.572  -2.567  -2.100  0.00  0.00    +0.146 HD
ENDROOT
BRANCH   1  15
ATOM     13  C   UNL     1       3.691  -5.614   3.365  0.00  0.00    +0.054 C 
ATOM     14  C   UNL     1       2.914  -6.387   2.329  0.00  0.00    +0.016 A 
ATOM     15  C   UNL     1       2.006  -5.942   1.412  0.00  0.00    +0.083 A 
ATOM     16  N   UNL     1       1.431  -6.816   0.588  0.00  0.00    -0.225 NA
ATOM     17  C   UNL     1       1.732  -8.101   0.638  0.00  0.00    +0.156 A 
ATOM     18  S   UNL     1       2.928  -8.137   1.965  0.00  0.00    -0.057 S 
ATOM     19  N   UNL     1       1.245  -9.145  -0.132  0.00  0.00    -0.338 N 
ATOM     20  H   UNL     1       1.605 -10.170   0.041  0.00  0.00    +0.144 HD
ATOM     21  H   UNL     1       0.499  -8.949  -0.916  0.00  0.00    +0.144 HD
ENDBRANCH   1  15
TORSDOF 1
