REMARK  Name = ZINC47350925
REMARK  6 active torsions:
REMARK  status: ('A' for Active; 'I' for Inactive)
REMARK    1  A    between atoms: C_1  and  C_2
REMARK    2  A    between atoms: C_5  and  C_8
REMARK    3  A    between atoms: C_8  and  C_10
REMARK    4  A    between atoms: C_8  and  N_11
REMARK    5  A    between atoms: C_12  and  N_14
REMARK    6  A    between atoms: C_19  and  C_21
REMARK                            x       y       z     vdW  Elec       q    Type
REMARK                         _______ _______ _______ _____ _____    ______ ____
ROOT
ATOM      1  N   UNL     1       0.959  -4.758   1.029  0.00  0.00    -0.291 N 
ATOM      2  C   UNL     1       1.534  -5.972   0.919  0.00  0.00    +0.326 C 
ATOM      3  O   UNL     1       1.305  -6.668  -0.055  0.00  0.00    -0.251 OA
ATOM      4  H   UNL     1       1.142  -4.204   1.804  0.00  0.00    +0.151 HD
ENDROOT
BRANCH   2   5
ATOM      5  N   UNL     1       2.355  -6.412   1.877  0.00  0.00    -0.139 NA
ATOM      6  C   UNL     1       2.922  -7.611   1.768  0.00  0.00    +0.165 A 
ATOM      7  N   UNL     1       3.773  -8.226   2.635  0.00  0.00    -0.342 N 
ATOM      8  H   UNL     1       4.040  -7.789   3.458  0.00  0.00    +0.167 HD
ATOM      9  C   UNL     1       4.241  -9.467   2.325  0.00  0.00    +0.095 A 
ATOM     10  C   UNL     1       3.829 -10.007   1.174  0.00  0.00    +0.006 A 
ATOM     11  S   UNL     1       2.757  -8.736   0.529  0.00  0.00    -0.058 S 
ATOM     12  C   UNL     1       4.177 -11.347   0.578  0.00  0.00    +0.053 C 
ENDBRANCH   2   5
BRANCH   1  13
ATOM     13  C   UNL     1       0.059  -4.275  -0.021  0.00  0.00    +0.102 C 
ATOM     14  C   UNL     1      -1.353  -4.805   0.234  0.00  0.00    +0.033 C 
BRANCH  13  19
ATOM     15  C   UNL     1      -0.018   1.503   0.010  0.00  0.00    +0.044 C 
ATOM     16  C   UNL     1       0.002  -0.004   0.002  0.00  0.00    -0.050 A 
ATOM     17  C   UNL     1       0.006  -0.689  -1.199  0.00  0.00    +0.004 A 
ATOM     18  C   UNL     1       0.025  -2.071  -1.206  0.00  0.00    +0.006 A 
ATOM     19  C   UNL     1       0.040  -2.768  -0.013  0.00  0.00    -0.027 A 
ATOM     20  C   UNL     1       0.037  -2.084   1.188  0.00  0.00    +0.006 A 
ATOM     21  C   UNL     1       0.023  -0.702   1.195  0.00  0.00    +0.004 A 
ENDBRANCH  13  19
ENDBRANCH   1  13
TORSDOF 3
