REMARK  Name = ZINC08846525
REMARK  7 active torsions:
REMARK  status: ('A' for Active; 'I' for Inactive)
REMARK    1  A    between atoms: N_9  and  C_31
REMARK    2  A    between atoms: C_10  and  C_12
REMARK    3  A    between atoms: C_12  and  N_13
REMARK    4  A    between atoms: C_14  and  C_15
REMARK    5  A    between atoms: C_18  and  C_23
REMARK    6  A    between atoms: C_31  and  N_33
REMARK    7  A    between atoms: N_33  and  C_34
REMARK                            x       y       z     vdW  Elec       q    Type
REMARK                         _______ _______ _______ _____ _____    ______ ____
ROOT
ATOM      1  C   UNL     1      -0.022   1.370   0.015  0.00  0.00    +0.000 A 
ATOM      2  C   UNL     1       1.166   2.076   0.009  0.00  0.00    +0.000 A 
ATOM      3  C   UNL     1       2.366   1.395  -0.012  0.00  0.00    +0.006 A 
ATOM      4  C   UNL     1       2.388   0.007  -0.024  0.00  0.00    -0.022 A 
ATOM      5  C   UNL     1       1.205  -0.698  -0.009  0.00  0.00    -0.041 A 
ATOM      6  C   UNL     1      -0.002  -0.009   0.005  0.00  0.00    +0.004 A 
ATOM      7  C   UNL     1       1.151  -2.203   0.010  0.00  0.00    +0.054 C 
ATOM      8  C   UNL     1       2.466  -2.801  -0.486  0.00  0.00    +0.112 C 
ATOM      9  N   UNL     1       3.567  -2.108   0.203  0.00  0.00    -0.304 N 
ATOM     10  C   UNL     1       3.733  -0.675  -0.062  0.00  0.00    +0.127 C 
ENDROOT
BRANCH   9  11
ATOM     11  C   UNL     1       4.391  -2.765   1.044  0.00  0.00    +0.134 C 
ATOM     12  S   UNL     1       4.089  -4.405   1.431  0.00  0.00    -0.019 S 
BRANCH  11  13
ATOM     13  N   UNL     1       5.452  -2.130   1.581  0.00  0.00    -0.324 N 
ATOM     14  H   UNL     1       5.582  -1.183   1.419  0.00  0.00    +0.148 HD
BRANCH  13  15
ATOM     15  C   UNL     1       6.407  -2.871   2.408  0.00  0.00    +0.072 C 
ATOM     16  C   UNL     1       5.941  -2.875   3.879  0.00  0.00    +0.022 C 
ATOM     17  C   UNL     1       7.253  -2.756   4.694  0.00  0.00    +0.002 C 
ATOM     18  C   UNL     1       8.097  -1.777   3.840  0.00  0.00    +0.002 C 
ATOM     19  C   UNL     1       7.778  -2.173   2.384  0.00  0.00    +0.022 C 
ENDBRANCH  13  15
ENDBRANCH  11  13
ENDBRANCH   9  11
BRANCH  10  20
ATOM     20  C   UNL     1       4.362  -0.482  -1.444  0.00  0.00    +0.168 C 
BRANCH  20  21
ATOM     21  N   UNL     1       5.612  -1.243  -1.521  0.00  0.00    -0.289 NA
ATOM     22  C   UNL     1       5.716  -2.236  -2.347  0.00  0.00    +0.119 C 
BRANCH  22  23
ATOM     23  C   UNL     1       6.971  -3.000  -2.424  0.00  0.00    +0.077 C 
ATOM     24  C   UNL     1       8.039  -2.649  -1.600  0.00  0.00    +0.169 C 
ATOM     25  C   UNL     1       9.337  -3.411  -1.658  0.00  0.00    +0.088 C 
ATOM     26  C   UNL     1       9.056  -4.859  -2.070  0.00  0.00    +0.034 C 
ATOM     27  C   UNL     1       8.343  -4.863  -3.425  0.00  0.00    +0.088 C 
ATOM     28  C   UNL     1       7.069  -4.067  -3.317  0.00  0.00    +0.169 C 
ATOM     29  O   UNL     1       6.115  -4.355  -4.022  0.00  0.00    -0.292 OA
ATOM     30  O   UNL     1       7.921  -1.714  -0.823  0.00  0.00    -0.292 OA
BRANCH  26  31
ATOM     31  C   UNL     1      10.357  -5.612  -2.180  0.00  0.00    -0.043 A 
ATOM     32  C   UNL     1      11.327  -5.190  -3.069  0.00  0.00    +0.007 A 
ATOM     33  C   UNL     1      12.520  -5.880  -3.171  0.00  0.00    +0.038 A 
ATOM     34  C   UNL     1      12.743  -6.995  -2.381  0.00  0.00    +0.123 A 
ATOM     35  C   UNL     1      11.771  -7.418  -1.491  0.00  0.00    +0.038 A 
ATOM     36  C   UNL     1      10.581  -6.723  -1.387  0.00  0.00    +0.007 A 
ATOM     37  F   UNL     1      13.909  -7.671  -2.480  0.00  0.00    -0.205 F 
ENDBRANCH  26  31
ENDBRANCH  22  23
ENDBRANCH  20  21
ENDBRANCH  10  20
TORSDOF 7
