REMARK  Name = ZINC04038361
REMARK  2 active torsions:
REMARK  status: ('A' for Active; 'I' for Inactive)
REMARK    1  A    between atoms: C_9  and  C_11
REMARK    2  A    between atoms: C_12  and  O_22
REMARK                            x       y       z     vdW  Elec       q    Type
REMARK                         _______ _______ _______ _____ _____    ______ ____
ROOT
ATOM      1  C   UNL     1       0.002  -0.004   0.002  0.00  0.00    +0.069 A 
ATOM      2  C   UNL     1      -0.017   1.363   0.009  0.00  0.00    +0.136 A 
ATOM      3  C   UNL     1       1.273   2.072   0.001  0.00  0.00    +0.059 A 
ATOM      4  C   UNL     1       1.328   3.467   0.008  0.00  0.00    +0.015 A 
ATOM      5  C   UNL     1       2.552   4.100  -0.000  0.00  0.00    +0.001 A 
ATOM      6  C   UNL     1       3.724   3.358  -0.015  0.00  0.00    +0.004 A 
ATOM      7  C   UNL     1       3.683   1.979  -0.023  0.00  0.00    +0.047 A 
ATOM      8  C   UNL     1       2.459   1.322  -0.014  0.00  0.00    +0.143 A 
ATOM      9  O   UNL     1       2.402  -0.028  -0.021  0.00  0.00    -0.422 OA
ATOM     10  C   UNL     1       1.230  -0.683  -0.013  0.00  0.00    +0.343 A 
ATOM     11  O   UNL     1       1.233  -1.902  -0.019  0.00  0.00    -0.245 OA
ENDROOT
BRANCH   1  20
ATOM     12  C   UNL     1      -1.905  -2.338   3.944  0.00  0.00    +0.000 A 
ATOM     13  C   UNL     1      -1.441  -1.048   3.764  0.00  0.00    +0.000 A 
ATOM     14  C   UNL     1      -1.246  -0.561   2.487  0.00  0.00    +0.002 A 
ATOM     15  C   UNL     1      -1.514  -1.357   1.383  0.00  0.00    -0.054 A 
ATOM     16  C   UNL     1      -1.975  -2.643   1.564  0.00  0.00    -0.047 A 
ATOM     17  C   UNL     1      -2.171  -3.132   2.847  0.00  0.00    +0.004 A 
ATOM     18  C   UNL     1      -2.274  -3.548   0.397  0.00  0.00    +0.016 C 
ATOM     19  C   UNL     1      -2.399  -2.723  -0.884  0.00  0.00    -0.077 C 
ATOM     20  C   UNL     1      -1.291  -0.778   0.011  0.00  0.00    +0.001 C 
ATOM     21  N   UNL     1      -1.218  -1.847  -0.995  0.00  0.00    +0.387 N 
ATOM     22  H   UNL     1      -1.190  -1.430  -1.933  0.00  0.00    -0.085 HD
ATOM     23  H   UNL     1      -0.367  -2.401  -0.842  0.00  0.00    -0.085 HD
ENDBRANCH   1  20
BRANCH   2  24
ATOM     24  O   UNL     1      -1.185   2.044   0.019  0.00  0.00    -0.506 OA
ATOM     25  H   UNL     1      -1.521   2.237   0.905  0.00  0.00    +0.292 HD
ENDBRANCH   2  24
TORSDOF 2
