REMARK  Name = ZINC18143798
REMARK  8 active torsions:
REMARK  status: ('A' for Active; 'I' for Inactive)
REMARK    1  A    between atoms: C_1  and  C_2
REMARK    2  A    between atoms: C_5  and  N_8
REMARK    3  A    between atoms: N_23  and  C_24
REMARK    4  A    between atoms: C_24  and  C_25
REMARK    5  A    between atoms: N_27  and  C_28
REMARK    6  A    between atoms: C_33  and  C_34
REMARK    7  A    between atoms: C_35  and  C_36
REMARK    8  A    between atoms: C_35  and  C_37
REMARK                            x       y       z     vdW  Elec       q    Type
REMARK                         _______ _______ _______ _____ _____    ______ ____
ROOT
ATOM      1  N   UNL     1       0.072  -4.137  -0.004  0.00  0.00    -0.209 N 
ATOM      2  C   UNL     1       0.078  -4.889   1.122  0.00  0.00    +0.232 C 
ATOM      3  O   UNL     1       0.239  -4.500   2.259  0.00  0.00    -0.274 OA
ATOM      4  C   UNL     1      -0.152  -6.299   0.676  0.00  0.00    +0.109 C 
ATOM      5  C   UNL     1       0.398  -6.315  -0.756  0.00  0.00    +0.152 C 
ATOM      6  C   UNL     1       0.070  -4.860  -1.142  0.00  0.00    +0.240 C 
ATOM      7  O   UNL     1      -0.146  -4.443  -2.259  0.00  0.00    -0.274 OA
ATOM      8  S   UNL     1       2.214  -6.447  -0.732  0.00  0.00    -0.093 S 
ATOM      9  C   UNL     1       2.536  -7.607   0.570  0.00  0.00    +0.091 A 
ATOM     10  C   UNL     1       1.594  -7.916   1.480  0.00  0.00    +0.031 A 
ATOM     11  S   UNL     1       2.415  -9.079   2.540  0.00  0.00    -0.030 S 
ATOM     12  C   UNL     1       3.904  -9.115   1.760  0.00  0.00    +0.292 A 
ATOM     13  O   UNL     1       4.894  -9.764   2.049  0.00  0.00    -0.259 OA
ATOM     14  N   UNL     1       3.739  -8.256   0.738  0.00  0.00    -0.288 N 
ATOM     15  C   UNL     1       0.224  -7.415   1.574  0.00  0.00    +0.012 C 
ATOM     16  C   UNL     1      -0.033  -6.976   3.017  0.00  0.00    +0.017 C 
ATOM     17  C   UNL     1      -0.693  -8.602   1.272  0.00  0.00    +0.017 C 
ENDROOT
BRANCH   1  22
ATOM     18  C   UNL     1       0.026   1.538   0.060  0.00  0.00    +0.044 C 
ATOM     19  C   UNL     1       0.038   0.031   0.043  0.00  0.00    -0.050 A 
ATOM     20  C   UNL     1       0.038  -0.645  -1.163  0.00  0.00    +0.005 A 
ATOM     21  C   UNL     1       0.049  -2.027  -1.182  0.00  0.00    +0.024 A 
ATOM     22  C   UNL     1       0.061  -2.736   0.011  0.00  0.00    +0.044 A 
ATOM     23  C   UNL     1       0.062  -2.054   1.221  0.00  0.00    +0.024 A 
ATOM     24  C   UNL     1       0.056  -0.672   1.233  0.00  0.00    +0.005 A 
ENDBRANCH   1  22
BRANCH  14  25
ATOM     25  C   UNL     1       4.840  -8.010  -0.197  0.00  0.00    +0.222 C 
BRANCH  25  26
ATOM     26  C   UNL     1       5.677  -6.861   0.304  0.00  0.00    +0.237 C 
ATOM     27  O   UNL     1       5.383  -6.302   1.340  0.00  0.00    -0.274 OA
ATOM     28  N   UNL     1       6.752  -6.454  -0.399  0.00  0.00    -0.284 N 
ATOM     29  H   UNL     1       7.035  -6.949  -1.184  0.00  0.00    +0.155 HD
BRANCH  28  30
ATOM     30  C   UNL     1       7.461  -5.316   0.003  0.00  0.00    +0.036 A 
ATOM     31  C   UNL     1       6.830  -4.331   0.751  0.00  0.00    +0.023 A 
ATOM     32  C   UNL     1       7.532  -3.209   1.146  0.00  0.00    +0.002 A 
ATOM     33  C   UNL     1       8.863  -3.066   0.796  0.00  0.00    +0.000 A 
ATOM     34  C   UNL     1       9.494  -4.045   0.051  0.00  0.00    +0.005 A 
ATOM     35  C   UNL     1       8.799  -5.172  -0.342  0.00  0.00    -0.029 A 
ATOM     36  C   UNL     1       9.489  -6.242  -1.148  0.00  0.00    +0.045 C 
ENDBRANCH  28  30
ENDBRANCH  25  26
ENDBRANCH  14  25
TORSDOF 4
