REMARK  Name = ZINC64971974
REMARK  9 active torsions:
REMARK  status: ('A' for Active; 'I' for Inactive)
REMARK    1  A    between atoms: C_1  and  C_2
REMARK    2  A    between atoms: C_4  and  C_35
REMARK    3  A    between atoms: N_5  and  C_23
REMARK    4  A    between atoms: C_8  and  C_9
REMARK    5  A    between atoms: C_11  and  C_14
REMARK    6  A    between atoms: C_23  and  C_24
REMARK    7  A    between atoms: N_26  and  C_27
REMARK    8  A    between atoms: C_27  and  C_28
REMARK    9  A    between atoms: C_28  and  C_29
REMARK                            x       y       z     vdW  Elec       q    Type
REMARK                         _______ _______ _______ _____ _____    ______ ____
ROOT
ATOM      1  C   UNL     1      -0.018   1.503   0.010  0.00  0.00    +0.045 C 
ATOM      2  C   UNL     1       0.002  -0.004   0.002  0.00  0.00    -0.031 A 
ATOM      3  C   UNL     1       0.006  -0.706  -1.205  0.00  0.00    +0.025 A 
ATOM      4  C   UNL     1       0.024  -2.063  -1.203  0.00  0.00    +0.020 A 
ATOM      5  N   UNL     1       0.039  -2.763  -0.043  0.00  0.00    -0.303 N 
ATOM      6  C   UNL     1       0.036  -2.135   1.148  0.00  0.00    +0.265 A 
ATOM      7  O   UNL     1       0.049  -2.782   2.181  0.00  0.00    -0.267 OA
ATOM      8  C   UNL     1       0.023  -0.717   1.197  0.00  0.00    +0.107 A 
ATOM      9  C   UNL     1       0.028  -2.804  -2.515  0.00  0.00    +0.063 C 
ENDROOT
BRANCH   8  10
ATOM     10  C   UNL     1       0.026  -0.012   2.490  0.00  0.00    +0.264 A 
ATOM     11  N   UNL     1       0.051  -0.577   3.677  0.00  0.00    -0.187 NA
ATOM     12  C   UNL     1       0.046   0.365   4.632  0.00  0.00    +0.202 A 
ATOM     13  N   UNL     1       0.019   1.546   4.063  0.00  0.00    -0.056 NA
ATOM     14  O   UNL     1       0.011   1.323   2.661  0.00  0.00    -0.332 OA
BRANCH  12  15
ATOM     15  C   UNL     1       0.068   0.112   6.094  0.00  0.00    +0.026 A 
ATOM     16  C   UNL     1       0.102  -1.196   6.575  0.00  0.00    +0.015 A 
ATOM     17  C   UNL     1       0.122  -1.430   7.935  0.00  0.00    +0.050 A 
ATOM     18  C   UNL     1       0.108  -0.367   8.826  0.00  0.00    +0.166 A 
ATOM     19  C   UNL     1       0.075   0.942   8.350  0.00  0.00    +0.167 A 
ATOM     20  C   UNL     1       0.061   1.181   6.987  0.00  0.00    +0.061 A 
ATOM     21  O   UNL     1       0.068   1.794   9.416  0.00  0.00    -0.453 OA
ATOM     22  C   UNL     1      -0.315   0.990  10.547  0.00  0.00    +0.466 C 
ATOM     23  O   UNL     1       0.122  -0.334  10.190  0.00  0.00    -0.453 OA
ENDBRANCH  12  15
ENDBRANCH   8  10
BRANCH   5  24
ATOM     24  C   UNL     1       0.058  -4.228  -0.085  0.00  0.00    +0.220 C 
BRANCH  24  25
ATOM     25  C   UNL     1       1.485  -4.711  -0.106  0.00  0.00    +0.233 C 
ATOM     26  O   UNL     1       2.396  -3.912  -0.088  0.00  0.00    -0.274 OA
ATOM     27  N   UNL     1       1.748  -6.033  -0.145  0.00  0.00    -0.314 N 
ATOM     28  H   UNL     1       1.019  -6.672  -0.160  0.00  0.00    +0.149 HD
BRANCH  27  29
ATOM     29  C   UNL     1       3.135  -6.503  -0.166  0.00  0.00    +0.109 C 
BRANCH  29  30
ATOM     30  C   UNL     1       3.155  -8.032  -0.210  0.00  0.00    +0.054 C 
BRANCH  30  31
ATOM     31  C   UNL     1       4.582  -8.516  -0.231  0.00  0.00    -0.046 A 
ATOM     32  C   UNL     1       5.232  -8.698  -1.437  0.00  0.00    +0.004 A 
ATOM     33  C   UNL     1       6.541  -9.142  -1.456  0.00  0.00    +0.000 A 
ATOM     34  C   UNL     1       7.200  -9.403  -0.270  0.00  0.00    +0.000 A 
ATOM     35  C   UNL     1       6.550  -9.220   0.937  0.00  0.00    +0.000 A 
ATOM     36  C   UNL     1       5.242  -8.772   0.956  0.00  0.00    +0.004 A 
ENDBRANCH  30  31
ENDBRANCH  29  30
ENDBRANCH  27  29
ENDBRANCH  24  25
ENDBRANCH   5  24
TORSDOF 7
