REMARK  Name = ZINC36027392
REMARK  9 active torsions:
REMARK  status: ('A' for Active; 'I' for Inactive)
REMARK    1  A    between atoms: C_1  and  C_2
REMARK    2  A    between atoms: C_2  and  C_3
REMARK    3  A    between atoms: C_3  and  C_5
REMARK    4  A    between atoms: C_3  and  C_6
REMARK    5  A    between atoms: C_6  and  N_7
REMARK    6  A    between atoms: C_10  and  C_30
REMARK    7  A    between atoms: N_16  and  S_19
REMARK    8  A    between atoms: S_19  and  C_22
REMARK    9  A    between atoms: C_30  and  C_31
REMARK                            x       y       z     vdW  Elec       q    Type
REMARK                         _______ _______ _______ _____ _____    ______ ____
ROOT
ATOM      1  N   UNL     1       1.470  -2.474  -2.365  0.00  0.00    -0.313 N 
ATOM      2  C   UNL     1       0.956  -2.647  -3.600  0.00  0.00    +0.201 C 
ATOM      3  O   UNL     1      -0.196  -2.446  -3.923  0.00  0.00    -0.277 OA
ATOM      4  C   UNL     1       2.058  -3.135  -4.515  0.00  0.00    +0.023 C 
ATOM      5  N   UNL     1       3.315  -2.830  -3.790  0.00  0.00    +0.401 N 
ATOM      6  C   UNL     1       2.894  -2.822  -2.375  0.00  0.00    +0.006 C 
ATOM      7  C   UNL     1       3.699  -1.780  -1.601  0.00  0.00    +0.023 C 
ATOM      8  C   UNL     1       3.230  -1.757  -0.142  0.00  0.00    +0.109 C 
ATOM      9  N   UNL     1       3.309  -3.120   0.402  0.00  0.00    -0.177 NA
ATOM     10  C   UNL     1       2.628  -4.207  -0.314  0.00  0.00    +0.109 C 
ATOM     11  C   UNL     1       3.102  -4.210  -1.771  0.00  0.00    +0.023 C 
ATOM     12  H   UNL     1       4.005  -3.547  -3.955  0.00  0.00    -0.082 HD
ATOM     13  H   UNL     1       3.670  -1.924  -4.057  0.00  0.00    -0.082 HD
ENDROOT
BRANCH   9  14
ATOM     14  S   UNL     1       4.149  -3.424   1.796  0.00  0.00    +0.061 S 
ATOM     15  O   UNL     1       4.515  -4.796   1.758  0.00  0.00    -0.153 OA
ATOM     16  O   UNL     1       5.107  -2.383   1.928  0.00  0.00    -0.153 OA
BRANCH  14  17
ATOM     17  C   UNL     1       3.019  -3.241   3.135  0.00  0.00    +0.107 A 
ATOM     18  C   UNL     1       2.856  -2.008   3.739  0.00  0.00    +0.030 A 
ATOM     19  C   UNL     1       1.970  -1.863   4.790  0.00  0.00    +0.023 A 
ATOM     20  C   UNL     1       1.245  -2.953   5.239  0.00  0.00    +0.059 A 
ATOM     21  C   UNL     1       1.408  -4.187   4.634  0.00  0.00    +0.061 A 
ATOM     22  C   UNL     1       2.291  -4.329   3.579  0.00  0.00    +0.050 A 
ATOM     23 CL   UNL     1       0.499  -5.556   5.196  0.00  0.00    -0.082 Cl
ATOM     24 CL   UNL     1       0.133  -2.771   6.559  0.00  0.00    -0.082 Cl
ENDBRANCH  14  17
ENDBRANCH   9  14
BRANCH   1  25
ATOM     25  C   UNL     1       0.723  -2.004  -1.196  0.00  0.00    +0.109 C 
BRANCH  25  26
ATOM     26  C   UNL     1       0.475  -0.500  -1.320  0.00  0.00    +0.003 C 
ATOM     27  C   UNL     1       1.796   0.212  -1.619  0.00  0.00    +0.009 C 
BRANCH  26  29
ATOM     28  C   UNL     1      -0.470   1.508  -0.172  0.00  0.00    +0.004 C 
ATOM     29  C   UNL     1      -0.106   0.031  -0.008  0.00  0.00    +0.001 C 
ENDBRANCH  26  29
ENDBRANCH  25  26
ENDBRANCH   1  25
BRANCH   4  30
ATOM     30  C   UNL     1       2.014  -2.386  -5.849  0.00  0.00    +0.028 C 
BRANCH  30  31
ATOM     31  C   UNL     1       3.063  -2.947  -6.775  0.00  0.00    -0.048 A 
ATOM     32  C   UNL     1       4.339  -2.416  -6.777  0.00  0.00    +0.003 A 
ATOM     33  C   UNL     1       5.301  -2.930  -7.626  0.00  0.00    +0.000 A 
ATOM     34  C   UNL     1       4.986  -3.977  -8.473  0.00  0.00    +0.000 A 
ATOM     35  C   UNL     1       3.710  -4.508  -8.471  0.00  0.00    +0.000 A 
ATOM     36  C   UNL     1       2.750  -3.997  -7.618  0.00  0.00    +0.003 A 
ENDBRANCH  30  31
ENDBRANCH   4  30
TORSDOF 7
