REMARK  Name = ZINC13444607
REMARK  10 active torsions:
REMARK  status: ('A' for Active; 'I' for Inactive)
REMARK    1  A    between atoms: C_1  and  C_2
REMARK    2  A    between atoms: C_2  and  O_3
REMARK    3  A    between atoms: O_3  and  C_4
REMARK    4  A    between atoms: C_9  and  N_10
REMARK    5  A    between atoms: C_11  and  C_13
REMARK    6  A    between atoms: C_13  and  S_14
REMARK    7  A    between atoms: S_14  and  C_15
REMARK    8  A    between atoms: C_19  and  C_27
REMARK    9  A    between atoms: N_25  and  C_26
REMARK   10  A    between atoms: C_30  and  C_33
REMARK                            x       y       z     vdW  Elec       q    Type
REMARK                         _______ _______ _______ _____ _____    ______ ____
ROOT
ATOM      1  N   UNL     1      -0.288   1.272  -2.443  0.00  0.00    -0.282 N 
ATOM      2  C   UNL     1      -0.743   1.583  -1.213  0.00  0.00    +0.228 C 
ATOM      3  O   UNL     1      -1.733   2.272  -1.088  0.00  0.00    -0.275 OA
ATOM      4  H   UNL     1       0.547   0.790  -2.544  0.00  0.00    +0.155 HD
ENDROOT
BRANCH   1  10
ATOM      5  C   UNL     1      -0.378   1.807  -4.800  0.00  0.00    +0.142 A 
ATOM      6  C   UNL     1      -1.111   2.174  -5.918  0.00  0.00    +0.055 A 
ATOM      7  C   UNL     1      -2.470   2.379  -5.814  0.00  0.00    +0.001 A 
ATOM      8  C   UNL     1      -3.124   2.229  -4.598  0.00  0.00    +0.126 A 
ATOM      9  C   UNL     1      -2.389   1.852  -3.478  0.00  0.00    +0.073 A 
ATOM     10  C   UNL     1      -1.022   1.647  -3.576  0.00  0.00    +0.079 A 
ATOM     11  O   UNL     1      -4.455   2.493  -4.718  0.00  0.00    -0.488 OA
ATOM     12  C   UNL     1      -4.832   2.401  -6.102  0.00  0.00    +0.175 C 
ATOM     13  C   UNL     1      -3.521   2.760  -6.839  0.00  0.00    +0.083 C 
ATOM     14  C   UNL     1      -5.277   0.979  -6.449  0.00  0.00    +0.052 C 
BRANCH   5  15
ATOM     15  O   UNL     1       0.964   1.604  -4.898  0.00  0.00    -0.490 OA
BRANCH  15  17
ATOM     16  C   UNL     1       3.059   1.518  -6.100  0.00  0.00    +0.048 C 
ATOM     17  C   UNL     1       1.556   1.788  -6.186  0.00  0.00    +0.226 C 
ENDBRANCH  15  17
ENDBRANCH   5  15
ENDBRANCH   1  10
BRANCH   2  18
ATOM     18  C   UNL     1      -0.021   1.073   0.008  0.00  0.00    +0.173 C 
BRANCH  18  19
ATOM     19  S   UNL     1      -0.868   1.656   1.497  0.00  0.00    -0.078 S 
BRANCH  19  20
ATOM     20  C   UNL     1       0.158   0.935   2.735  0.00  0.00    +0.172 A 
ATOM     21  N   UNL     1       1.184   0.216   2.354  0.00  0.00    -0.223 NA
ATOM     22  C   UNL     1       2.017  -0.363   3.252  0.00  0.00    +0.080 A 
ATOM     23  C   UNL     1       3.115  -1.125   2.843  0.00  0.00    +0.043 A 
ATOM     24  C   UNL     1       3.938  -1.704   3.801  0.00  0.00    +0.065 A 
ATOM     25  C   UNL     1       3.674  -1.527   5.165  0.00  0.00    +0.016 A 
ATOM     26  C   UNL     1       2.604  -0.785   5.576  0.00  0.00    +0.016 A 
ATOM     27  C   UNL     1       1.765  -0.195   4.632  0.00  0.00    +0.065 A 
ATOM     28  C   UNL     1       0.602   0.614   5.031  0.00  0.00    +0.262 A 
ATOM     29  O   UNL     1       0.332   0.795   6.204  0.00  0.00    -0.267 OA
ATOM     30  N   UNL     1      -0.157   1.148   4.047  0.00  0.00    -0.290 N 
ATOM     31  C   UNL     1      -1.326   1.961   4.391  0.00  0.00    +0.154 C 
BRANCH  24  32
ATOM     32  C   UNL     1       5.102  -2.513   3.376  0.00  0.00    +0.387 C 
ATOM     33  O   UNL     1       5.335  -2.668   2.195  0.00  0.00    -0.241 OA
ATOM     34  O   UNL     1       5.904  -3.076   4.301  0.00  0.00    -0.241 OA
ENDBRANCH  24  32
ENDBRANCH  19  20
ENDBRANCH  18  19
ENDBRANCH   2  18
TORSDOF 7
