REMARK  Name = ZINC18343656
REMARK  6 active torsions:
REMARK  status: ('A' for Active; 'I' for Inactive)
REMARK    1  A    between atoms: C_1  and  C_2
REMARK    2  A    between atoms: C_2  and  C_4
REMARK    3  A    between atoms: C_2  and  O_17
REMARK    4  A    between atoms: O_17  and  C_18
REMARK    5  A    between atoms: C_18  and  C_20
REMARK    6  A    between atoms: C_26  and  C_29
REMARK                            x       y       z     vdW  Elec       q    Type
REMARK                         _______ _______ _______ _____ _____    ______ ____
ROOT
ATOM      1  O   UNL     1      -3.647   1.662   0.382  0.00  0.00    -0.449 OA
ENDROOT
BRANCH   1   3
ATOM      2  C   UNL     1      -5.181   0.601   1.948  0.00  0.00    +0.062 C 
ATOM      3  C   UNL     1      -4.849   0.852   0.475  0.00  0.00    +0.259 C 
BRANCH   3   4
ATOM      4  C   UNL     1      -5.995   1.577  -0.181  0.00  0.00    +0.261 C 
ATOM      5  O   UNL     1      -5.817   2.668  -0.680  0.00  0.00    -0.271 OA
ATOM      6  N   UNL     1      -7.218   1.012  -0.216  0.00  0.00    -0.258 N 
ATOM      7  C   UNL     1      -7.459  -0.313   0.376  0.00  0.00    +0.209 C 
ATOM      8  C   UNL     1      -8.345  -1.111  -0.540  0.00  0.00    +0.235 C 
ATOM      9  O   UNL     1      -8.256  -2.321  -0.554  0.00  0.00    -0.274 OA
ATOM     10  N   UNL     1      -9.231  -0.500  -1.349  0.00  0.00    -0.283 N 
ATOM     11  C   UNL     1      -9.319   0.896  -1.389  0.00  0.00    +0.055 A 
ATOM     12  C   UNL     1      -8.302   1.666  -0.822  0.00  0.00    +0.058 A 
ATOM     13  C   UNL     1      -8.372   3.047  -0.860  0.00  0.00    +0.025 A 
ATOM     14  C   UNL     1      -9.456   3.663  -1.461  0.00  0.00    +0.002 A 
ATOM     15  C   UNL     1     -10.465   2.902  -2.021  0.00  0.00    +0.002 A 
ATOM     16  C   UNL     1     -10.401   1.521  -1.987  0.00  0.00    +0.025 A 
ATOM     17  H   UNL     1      -9.816  -1.034  -1.910  0.00  0.00    +0.155 HD
ENDBRANCH   3   4
ENDBRANCH   1   3
BRANCH   1  18
ATOM     18  C   UNL     1      -2.471   1.007   0.323  0.00  0.00    +0.340 C 
ATOM     19  O   UNL     1      -2.450  -0.208   0.350  0.00  0.00    -0.245 OA
BRANCH  18  20
ATOM     20  C   UNL     1      -1.211   1.763   0.227  0.00  0.00    +0.060 A 
ATOM     21  C   UNL     1      -1.249   3.174   0.203  0.00  0.00    +0.017 A 
ATOM     22  C   UNL     1      -0.122   3.915   0.110  0.00  0.00    +0.032 A 
ATOM     23  C   UNL     1       1.136   3.276   0.041  0.00  0.00    +0.114 A 
ATOM     24  C   UNL     1       1.183   1.798   0.072  0.00  0.00    +0.050 A 
ATOM     25  C   UNL     1      -0.006   1.077   0.168  0.00  0.00    +0.028 A 
ATOM     26  C   UNL     1       2.550   1.525  -0.014  0.00  0.00    +0.175 A 
ATOM     27  O   UNL     1       3.157   2.720  -0.082  0.00  0.00    -0.353 OA
ATOM     28  N   UNL     1       2.389   3.655  -0.052  0.00  0.00    -0.078 NA
BRANCH  26  29
ATOM     29  C   UNL     1       3.193   0.199  -0.027  0.00  0.00    +0.021 A 
ATOM     30  C   UNL     1       2.813  -0.775   0.901  0.00  0.00    +0.011 A 
ATOM     31  C   UNL     1       3.416  -2.015   0.879  0.00  0.00    +0.001 A 
ATOM     32  C   UNL     1       4.403  -2.293  -0.052  0.00  0.00    +0.000 A 
ATOM     33  C   UNL     1       4.788  -1.331  -0.970  0.00  0.00    +0.001 A 
ATOM     34  C   UNL     1       4.190  -0.089  -0.964  0.00  0.00    +0.011 A 
ENDBRANCH  26  29
ENDBRANCH  18  20
ENDBRANCH   1  18
TORSDOF 5
