REMARK  Name = ZINC59249225
REMARK  9 active torsions:
REMARK  status: ('A' for Active; 'I' for Inactive)
REMARK    1  A    between atoms: C_1  and  C_2
REMARK    2  A    between atoms: C_5  and  N_8
REMARK    3  A    between atoms: C_9  and  C_11
REMARK    4  A    between atoms: C_15  and  N_16
REMARK    5  A    between atoms: C_17  and  C_32
REMARK    6  A    between atoms: C_19  and  C_22
REMARK    7  A    between atoms: C_20  and  C_21
REMARK    8  A    between atoms: N_23  and  C_24
REMARK    9  A    between atoms: C_29  and  C_30
REMARK                            x       y       z     vdW  Elec       q    Type
REMARK                         _______ _______ _______ _____ _____    ______ ____
ROOT
ATOM      1  C   UNL     1       0.177  -6.066   0.175  0.00  0.00    +0.072 A 
ATOM      2  C   UNL     1       1.555  -6.516   0.240  0.00  0.00    -0.023 A 
ATOM      3  C   UNL     1       1.730  -7.664   0.931  0.00  0.00    -0.004 A 
ATOM      4  S   UNL     1       0.106  -8.115   1.468  0.00  0.00    -0.075 S 
ATOM      5  C   UNL     1      -0.775  -6.842   0.817  0.00  0.00    +0.097 A 
ATOM      6  C   UNL     1       3.022  -8.380   1.174  0.00  0.00    +0.043 C 
ATOM      7  C   UNL     1       4.073  -7.820   0.205  0.00  0.00    +0.005 C 
ATOM      8  C   UNL     1       4.025  -6.290   0.251  0.00  0.00    +0.005 C 
ATOM      9  C   UNL     1       2.731  -5.790  -0.396  0.00  0.00    +0.037 C 
ENDROOT
BRANCH   5  10
ATOM     10  N   UNL     1      -2.145  -6.620   0.900  0.00  0.00    -0.311 N 
ATOM     11  C   UNL     1      -3.071  -7.099   0.015  0.00  0.00    +0.022 A 
ATOM     12  C   UNL     1      -4.295  -6.695   0.397  0.00  0.00    +0.032 A 
ATOM     13  C   UNL     1      -4.113  -5.900   1.618  0.00  0.00    +0.014 A 
ATOM     14  C   UNL     1      -2.758  -5.900   1.875  0.00  0.00    +0.030 A 
ATOM     15  C   UNL     1      -2.076  -5.216   3.032  0.00  0.00    +0.064 C 
ATOM     16  C   UNL     1      -2.768  -7.945  -1.194  0.00  0.00    +0.064 C 
BRANCH  13  17
ATOM     17  C   UNL     1      -5.162  -5.244   2.409  0.00  0.00    +0.121 C 
ATOM     18  N   UNL     1      -4.845  -4.566   3.478  0.00  0.00    -0.255 NA
BRANCH  18  19
ATOM     19  C   UNL     1      -5.828  -4.046   4.276  0.00  0.00    +0.068 A 
ATOM     20  C   UNL     1      -6.918  -4.836   4.650  0.00  0.00    +0.048 A 
ATOM     21  C   UNL     1      -7.906  -4.306   5.454  0.00  0.00    +0.043 A 
ATOM     22  C   UNL     1      -7.819  -2.993   5.889  0.00  0.00    +0.020 A 
ATOM     23  C   UNL     1      -6.742  -2.207   5.521  0.00  0.00    +0.007 A 
ATOM     24  C   UNL     1      -5.744  -2.726   4.723  0.00  0.00    -0.025 A 
ATOM     25  C   UNL     1      -4.569  -1.869   4.329  0.00  0.00    +0.046 C 
ATOM     26 CL   UNL     1      -9.261  -5.285   5.921  0.00  0.00    -0.083 Cl
ENDBRANCH  18  19
ENDBRANCH  13  17
ENDBRANCH   5  10
BRANCH   1  28
ATOM     27  N   UNL     1      -0.510  -4.886  -1.845  0.00  0.00    -0.281 N 
ATOM     28  C   UNL     1      -0.193  -4.837  -0.536  0.00  0.00    +0.251 C 
ATOM     29  O   UNL     1      -0.214  -3.774   0.056  0.00  0.00    -0.270 OA
ATOM     30  H   UNL     1      -0.518  -5.736  -2.311  0.00  0.00    +0.155 HD
BRANCH  27  35
ATOM     31  C   UNL     1      -1.795  -0.114  -4.631  0.00  0.00    +0.044 C 
ATOM     32  C   UNL     1      -1.454  -1.382  -3.890  0.00  0.00    -0.050 A 
ATOM     33  C   UNL     1      -0.761  -2.391  -4.534  0.00  0.00    +0.005 A 
ATOM     34  C   UNL     1      -0.446  -3.554  -3.858  0.00  0.00    +0.023 A 
ATOM     35  C   UNL     1      -0.827  -3.709  -2.532  0.00  0.00    +0.034 A 
ATOM     36  C   UNL     1      -1.522  -2.693  -1.888  0.00  0.00    +0.023 A 
ATOM     37  C   UNL     1      -1.829  -1.531  -2.568  0.00  0.00    +0.005 A 
ENDBRANCH  27  35
ENDBRANCH   1  28
TORSDOF 5
