REMARK  Name = ZINC08922497
REMARK  11 active torsions:
REMARK  status: ('A' for Active; 'I' for Inactive)
REMARK    1  A    between atoms: C_1  and  O_2
REMARK    2  A    between atoms: O_2  and  C_3
REMARK    3  A    between atoms: C_8  and  O_9
REMARK    4  A    between atoms: O_9  and  C_10
REMARK    5  A    between atoms: C_11  and  C_25
REMARK    6  A    between atoms: N_13  and  C_16
REMARK    7  A    between atoms: C_16  and  N_18
REMARK    8  A    between atoms: N_18  and  C_19
REMARK    9  A    between atoms: C_25  and  O_26
REMARK   10  A    between atoms: O_26  and  C_27
REMARK   11  A    between atoms: C_31  and  C_33
REMARK                            x       y       z     vdW  Elec       q    Type
REMARK                         _______ _______ _______ _____ _____    ______ ____
ROOT
ATOM      1  C   UNL     1      -1.617   1.296   3.750  0.00  0.00    +0.162 A 
ATOM      2  C   UNL     1      -0.904   0.834   2.660  0.00  0.00    +0.053 A 
ATOM      3  C   UNL     1      -0.951   1.509   1.446  0.00  0.00    -0.037 A 
ATOM      4  C   UNL     1      -1.719   2.646   1.329  0.00  0.00    -0.017 A 
ATOM      5  C   UNL     1      -2.433   3.116   2.423  0.00  0.00    +0.055 A 
ATOM      6  C   UNL     1      -2.387   2.449   3.631  0.00  0.00    +0.162 A 
ATOM      7  C   UNL     1      -1.826   3.418   0.037  0.00  0.00    +0.143 C 
ATOM      8  N   UNL     1      -0.818   2.934  -0.912  0.00  0.00    -0.302 N 
ATOM      9  C   UNL     1      -0.650   1.476  -1.034  0.00  0.00    +0.112 C 
ATOM     10  C   UNL     1      -0.140   0.950   0.306  0.00  0.00    +0.054 C 
ENDROOT
BRANCH   1  12
ATOM     11  C   UNL     1      -0.754  -0.548   4.980  0.00  0.00    +0.277 C 
ATOM     12  O   UNL     1      -1.565   0.627   4.933  0.00  0.00    -0.491 OA
ENDBRANCH   1  12
BRANCH   6  13
ATOM     13  O   UNL     1      -3.089   2.916   4.699  0.00  0.00    -0.491 OA
ATOM     14  C   UNL     1      -3.857   4.104   4.500  0.00  0.00    +0.277 C 
ENDBRANCH   6  13
BRANCH   8  15
ATOM     15  C   UNL     1      -0.076   3.789  -1.643  0.00  0.00    +0.134 C 
ATOM     16  S   UNL     1      -0.437   5.463  -1.630  0.00  0.00    -0.019 S 
BRANCH  15  17
ATOM     17  N   UNL     1       0.950   3.327  -2.385  0.00  0.00    -0.324 N 
ATOM     18  H   UNL     1       1.110   2.372  -2.450  0.00  0.00    +0.148 HD
BRANCH  17  19
ATOM     19  C   UNL     1       1.823   4.266  -3.093  0.00  0.00    +0.072 C 
ATOM     20  C   UNL     1       1.200   4.622  -4.444  0.00  0.00    +0.022 C 
ATOM     21  C   UNL     1       2.111   5.603  -5.184  0.00  0.00    +0.002 C 
ATOM     22  C   UNL     1       3.480   4.957  -5.409  0.00  0.00    +0.000 C 
ATOM     23  C   UNL     1       4.104   4.600  -4.058  0.00  0.00    +0.002 C 
ATOM     24  C   UNL     1       3.192   3.619  -3.318  0.00  0.00    +0.022 C 
ENDBRANCH  17  19
ENDBRANCH  15  17
ENDBRANCH   8  15
BRANCH   7  25
ATOM     25  C   UNL     1      -1.594   4.905   0.313  0.00  0.00    +0.256 C 
BRANCH  25  26
ATOM     26  O   UNL     1      -0.220   5.120   0.642  0.00  0.00    -0.490 OA
BRANCH  26  27
ATOM     27  C   UNL     1       0.156   6.396   0.916  0.00  0.00    +0.121 A 
ATOM     28  C   UNL     1      -0.777   7.422   0.864  0.00  0.00    +0.045 A 
ATOM     29  C   UNL     1      -0.393   8.718   1.150  0.00  0.00    +0.004 A 
ATOM     30  C   UNL     1       0.922   8.995   1.475  0.00  0.00    +0.012 A 
ATOM     31  C   UNL     1       1.855   7.976   1.522  0.00  0.00    +0.058 A 
ATOM     32  C   UNL     1       1.475   6.677   1.243  0.00  0.00    +0.058 A 
BRANCH  31  33
ATOM     33  C   UNL     1       3.287   8.281   1.877  0.00  0.00    +0.418 C 
ATOM     34  F   UNL     1       4.005   8.569   0.711  0.00  0.00    -0.166 F 
ATOM     35  F   UNL     1       3.330   9.385   2.735  0.00  0.00    -0.166 F 
ATOM     36  F   UNL     1       3.857   7.173   2.513  0.00  0.00    -0.166 F 
ENDBRANCH  31  33
ENDBRANCH  26  27
ENDBRANCH  25  26
ENDBRANCH   7  25
TORSDOF 9
