REMARK  Name = ZINC63279419
REMARK  7 active torsions:
REMARK  status: ('A' for Active; 'I' for Inactive)
REMARK    1  A    between atoms: C_1  and  C_2
REMARK    2  A    between atoms: C_2  and  C_4
REMARK    3  A    between atoms: C_2  and  N_12
REMARK    4  A    between atoms: C_21  and  C_23
REMARK    5  A    between atoms: C_23  and  C_24
REMARK    6  A    between atoms: C_24  and  C_25
REMARK    7  A    between atoms: C_25  and  C_26
REMARK                            x       y       z     vdW  Elec       q    Type
REMARK                         _______ _______ _______ _____ _____    ______ ____
ROOT
ATOM      1  N   UNL     1      -1.370  -0.515   0.012  0.00  0.00    -0.288 N 
ATOM      2  C   UNL     1      -2.051  -0.643  -1.145  0.00  0.00    +0.303 C 
ATOM      3  O   UNL     1      -1.559  -0.253  -2.186  0.00  0.00    -0.253 OA
ATOM      4  N   UNL     1      -3.277  -1.203  -1.147  0.00  0.00    -0.283 N 
ATOM      5  C   UNL     1      -3.934  -1.569   0.115  0.00  0.00    +0.128 C 
ATOM      6  C   UNL     1      -5.305  -0.884   0.170  0.00  0.00    +0.127 C 
ATOM      7  N   UNL     1      -6.009  -1.139  -1.095  0.00  0.00    -0.298 N 
ATOM      8  C   UNL     1      -5.351  -0.773  -2.357  0.00  0.00    +0.127 C 
ATOM      9  C   UNL     1      -3.982  -1.453  -2.412  0.00  0.00    +0.128 C 
ATOM     10  C   UNL     1      -7.235  -1.699  -1.097  0.00  0.00    +0.216 C 
ATOM     11  O   UNL     1      -7.767  -1.997  -0.049  0.00  0.00    -0.276 OA
ATOM     12  H   UNL     1      -1.791  -0.760   0.851  0.00  0.00    +0.151 HD
ENDROOT
BRANCH   1  14
ATOM     13  C   UNL     1      -0.017   1.522   0.015  0.00  0.00    +0.038 C 
ATOM     14  C   UNL     1       0.004  -0.008   0.001  0.00  0.00    +0.158 C 
BRANCH  14  15
ATOM     15  C   UNL     1       0.735  -0.511   1.219  0.00  0.00    +0.239 C 
ATOM     16  O   UNL     1       0.164  -1.224   2.017  0.00  0.00    -0.273 OA
ATOM     17  N   UNL     1       2.023  -0.170   1.421  0.00  0.00    -0.263 N 
ATOM     18  C   UNL     1       2.697  -0.634   2.544  0.00  0.00    +0.164 A 
ATOM     19  N   UNL     1       2.247  -1.413   3.504  0.00  0.00    -0.233 NA
ATOM     20  C   UNL     1       3.020  -1.768   4.513  0.00  0.00    +0.120 A 
ATOM     21  C   UNL     1       4.290  -1.295   4.513  0.00  0.00    +0.068 A 
ATOM     22  S   UNL     1       4.290  -0.343   3.002  0.00  0.00    -0.061 S 
ATOM     23  H   UNL     1       2.479   0.400   0.782  0.00  0.00    +0.157 HD
ENDBRANCH  14  15
ENDBRANCH   1  14
BRANCH  10  24
ATOM     24  C   UNL     1      -7.944  -1.954  -2.402  0.00  0.00    +0.096 C 
BRANCH  24  25
ATOM     25  C   UNL     1      -9.307  -2.592  -2.125  0.00  0.00    +0.014 C 
BRANCH  25  26
ATOM     26  C   UNL     1     -10.027  -2.851  -3.450  0.00  0.00    +0.033 C 
BRANCH  26  27
ATOM     27  C   UNL     1     -11.370  -3.479  -3.178  0.00  0.00    -0.042 C 
ATOM     28  C   UNL     1     -12.559  -2.843  -3.077  0.00  0.00    -0.001 A 
ATOM     29  C   UNL     1     -12.944  -1.431  -3.186  0.00  0.00    +0.010 A 
ATOM     30  C   UNL     1     -14.245  -1.092  -3.034  0.00  0.00    +0.001 A 
ATOM     31  C   UNL     1     -15.231  -2.053  -2.775  0.00  0.00    +0.002 A 
ATOM     32  C   UNL     1     -14.955  -3.369  -2.661  0.00  0.00    +0.026 A 
ATOM     33  C   UNL     1     -13.620  -3.838  -2.804  0.00  0.00    +0.043 A 
ATOM     34  N   UNL     1     -13.107  -5.043  -2.737  0.00  0.00    -0.380 N 
ATOM     35  C   UNL     1     -11.661  -4.948  -2.968  0.00  0.00    +0.144 C 
ATOM     36  H   UNL     1     -13.600  -5.860  -2.568  0.00  0.00    +0.160 HD
ENDBRANCH  26  27
ENDBRANCH  25  26
ENDBRANCH  24  25
ENDBRANCH  10  24
TORSDOF 6
