REMARK  Name = ZINC38732545
REMARK  3 active torsions:
REMARK  status: ('A' for Active; 'I' for Inactive)
REMARK    1  A    between atoms: C_13  and  C_15
REMARK    2  A    between atoms: C_21  and  C_23
REMARK    3  A    between atoms: N_28  and  C_31
REMARK                            x       y       z     vdW  Elec       q    Type
REMARK                         _______ _______ _______ _____ _____    ______ ____
ROOT
ATOM      1  C   UNL     1       0.166  -6.648   1.136  0.00  0.00    +0.087 C 
ATOM      2  C   UNL     1      -0.691  -6.210   2.325  0.00  0.00    +0.013 C 
ATOM      3  C   UNL     1      -1.990  -7.018   2.343  0.00  0.00    +0.001 C 
ATOM      4  C   UNL     1      -1.663  -8.507   2.471  0.00  0.00    +0.001 C 
ATOM      5  C   UNL     1      -0.806  -8.945   1.282  0.00  0.00    +0.013 C 
ATOM      6  C   UNL     1       0.493  -8.137   1.264  0.00  0.00    +0.087 C 
ENDROOT
BRANCH   1  19
ATOM      7  C   UNL     1       2.468   1.098  -1.343  0.00  0.00    +0.005 A 
ATOM      8  C   UNL     1       1.232   1.681  -1.591  0.00  0.00    +0.018 A 
ATOM      9  C   UNL     1       0.096   0.898  -1.561  0.00  0.00    +0.084 A 
ATOM     10  N   UNL     1       0.172  -0.394  -1.302  0.00  0.00    -0.350 N 
ATOM     11  C   UNL     1       1.330  -0.987  -1.060  0.00  0.00    +0.099 A 
ATOM     12  C   UNL     1       2.515  -0.258  -1.075  0.00  0.00    +0.042 A 
ATOM     13  N   UNL     1       1.364  -2.350  -0.791  0.00  0.00    -0.314 N 
ATOM     14  C   UNL     1       2.646  -3.052  -0.642  0.00  0.00    +0.125 C 
ATOM     15  C   UNL     1       2.660  -3.765   0.716  0.00  0.00    +0.126 C 
ATOM     16  N   UNL     1       1.413  -4.530   0.857  0.00  0.00    -0.298 N 
ATOM     17  C   UNL     1       0.131  -3.828   0.708  0.00  0.00    +0.126 C 
ATOM     18  C   UNL     1       0.117  -3.114  -0.644  0.00  0.00    +0.125 C 
ATOM     19  C   UNL     1       1.445  -5.852   1.118  0.00  0.00    +0.219 C 
ATOM     20  O   UNL     1       2.504  -6.401   1.339  0.00  0.00    -0.275 OA
ATOM     21  H   UNL     1      -0.642  -0.922  -1.287  0.00  0.00    +0.166 HD
ENDBRANCH   1  19
BRANCH   6  22
ATOM     22  C   UNL     1       1.337  -8.568   0.092  0.00  0.00    +0.219 C 
ATOM     23  O   UNL     1       1.161  -8.068  -0.999  0.00  0.00    -0.275 OA
ATOM     24  N   UNL     1       2.287  -9.510   0.256  0.00  0.00    -0.298 N 
ATOM     25  C   UNL     1       2.432 -10.211   1.540  0.00  0.00    +0.126 C 
ATOM     26  C   UNL     1       2.344 -11.721   1.286  0.00  0.00    +0.124 C 
ATOM     27  N   UNL     1       3.254 -12.066   0.184  0.00  0.00    -0.325 N 
ATOM     28  C   UNL     1       3.110 -11.364  -1.099  0.00  0.00    +0.124 C 
ATOM     29  C   UNL     1       3.193  -9.858  -0.847  0.00  0.00    +0.126 C 
BRANCH  27  30
ATOM     30  C   UNL     1       4.236 -13.039   0.354  0.00  0.00    +0.070 A 
ATOM     31  C   UNL     1       5.507 -12.700   0.819  0.00  0.00    +0.081 A 
ATOM     32  C   UNL     1       6.452 -13.694   0.974  0.00  0.00    +0.132 A 
ATOM     33  N   UNL     1       6.165 -14.950   0.688  0.00  0.00    -0.260 NA
ATOM     34  C   UNL     1       4.975 -15.312   0.246  0.00  0.00    +0.132 A 
ATOM     35  C   UNL     1       3.973 -14.379   0.069  0.00  0.00    +0.081 A 
ATOM     36 CL   UNL     1       2.409 -14.866  -0.506  0.00  0.00    -0.080 Cl
ATOM     37 CL   UNL     1       5.896 -11.050   1.196  0.00  0.00    -0.080 Cl
ENDBRANCH  27  30
ENDBRANCH   6  22
TORSDOF 3
