REMARK  Name = ZINC00712251
REMARK  8 active torsions:
REMARK  status: ('A' for Active; 'I' for Inactive)
REMARK    1  A    between atoms: C_1  and  O_2
REMARK    2  A    between atoms: O_2  and  C_3
REMARK    3  A    between atoms: C_3  and  C_5
REMARK    4  A    between atoms: C_10  and  C_11
REMARK    5  A    between atoms: C_12  and  N_28
REMARK    6  A    between atoms: C_13  and  C_21
REMARK    7  A    between atoms: C_15  and  C_19
REMARK    8  A    between atoms: C_16  and  N_18
REMARK                            x       y       z     vdW  Elec       q    Type
REMARK                         _______ _______ _______ _____ _____    ______ ____
ROOT
ATOM      1  C   UNL     1      -0.988   5.899   1.886  0.00  0.00    +0.165 C 
ATOM      2  C   UNL     1      -0.483   5.488   0.730  0.00  0.00    +0.159 C 
ATOM      3  C   UNL     1       0.101   6.461  -0.258  0.00  0.00    +0.122 C 
ATOM      4  C   UNL     1       0.382   7.775   0.419  0.00  0.00    +0.100 C 
ATOM      5  C   UNL     1      -0.177   8.070   1.619  0.00  0.00    +0.199 C 
ATOM      6  O   UNL     1      -0.996   7.203   2.242  0.00  0.00    -0.439 OA
ENDROOT
BRANCH   3   7
ATOM      7  C   UNL     1      -0.872   6.678  -1.387  0.00  0.00    -0.032 A 
ATOM      8  C   UNL     1      -0.510   6.359  -2.683  0.00  0.00    +0.005 A 
ATOM      9  C   UNL     1      -1.402   6.557  -3.719  0.00  0.00    +0.001 A 
ATOM     10  C   UNL     1      -2.658   7.075  -3.461  0.00  0.00    +0.015 A 
ATOM     11  C   UNL     1      -3.020   7.395  -2.165  0.00  0.00    +0.018 A 
ATOM     12  C   UNL     1      -2.128   7.191  -1.127  0.00  0.00    +0.020 A 
ATOM     13 BR   UNL     1      -4.737   8.104  -1.811  0.00  0.00    -0.050 Br
ENDBRANCH   3   7
BRANCH   1  19
ATOM     14  C   UNL     1      -0.742   4.312   3.805  0.00  0.00    +0.070 A 
ATOM     15  C   UNL     1      -1.293   3.373   4.679  0.00  0.00    +0.016 A 
ATOM     16  C   UNL     1      -2.622   3.022   4.566  0.00  0.00    +0.001 A 
ATOM     17  C   UNL     1      -3.418   3.596   3.589  0.00  0.00    +0.001 A 
ATOM     18  C   UNL     1      -2.893   4.526   2.715  0.00  0.00    +0.012 A 
ATOM     19  C   UNL     1      -1.554   4.899   2.816  0.00  0.00    +0.033 A 
BRANCH  14  20
ATOM     20  C   UNL     1       0.678   4.691   3.922  0.00  0.00    +0.340 C 
ATOM     21  O   UNL     1       1.186   5.407   3.082  0.00  0.00    -0.245 OA
BRANCH  20  23
ATOM     22  C   UNL     1       2.803   4.658   5.010  0.00  0.00    +0.280 C 
ATOM     23  O   UNL     1       1.412   4.245   4.960  0.00  0.00    -0.464 OA
ENDBRANCH  20  23
ENDBRANCH  14  20
ENDBRANCH   1  19
BRANCH   5  24
ATOM     24  N   UNL     1       0.099   9.278   2.211  0.00  0.00    -0.328 N 
ATOM     25  H   UNL     1      -0.295   9.499   3.069  0.00  0.00    +0.145 HD
ATOM     26  H   UNL     1       0.689   9.910   1.770  0.00  0.00    +0.145 HD
ENDBRANCH   5  24
BRANCH   2  27
ATOM     27  N   UNL     1      -0.499   4.045   0.403  0.00  0.00    +0.057 N 
ATOM     28  O   UNL     1      -1.060   3.258   1.144  0.00  0.00    -0.126 OA
ATOM     29  O   UNL     1       0.050   3.643  -0.608  0.00  0.00    -0.126 OA
ENDBRANCH   2  27
BRANCH   4  30
ATOM     30  C   UNL     1       1.250   8.724  -0.210  0.00  0.00    +0.101 C 
ATOM     31  N   UNL     1       1.938   9.477  -0.710  0.00  0.00    -0.191 NA
ENDBRANCH   4  30
TORSDOF 7
