REMARK  Name = ZINC36202533
REMARK  11 active torsions:
REMARK  status: ('A' for Active; 'I' for Inactive)
REMARK    1  A    between atoms: C_1  and  C_2
REMARK    2  A    between atoms: C_5  and  C_7
REMARK    3  A    between atoms: C_7  and  N_8
REMARK    4  A    between atoms: N_8  and  C_9
REMARK    5  A    between atoms: N_8  and  C_31
REMARK    6  A    between atoms: C_9  and  C_10
REMARK    7  A    between atoms: C_13  and  C_15
REMARK    8  A    between atoms: C_15  and  C_16
REMARK    9  A    between atoms: C_15  and  C_23
REMARK   10  A    between atoms: C_15  and  O_30
REMARK   11  A    between atoms: C_31  and  C_32
REMARK                            x       y       z     vdW  Elec       q    Type
REMARK                         _______ _______ _______ _____ _____    ______ ____
ROOT
ATOM      1  C   UNL     1       2.558  -3.528  -2.546  0.00  0.00    +0.089 A 
ATOM      2  C   UNL     1       3.868  -3.272  -2.717  0.00  0.00    +0.043 A 
ATOM      3  C   UNL     1       4.292  -4.036  -3.828  0.00  0.00    +0.048 A 
ATOM      4  C   UNL     1       3.217  -4.714  -4.269  0.00  0.00    +0.146 A 
ATOM      5  O   UNL     1       2.171  -4.406  -3.485  0.00  0.00    -0.463 OA
ENDROOT
BRANCH   1   6
ATOM      6  C   UNL     1       1.677  -2.934  -1.477  0.00  0.00    -0.002 C 
BRANCH   6   7
ATOM      7  N   UNL     1       1.069  -1.694  -1.976  0.00  0.00    +0.391 N 
ATOM      8  H   UNL     1       1.795  -1.056  -2.266  0.00  0.00    -0.080 HD
BRANCH   7   9
ATOM      9  C   UNL     1       0.272  -1.075  -0.909  0.00  0.00    -0.002 C 
BRANCH   9  14
ATOM     10  C   UNL     1       0.119   3.862  -1.929  0.00  0.00    +0.086 C 
ATOM     11  C   UNL     1      -0.293   2.417  -1.813  0.00  0.00    +0.102 A 
ATOM     12  C   UNL     1      -1.480   1.905  -2.187  0.00  0.00    +0.044 A 
ATOM     13  C   UNL     1      -1.437   0.521  -1.901  0.00  0.00    +0.043 A 
ATOM     14  C   UNL     1      -0.227   0.271  -1.370  0.00  0.00    +0.089 A 
ATOM     15  O   UNL     1       0.464   1.422  -1.324  0.00  0.00    -0.467 OA
ENDBRANCH   9  14
ENDBRANCH   7   9
BRANCH   7  16
ATOM     16  C   UNL     1       0.201  -2.000  -3.121  0.00  0.00    -0.046 C 
BRANCH  16  17
ATOM     17  C   UNL     1      -0.990  -2.837  -2.648  0.00  0.00    +0.102 C 
ATOM     18  C   UNL     1      -1.963  -3.101  -3.825  0.00  0.00    +0.032 C 
ATOM     19  C   UNL     1      -2.659  -4.404  -3.345  0.00  0.00    +0.030 C 
ATOM     20  C   UNL     1      -1.521  -5.125  -2.592  0.00  0.00    +0.160 C 
ATOM     21  O   UNL     1      -0.549  -4.137  -2.224  0.00  0.00    -0.378 OA
ENDBRANCH  16  17
ENDBRANCH   7  16
ENDBRANCH   6   7
ENDBRANCH   1   6
BRANCH   4  22
ATOM     22  C   UNL     1       3.191  -5.662  -5.440  0.00  0.00    +0.174 C 
BRANCH  22  23
ATOM     23  C   UNL     1       2.147  -6.723  -5.205  0.00  0.00    -0.004 A 
ATOM     24  C   UNL     1       0.806  -6.412  -5.329  0.00  0.00    +0.010 A 
ATOM     25  C   UNL     1      -0.152  -7.385  -5.114  0.00  0.00    +0.039 A 
ATOM     26  C   UNL     1       0.232  -8.671  -4.775  0.00  0.00    +0.123 A 
ATOM     27  C   UNL     1       1.576  -8.981  -4.651  0.00  0.00    +0.039 A 
ATOM     28  C   UNL     1       2.532  -8.008  -4.872  0.00  0.00    +0.010 A 
ATOM     29  F   UNL     1      -0.703  -9.623  -4.564  0.00  0.00    -0.205 F 
ENDBRANCH  22  23
BRANCH  22  30
ATOM     30  C   UNL     1       2.857  -4.899  -6.697  0.00  0.00    -0.004 A 
ATOM     31  C   UNL     1       1.872  -3.930  -6.675  0.00  0.00    +0.010 A 
ATOM     32  C   UNL     1       1.565  -3.229  -7.826  0.00  0.00    +0.039 A 
ATOM     33  C   UNL     1       2.246  -3.498  -9.001  0.00  0.00    +0.123 A 
ATOM     34  C   UNL     1       3.233  -4.469  -9.022  0.00  0.00    +0.039 A 
ATOM     35  C   UNL     1       3.542  -5.164  -7.868  0.00  0.00    +0.010 A 
ATOM     36  F   UNL     1       1.947  -2.814 -10.127  0.00  0.00    -0.205 F 
ENDBRANCH  22  30
BRANCH  22  37
ATOM     37  O   UNL     1       4.473  -6.277  -5.583  0.00  0.00    -0.372 OA
ATOM     38  H   UNL     1       5.194  -5.652  -5.737  0.00  0.00    +0.212 HD
ENDBRANCH  22  37
ENDBRANCH   4  22
TORSDOF 10
