REMARK  Name = ZINC00173073
REMARK  5 active torsions:
REMARK  status: ('A' for Active; 'I' for Inactive)
REMARK    1  A    between atoms: C_1  and  C_2
REMARK    2  A    between atoms: C_4  and  C_8
REMARK    3  A    between atoms: C_6  and  C_7
REMARK    4  A    between atoms: C_9  and  C_10
REMARK    5  A    between atoms: C_9  and  C_12
REMARK                            x       y       z     vdW  Elec       q    Type
REMARK                         _______ _______ _______ _____ _____    ______ ____
ROOT
ATOM      1  C   UNL     1       1.580  -1.855  -0.222  0.00  0.00    +0.068 C 
ATOM      2  C   UNL     1       0.980  -2.738   0.668  0.00  0.00    +0.154 C 
ENDROOT
BRANCH   1   6
ATOM      3  C   UNL     1       0.520   2.860  -1.565  0.00  0.00    +0.047 C 
ATOM      4  C   UNL     1       0.410   1.395  -1.232  0.00  0.00    -0.009 A 
ATOM      5  C   UNL     1       1.453   0.555  -0.828  0.00  0.00    +0.053 A 
ATOM      6  C   UNL     1       0.896  -0.699  -0.632  0.00  0.00    +0.129 A 
ATOM      7  O   UNL     1      -0.423  -0.610  -0.908  0.00  0.00    -0.460 OA
ATOM      8  C   UNL     1      -0.718   0.645  -1.268  0.00  0.00    +0.106 A 
ATOM      9  C   UNL     1      -2.086   1.144  -1.658  0.00  0.00    +0.086 C 
ENDBRANCH   1   6
BRANCH   2  10
ATOM     10  C   UNL     1       1.611  -4.030   0.957  0.00  0.00    +0.394 C 
ATOM     11  O   UNL     1       2.659  -4.329   0.417  0.00  0.00    -0.240 OA
ATOM     12  O   UNL     1       1.029  -4.887   1.820  0.00  0.00    -0.240 OA
ENDBRANCH   2  10
BRANCH   2  13
ATOM     13  C   UNL     1      -0.283  -2.378   1.319  0.00  0.00    +0.394 C 
ATOM     14  O   UNL     1      -0.744  -1.261   1.177  0.00  0.00    -0.240 OA
ATOM     15  O   UNL     1      -0.935  -3.285   2.074  0.00  0.00    -0.240 OA
ENDBRANCH   2  13
TORSDOF 3
