REMARK  Name = ZINC12661712
REMARK  8 active torsions:
REMARK  status: ('A' for Active; 'I' for Inactive)
REMARK    1  A    between atoms: C_1  and  C_2
REMARK    2  A    between atoms: C_7  and  C_40
REMARK    3  A    between atoms: C_18  and  C_20
REMARK    4  A    between atoms: C_20  and  N_78
REMARK    5  A    between atoms: C_23  and  C_26
REMARK    6  A    between atoms: C_26  and  C_27
REMARK    7  A    between atoms: C_26  and  C_33
REMARK    8  A    between atoms: C_26  and  O_39
REMARK                            x       y       z     vdW  Elec       q    Type
REMARK                         _______ _______ _______ _____ _____    ______ ____
ROOT
ATOM      1  C   UNL     1       2.523   1.749   0.151  0.00  0.00    -0.078 C 
ATOM      2  C   UNL     1       2.177   2.538   1.415  0.00  0.00    -0.012 C 
ATOM      3  C   UNL     1       2.640   3.989   1.248  0.00  0.00    +0.026 C 
ATOM      4  C   UNL     1       1.972   4.589   0.008  0.00  0.00    -0.012 C 
ATOM      5  C   UNL     1       2.323   3.740  -1.216  0.00  0.00    -0.078 C 
ATOM      6  N   UNL     1       1.830   2.363  -1.002  0.00  0.00    +0.380 N 
ATOM      7  H   UNL     1       0.823   2.397  -0.806  0.00  0.00    -0.082 HD
ENDROOT
BRANCH   6   8
ATOM      8  C   UNL     1       2.056   1.552  -2.216  0.00  0.00    -0.063 C 
BRANCH   8  23
ATOM      9  C   UNL     1       2.865  -4.475  -1.194  0.00  0.00    +0.012 C 
ATOM     10  C   UNL     1       2.822  -4.027  -2.656  0.00  0.00    +0.012 C 
ATOM     11  C   UNL     1       2.351  -5.185  -3.544  0.00  0.00    +0.007 C 
ATOM     12  C   UNL     1       0.912  -5.563  -3.198  0.00  0.00    +0.001 C 
ATOM     13  C   UNL     1      -0.029  -4.383  -3.467  0.00  0.00    +0.011 C 
ATOM     14  C   UNL     1       0.380  -3.216  -2.571  0.00  0.00    -0.007 C 
ATOM     15  C   UNL     1       1.823  -2.893  -2.818  0.00  0.00    -0.064 C 
ATOM     16  C   UNL     1       2.236  -1.716  -3.169  0.00  0.00    -0.019 C 
ATOM     17  C   UNL     1       1.343  -0.554  -3.410  0.00  0.00    +0.064 C 
ATOM     18  C   UNL     1      -0.113  -0.993  -3.703  0.00  0.00    +0.185 C 
ATOM     19  C   UNL     1      -0.564  -2.044  -2.689  0.00  0.00    +0.056 C 
ATOM     20  O   UNL     1      -0.852   0.243  -3.369  0.00  0.00    -0.461 OA
ATOM     21  C   UNL     1      -0.314   0.735  -2.232  0.00  0.00    +0.309 C 
ATOM     22  O   UNL     1      -0.899   1.395  -1.407  0.00  0.00    -0.251 OA
ATOM     23  C   UNL     1       1.147   0.323  -2.159  0.00  0.00    +0.092 C 
ATOM     24  C   UNL     1       0.281  -3.715  -1.128  0.00  0.00    +0.016 C 
ENDBRANCH   8  23
ENDBRANCH   6   8
BRANCH   3  25
ATOM     25  C   UNL     1       2.243   4.798   2.485  0.00  0.00    +0.119 C 
BRANCH  25  26
ATOM     26  C   UNL     1       2.901   4.205   3.705  0.00  0.00    -0.011 A 
ATOM     27  C   UNL     1       4.118   3.561   3.590  0.00  0.00    +0.007 A 
ATOM     28  C   UNL     1       4.724   3.022   4.709  0.00  0.00    +0.000 A 
ATOM     29  C   UNL     1       4.107   3.119   5.943  0.00  0.00    +0.000 A 
ATOM     30  C   UNL     1       2.887   3.759   6.057  0.00  0.00    +0.000 A 
ATOM     31  C   UNL     1       2.284   4.302   4.938  0.00  0.00    +0.007 A 
ENDBRANCH  25  26
BRANCH  25  32
ATOM     32  C   UNL     1       2.691   6.226   2.316  0.00  0.00    -0.011 A 
ATOM     33  C   UNL     1       3.819   6.513   1.569  0.00  0.00    +0.007 A 
ATOM     34  C   UNL     1       4.227   7.824   1.410  0.00  0.00    +0.000 A 
ATOM     35  C   UNL     1       3.515   8.847   2.006  0.00  0.00    +0.000 A 
ATOM     36  C   UNL     1       2.390   8.560   2.757  0.00  0.00    +0.000 A 
ATOM     37  C   UNL     1       1.979   7.250   2.912  0.00  0.00    +0.007 A 
ENDBRANCH  25  32
BRANCH  25  38
ATOM     38  O   UNL     1       0.823   4.760   2.643  0.00  0.00    -0.379 OA
ATOM     39  H   UNL     1       0.464   3.869   2.758  0.00  0.00    +0.211 HD
ENDBRANCH  25  38
ENDBRANCH   3  25
TORSDOF 6
