REMARK  Name = ZINC00679216
REMARK  10 active torsions:
REMARK  status: ('A' for Active; 'I' for Inactive)
REMARK    1  A    between atoms: C_1  and  C_2
REMARK    2  A    between atoms: C_3  and  C_32
REMARK    3  A    between atoms: C_4  and  C_25
REMARK    4  A    between atoms: C_10  and  C_15
REMARK    5  A    between atoms: C_18  and  O_23
REMARK    6  A    between atoms: C_19  and  O_21
REMARK    7  A    between atoms: O_21  and  C_22
REMARK    8  A    between atoms: O_23  and  C_24
REMARK    9  A    between atoms: C_32  and  O_34
REMARK   10  A    between atoms: O_34  and  C_35
REMARK                            x       y       z     vdW  Elec       q    Type
REMARK                         _______ _______ _______ _____ _____    ______ ____
ROOT
ATOM      1  C   UNL     1      -6.193   3.212  -0.920  0.00  0.00    +0.061 C 
ATOM      2  C   UNL     1      -4.800   2.657  -1.069  0.00  0.00    +0.016 C 
ATOM      3  C   UNL     1      -4.128   2.838  -2.219  0.00  0.00    +0.065 C 
ATOM      4  C   UNL     1      -2.743   2.293  -2.406  0.00  0.00    +0.095 C 
ATOM      5  C   UNL     1      -2.111   1.956  -1.079  0.00  0.00    +0.024 C 
ATOM      6  C   UNL     1      -2.870   1.804   0.027  0.00  0.00    +0.016 C 
ATOM      7  N   UNL     1      -4.228   1.972  -0.033  0.00  0.00    -0.321 N 
ATOM      8  C   UNL     1      -2.248   1.443   1.353  0.00  0.00    +0.059 C 
ATOM      9  C   UNL     1      -0.833   2.026   1.433  0.00  0.00    +0.032 C 
ATOM     10  C   UNL     1      -0.014   1.472   0.263  0.00  0.00    +0.088 C 
ATOM     11  C   UNL     1      -0.715   1.801  -1.027  0.00  0.00    +0.162 C 
ATOM     12  O   UNL     1      -0.062   1.935  -2.043  0.00  0.00    -0.292 OA
ATOM     13  H   UNL     1      -4.859   1.550   0.762  0.00  0.00    +0.152 HD
ENDROOT
BRANCH   4  14
ATOM     14  C   UNL     1      -2.811   1.048  -3.252  0.00  0.00    -0.000 A 
ATOM     15  C   UNL     1      -3.522  -0.052  -2.808  0.00  0.00    +0.007 A 
ATOM     16  C   UNL     1      -3.584  -1.194  -3.585  0.00  0.00    +0.000 A 
ATOM     17  C   UNL     1      -2.937  -1.238  -4.805  0.00  0.00    +0.003 A 
ATOM     18  C   UNL     1      -2.226  -0.140  -5.251  0.00  0.00    +0.038 A 
ATOM     19  C   UNL     1      -2.166   1.006  -4.476  0.00  0.00    +0.127 A 
ATOM     20  F   UNL     1      -1.475   2.082  -4.913  0.00  0.00    -0.205 F 
ENDBRANCH   4  14
BRANCH   9  21
ATOM     21  C   UNL     1      -0.190   1.625   2.736  0.00  0.00    -0.040 A 
ATOM     22  C   UNL     1      -0.033   0.286   3.044  0.00  0.00    +0.008 A 
ATOM     23  C   UNL     1       0.556  -0.087   4.238  0.00  0.00    +0.049 A 
ATOM     24  C   UNL     1       0.991   0.881   5.128  0.00  0.00    +0.161 A 
ATOM     25  C   UNL     1       0.834   2.229   4.818  0.00  0.00    +0.162 A 
ATOM     26  C   UNL     1       0.247   2.596   3.617  0.00  0.00    +0.053 A 
BRANCH  25  27
ATOM     27  O   UNL     1       1.258   3.183   5.689  0.00  0.00    -0.491 OA
ATOM     28  C   UNL     1       1.064   4.545   5.304  0.00  0.00    +0.277 C 
ENDBRANCH  25  27
BRANCH  24  29
ATOM     29  O   UNL     1       1.571   0.516   6.303  0.00  0.00    -0.491 OA
ATOM     30  C   UNL     1       1.700  -0.885   6.555  0.00  0.00    +0.277 C 
ENDBRANCH  24  29
ENDBRANCH   9  21
BRANCH   3  31
ATOM     31  C   UNL     1      -4.740   3.555  -3.274  0.00  0.00    +0.338 C 
ATOM     32  O   UNL     1      -4.381   4.691  -3.526  0.00  0.00    -0.245 OA
BRANCH  31  33
ATOM     33  O   UNL     1      -5.721   2.981  -4.001  0.00  0.00    -0.458 OA
BRANCH  33  34
ATOM     34  C   UNL     1      -6.293   3.764  -5.050  0.00  0.00    +0.177 C 
ATOM     35  C   UNL     1      -7.481   4.559  -4.504  0.00  0.00    +0.044 C 
ATOM     36  C   UNL     1      -8.094   5.396  -5.628  0.00  0.00    +0.004 C 
ATOM     37  C   UNL     1      -8.572   4.473  -6.751  0.00  0.00    +0.000 C 
ATOM     38  C   UNL     1      -7.383   3.678  -7.297  0.00  0.00    +0.004 C 
ATOM     39  C   UNL     1      -6.771   2.840  -6.173  0.00  0.00    +0.044 C 
ENDBRANCH  33  34
ENDBRANCH  31  33
ENDBRANCH   3  31
TORSDOF 7
