REMARK  Name = ZINC54164351
REMARK  8 active torsions:
REMARK  status: ('A' for Active; 'I' for Inactive)
REMARK    1  A    between atoms: C_1  and  C_2
REMARK    2  A    between atoms: C_5  and  C_11
REMARK    3  A    between atoms: C_6  and  N_8
REMARK    4  A    between atoms: C_14  and  C_16
REMARK    5  A    between atoms: C_21  and  N_23
REMARK    6  A    between atoms: N_23  and  C_24
REMARK    7  A    between atoms: C_26  and  C_31
REMARK    8  A    between atoms: C_29  and  C_30
REMARK                            x       y       z     vdW  Elec       q    Type
REMARK                         _______ _______ _______ _____ _____    ______ ____
ROOT
ATOM      1  C   UNL     1       0.728  -7.341   1.831  0.00  0.00    +0.066 C 
ATOM      2  C   UNL     1       1.954  -7.146   2.475  0.00  0.00    +0.082 C 
ATOM      3  C   UNL     1       2.694  -5.869   2.728  0.00  0.00    +0.276 C 
ATOM      4  O   UNL     1       2.264  -4.790   2.367  0.00  0.00    -0.267 OA
ATOM      5  N   UNL     1       3.839  -5.987   3.366  0.00  0.00    -0.152 NA
ATOM      6  C   UNL     1       4.263  -7.185   3.738  0.00  0.00    +0.175 C 
ATOM      7  S   UNL     1       2.977  -8.284   3.175  0.00  0.00    -0.050 S 
ENDROOT
BRANCH   1  11
ATOM      8  C   UNL     1      -0.509  -4.195   0.766  0.00  0.00    +0.138 A 
ATOM      9  C   UNL     1      -1.562  -5.014   0.293  0.00  0.00    +0.050 A 
ATOM     10  C   UNL     1      -1.259  -6.298   0.617  0.00  0.00    +0.050 A 
ATOM     11  C   UNL     1       0.032  -6.254   1.316  0.00  0.00    +0.130 A 
ATOM     12  O   UNL     1       0.421  -4.961   1.362  0.00  0.00    -0.455 OA
BRANCH   8  17
ATOM     13  C   UNL     1      -0.243   1.460   0.211  0.00  0.00    +0.044 C 
ATOM     14  C   UNL     1      -0.314  -0.038   0.358  0.00  0.00    -0.048 A 
ATOM     15  C   UNL     1      -0.592  -0.827  -0.750  0.00  0.00    +0.004 A 
ATOM     16  C   UNL     1      -0.657  -2.185  -0.628  0.00  0.00    +0.014 A 
ATOM     17  C   UNL     1      -0.442  -2.786   0.628  0.00  0.00    +0.047 A 
ATOM     18  C   UNL     1      -0.161  -1.976   1.745  0.00  0.00    +0.137 A 
ATOM     19  C   UNL     1      -0.095  -0.619   1.599  0.00  0.00    +0.036 A 
BRANCH  18  20
ATOM     20  N   UNL     1       0.067  -2.592   3.071  0.00  0.00    +0.057 N 
ATOM     21  O   UNL     1       0.330  -1.833   4.114  0.00  0.00    -0.126 OA
ATOM     22  O   UNL     1       0.007  -3.901   3.208  0.00  0.00    -0.126 OA
ENDBRANCH  18  20
ENDBRANCH   8  17
ENDBRANCH   1  11
BRANCH   6  23
ATOM     23  N   UNL     1       5.408  -7.503   4.399  0.00  0.00    -0.192 NA
BRANCH  23  24
ATOM     24  C   UNL     1       6.199  -6.493   4.948  0.00  0.00    +0.059 A 
ATOM     25  C   UNL     1       5.631  -5.271   5.282  0.00  0.00    +0.040 A 
ATOM     26  C   UNL     1       6.427  -4.265   5.831  0.00  0.00    +0.065 A 
ATOM     27  C   UNL     1       7.790  -4.496   6.042  0.00  0.00    +0.015 A 
ATOM     28  C   UNL     1       8.344  -5.715   5.707  0.00  0.00    +0.006 A 
ATOM     29  C   UNL     1       7.555  -6.713   5.168  0.00  0.00    -0.027 A 
ATOM     30  C   UNL     1       8.167  -8.043   4.811  0.00  0.00    +0.046 C 
BRANCH  26  31
ATOM     31  C   UNL     1       5.833  -2.962   6.188  0.00  0.00    +0.387 C 
ATOM     32  O   UNL     1       4.641  -2.763   6.002  0.00  0.00    -0.241 OA
ATOM     33  O   UNL     1       6.532  -2.083   6.670  0.00  0.00    -0.241 OA
ENDBRANCH  26  31
ENDBRANCH  23  24
ENDBRANCH   6  23
TORSDOF 6
