REMARK  Name = ZINC42858884
REMARK  8 active torsions:
REMARK  status: ('A' for Active; 'I' for Inactive)
REMARK    1  A    between atoms: C_1  and  C_2
REMARK    2  A    between atoms: C_8  and  C_10
REMARK    3  A    between atoms: C_10  and  N_11
REMARK    4  A    between atoms: N_11  and  S_12
REMARK    5  A    between atoms: S_12  and  C_15
REMARK    6  A    between atoms: C_18  and  N_23
REMARK    7  A    between atoms: C_20  and  O_21
REMARK    8  A    between atoms: O_21  and  C_22
REMARK                            x       y       z     vdW  Elec       q    Type
REMARK                         _______ _______ _______ _____ _____    ______ ____
ROOT
ATOM      1  S   UNL     1       4.574  -0.471   2.385  0.00  0.00    +0.062 S 
ATOM      2  O   UNL     1       4.990  -1.091   3.594  0.00  0.00    -0.153 OA
ATOM      3  O   UNL     1       5.030  -0.904   1.111  0.00  0.00    -0.153 OA
ENDROOT
BRANCH   1   4
ATOM      4  C   UNL     1       5.000   1.233   2.520  0.00  0.00    +0.147 A 
ATOM      5  C   UNL     1       5.645   1.696   3.651  0.00  0.00    +0.034 A 
ATOM      6  C   UNL     1       5.981   3.031   3.761  0.00  0.00    +0.025 A 
ATOM      7  C   UNL     1       5.670   3.913   2.733  0.00  0.00    +0.028 A 
ATOM      8  C   UNL     1       5.022   3.450   1.597  0.00  0.00    +0.070 A 
ATOM      9  C   UNL     1       4.691   2.108   1.488  0.00  0.00    +0.148 A 
BRANCH   7  10
ATOM     10  N   UNL     1       6.010   5.263   2.844  0.00  0.00    -0.358 N 
ATOM     11  H   UNL     1       6.462   5.586   3.639  0.00  0.00    +0.142 HD
ATOM     12  H   UNL     1       5.792   5.878   2.126  0.00  0.00    +0.142 HD
ENDBRANCH   7  10
BRANCH   9  13
ATOM     13  O   UNL     1       4.061   1.651   0.375  0.00  0.00    -0.493 OA
ATOM     14  C   UNL     1       3.775   2.608  -0.647  0.00  0.00    +0.277 C 
ENDBRANCH   9  13
ENDBRANCH   1   4
BRANCH   1  15
ATOM     15  N   UNL     1       2.921  -0.562   2.352  0.00  0.00    -0.190 NA
ATOM     16  H   UNL     1       2.444  -0.999   3.075  0.00  0.00    +0.148 HD
BRANCH  15  17
ATOM     17  C   UNL     1       2.178   0.019   1.231  0.00  0.00    +0.109 C 
BRANCH  17  24
ATOM     18  C   UNL     1      -0.019   1.526   0.010  0.00  0.00    +0.008 C 
ATOM     19  C   UNL     1       0.002  -0.004   0.002  0.00  0.00    -0.010 C 
ATOM     20  C   UNL     1      -1.433  -0.534   0.013  0.00  0.00    +0.003 C 
ATOM     21  C   UNL     1      -2.149  -0.040   1.272  0.00  0.00    +0.000 C 
ATOM     22  C   UNL     1      -1.409  -0.547   2.511  0.00  0.00    +0.000 C 
ATOM     23  C   UNL     1       0.026  -0.018   2.500  0.00  0.00    +0.005 C 
ATOM     24  C   UNL     1       0.742  -0.511   1.242  0.00  0.00    +0.007 C 
ENDBRANCH  17  24
ENDBRANCH  15  17
ENDBRANCH   1  15
TORSDOF 6
