REMARK  Name = ZINC39498972
REMARK  7 active torsions:
REMARK  status: ('A' for Active; 'I' for Inactive)
REMARK    1  A    between atoms: C_1  and  O_2
REMARK    2  A    between atoms: O_2  and  C_3
REMARK    3  A    between atoms: C_8  and  C_9
REMARK    4  A    between atoms: C_9  and  C_10
REMARK    5  A    between atoms: N_17  and  C_26
REMARK    6  A    between atoms: C_19  and  C_20
REMARK    7  A    between atoms: C_31  and  O_32
REMARK                            x       y       z     vdW  Elec       q    Type
REMARK                         _______ _______ _______ _____ _____    ______ ____
ROOT
ATOM      1  C   UNL     1       0.373  -1.038  -1.341  0.00  0.00    +0.124 A 
ATOM      2  C   UNL     1       1.069  -0.168  -2.162  0.00  0.00    +0.056 A 
ATOM      3  C   UNL     1       1.999  -0.669  -3.075  0.00  0.00    +0.005 A 
ATOM      4  C   UNL     1       2.217  -2.047  -3.147  0.00  0.00    -0.020 A 
ATOM      5  C   UNL     1       1.519  -2.905  -2.326  0.00  0.00    +0.013 A 
ATOM      6  C   UNL     1       0.602  -2.405  -1.419  0.00  0.00    -0.001 A 
ATOM      7  C   UNL     1       3.263  -2.277  -4.210  0.00  0.00    +0.147 C 
ATOM      8  N   UNL     1       3.625  -0.955  -4.734  0.00  0.00    -0.292 N 
ATOM      9  C   UNL     1       2.874  -0.002  -4.059  0.00  0.00    +0.043 C 
ATOM     10  C   UNL     1       2.934   1.331  -4.270  0.00  0.00    +0.032 C 
ENDROOT
BRANCH  10  11
ATOM     11  C   UNL     1       3.557   1.854  -5.496  0.00  0.00    -0.023 A 
ATOM     12  C   UNL     1       3.198   1.335  -6.744  0.00  0.00    +0.008 A 
ATOM     13  C   UNL     1       3.785   1.830  -7.888  0.00  0.00    +0.001 A 
ATOM     14  C   UNL     1       4.729   2.839  -7.805  0.00  0.00    +0.000 A 
ATOM     15  C   UNL     1       5.091   3.358  -6.574  0.00  0.00    +0.001 A 
ATOM     16  C   UNL     1       4.508   2.877  -5.421  0.00  0.00    +0.008 A 
ENDBRANCH  10  11
BRANCH   8  17
ATOM     17  C   UNL     1       4.564  -0.699  -5.739  0.00  0.00    +0.076 A 
ATOM     18  C   UNL     1       4.262  -0.987  -7.063  0.00  0.00    +0.027 A 
ATOM     19  C   UNL     1       5.191  -0.733  -8.054  0.00  0.00    +0.002 A 
ATOM     20  C   UNL     1       6.422  -0.192  -7.730  0.00  0.00    +0.004 A 
ATOM     21  C   UNL     1       6.730   0.098  -6.414  0.00  0.00    +0.047 A 
ATOM     22  C   UNL     1       5.802  -0.149  -5.415  0.00  0.00    +0.138 A 
BRANCH  22  23
ATOM     23  O   UNL     1       6.102   0.140  -4.120  0.00  0.00    -0.505 OA
ATOM     24  H   UNL     1       6.521  -0.587  -3.641  0.00  0.00    +0.292 HD
ENDBRANCH  22  23
ENDBRANCH   8  17
BRANCH   1  26
ATOM     25  C   UNL     1      -0.719   0.865  -0.424  0.00  0.00    +0.277 C 
ATOM     26  O   UNL     1      -0.533  -0.552  -0.451  0.00  0.00    -0.495 OA
ENDBRANCH   1  26
BRANCH   6  27
ATOM     27  C   UNL     1      -0.155  -3.346  -0.518  0.00  0.00    +0.074 C 
BRANCH  27  28
ATOM     28  C   UNL     1      -1.485  -3.679  -1.142  0.00  0.00    -0.043 A 
ATOM     29  C   UNL     1      -2.591  -2.894  -0.873  0.00  0.00    +0.004 A 
ATOM     30  C   UNL     1      -3.811  -3.199  -1.445  0.00  0.00    +0.000 A 
ATOM     31  C   UNL     1      -3.926  -4.289  -2.287  0.00  0.00    +0.000 A 
ATOM     32  C   UNL     1      -2.821  -5.074  -2.557  0.00  0.00    +0.000 A 
ATOM     33  C   UNL     1      -1.599  -4.766  -1.988  0.00  0.00    +0.004 A 
ENDBRANCH  27  28
ENDBRANCH   6  27
TORSDOF 6
