REMARK  Name = ZINC09767829
REMARK  12 active torsions:
REMARK  status: ('A' for Active; 'I' for Inactive)
REMARK    1  A    between atoms: C_1  and  C_2
REMARK    2  A    between atoms: C_2  and  O_3
REMARK    3  A    between atoms: O_3  and  C_4
REMARK    4  A    between atoms: C_4  and  C_6
REMARK    5  A    between atoms: C_6  and  N_7
REMARK    6  A    between atoms: C_9  and  C_36
REMARK    7  A    between atoms: N_16  and  C_17
REMARK    8  A    between atoms: C_17  and  C_19
REMARK    9  A    between atoms: C_22  and  S_25
REMARK   10  A    between atoms: S_25  and  N_28
REMARK   11  A    between atoms: N_28  and  C_29
REMARK   12  A    between atoms: N_28  and  C_30
REMARK                            x       y       z     vdW  Elec       q    Type
REMARK                         _______ _______ _______ _____ _____    ______ ____
ROOT
ATOM      1  C   UNL     1      -2.098  -4.808  -2.743  0.00  0.00    +0.269 C 
ATOM      2  O   UNL     1      -1.936  -6.015  -2.695  0.00  0.00    -0.268 OA
ENDROOT
BRANCH   1  12
ATOM      3  N   UNL     1       1.282  -3.803  -1.996  0.00  0.00    -0.310 N 
ATOM      4  C   UNL     1       2.446  -4.496  -1.723  0.00  0.00    +0.061 A 
ATOM      5  C   UNL     1       3.725  -4.000  -1.436  0.00  0.00    -0.026 A 
ATOM      6  C   UNL     1       4.770  -4.858  -1.188  0.00  0.00    +0.005 A 
ATOM      7  C   UNL     1       4.592  -6.232  -1.215  0.00  0.00    +0.001 A 
ATOM      8  C   UNL     1       3.339  -6.747  -1.496  0.00  0.00    +0.017 A 
ATOM      9  C   UNL     1       2.294  -5.890  -1.744  0.00  0.00    +0.039 A 
ATOM     10  S   UNL     1       0.577  -6.102  -2.134  0.00  0.00    -0.052 S 
ATOM     11  C   UNL     1       0.134  -4.485  -2.247  0.00  0.00    +0.167 A 
ATOM     12  N   UNL     1      -1.067  -3.986  -2.520  0.00  0.00    -0.152 NA
ATOM     13  C   UNL     1       3.957  -2.511  -1.398  0.00  0.00    +0.046 C 
BRANCH   3  14
ATOM     14  C   UNL     1       1.284  -2.338  -2.010  0.00  0.00    +0.244 C 
BRANCH  14  15
ATOM     15  C   UNL     1       1.714  -1.850  -3.369  0.00  0.00    +0.327 C 
ATOM     16  O   UNL     1       1.989  -2.643  -4.237  0.00  0.00    -0.249 OA
BRANCH  15  17
ATOM     17  O   UNL     1       1.790  -0.532  -3.615  0.00  0.00    -0.464 OA
BRANCH  17  19
ATOM     18  C   UNL     1       2.231   1.387  -5.016  0.00  0.00    +0.048 C 
ATOM     19  C   UNL     1       2.204  -0.140  -4.926  0.00  0.00    +0.229 C 
ENDBRANCH  17  19
ENDBRANCH  15  17
ENDBRANCH  14  15
ENDBRANCH   3  14
ENDBRANCH   1  12
BRANCH   1  20
ATOM     20  C   UNL     1      -3.436  -4.251  -3.048  0.00  0.00    +0.039 A 
ATOM     21  C   UNL     1      -3.623  -2.870  -3.109  0.00  0.00    +0.015 A 
ATOM     22  C   UNL     1      -4.872  -2.358  -3.394  0.00  0.00    +0.029 A 
ATOM     23  C   UNL     1      -5.938  -3.211  -3.618  0.00  0.00    +0.106 A 
ATOM     24  C   UNL     1      -5.759  -4.582  -3.558  0.00  0.00    +0.029 A 
ATOM     25  C   UNL     1      -4.513  -5.106  -3.281  0.00  0.00    +0.015 A 
BRANCH  23  26
ATOM     26  S   UNL     1      -7.530  -2.550  -3.980  0.00  0.00    +0.061 S 
ATOM     27  O   UNL     1      -8.477  -3.543  -3.611  0.00  0.00    -0.153 OA
ATOM     28  O   UNL     1      -7.556  -1.235  -3.440  0.00  0.00    -0.153 OA
BRANCH  26  29
ATOM     29  N   UNL     1      -7.631  -2.388  -5.625  0.00  0.00    -0.177 NA
ATOM     30  C   UNL     1      -8.144  -3.492  -6.439  0.00  0.00    +0.132 C 
BRANCH  29  31
ATOM     31  C   UNL     1      -7.207  -1.141  -6.265  0.00  0.00    +0.080 C 
ATOM     32  C   UNL     1      -8.388  -0.526  -7.018  0.00  0.00    +0.020 C 
ATOM     33  C   UNL     1      -7.945   0.776  -7.687  0.00  0.00    +0.002 C 
ATOM     34  C   UNL     1      -6.810   0.484  -8.671  0.00  0.00    +0.000 C 
ATOM     35  C   UNL     1      -5.628  -0.130  -7.918  0.00  0.00    +0.002 C 
ATOM     36  C   UNL     1      -6.072  -1.433  -7.249  0.00  0.00    +0.020 C 
ENDBRANCH  29  31
ENDBRANCH  26  29
ENDBRANCH  23  26
ENDBRANCH   1  20
TORSDOF 9
