REMARK  Name = ZINC39530584
REMARK  4 active torsions:
REMARK  status: ('A' for Active; 'I' for Inactive)
REMARK    1  A    between atoms: C_4  and  O_7
REMARK    2  A    between atoms: O_7  and  S_8
REMARK    3  A    between atoms: S_8  and  C_11
REMARK    4  A    between atoms: C_16  and  N_17
REMARK                            x       y       z     vdW  Elec       q    Type
REMARK                         _______ _______ _______ _____ _____    ______ ____
ROOT
ATOM      1  C   UNL     1       3.171  -2.273   1.974  0.00  0.00    +0.150 A 
ATOM      2  C   UNL     1       2.090  -2.014   2.794  0.00  0.00    +0.046 A 
ATOM      3  C   UNL     1       1.367  -3.061   3.337  0.00  0.00    +0.015 A 
ATOM      4  C   UNL     1       1.724  -4.369   3.062  0.00  0.00    +0.016 A 
ATOM      5  C   UNL     1       2.803  -4.633   2.243  0.00  0.00    +0.026 A 
ATOM      6  C   UNL     1       3.528  -3.585   1.691  0.00  0.00    +0.059 A 
ATOM      7  I   UNL     1      -0.272  -2.664   4.581  0.00  0.00    -0.044 I 
ENDROOT
BRANCH   6   8
ATOM      8  N   UNL     1       4.617  -3.849   0.857  0.00  0.00    -0.324 N 
ATOM      9  C   UNL     1       4.468  -3.840  -0.606  0.00  0.00    +0.120 C 
ATOM     10  C   UNL     1       5.048  -5.145  -1.163  0.00  0.00    +0.101 C 
ATOM     11  N   UNL     1       6.425  -5.310  -0.680  0.00  0.00    -0.298 NA
ATOM     12  C   UNL     1       6.465  -5.437   0.783  0.00  0.00    +0.164 C 
ATOM     13  C   UNL     1       5.945  -4.139   1.419  0.00  0.00    +0.140 C 
ATOM     14 CL   UNL     1       8.163  -5.728   1.315  0.00  0.00    -0.103 Cl
ATOM     15  H   UNL     1       6.872  -6.098  -1.124  0.00  0.00    +0.123 HD
ENDBRANCH   6   8
BRANCH   1  16
ATOM     16  S   UNL     1       4.091  -0.939   1.282  0.00  0.00    +0.153 S 
ATOM     17  O   UNL     1       5.422  -1.408   1.116  0.00  0.00    -0.131 OA
ATOM     18  O   UNL     1       3.780   0.213   2.053  0.00  0.00    -0.131 OA
BRANCH  16  19
ATOM     19  O   UNL     1       3.541  -0.690  -0.115  0.00  0.00    -0.342 OA
BRANCH  19  23
ATOM     20  C   UNL     1      -0.110   1.231  -0.163  0.00  0.00    +0.000 A 
ATOM     21  C   UNL     1       1.059   1.970  -0.184  0.00  0.00    +0.004 A 
ATOM     22  C   UNL     1       2.282   1.329  -0.169  0.00  0.00    +0.048 A 
ATOM     23  C   UNL     1       2.338  -0.057  -0.130  0.00  0.00    +0.157 A 
ATOM     24  C   UNL     1       1.164  -0.795  -0.108  0.00  0.00    +0.048 A 
ATOM     25  C   UNL     1      -0.057  -0.150  -0.124  0.00  0.00    +0.004 A 
ENDBRANCH  19  23
ENDBRANCH  16  19
ENDBRANCH   1  16
TORSDOF 4
