REMARK  Name = ZINC58881230
REMARK  10 active torsions:
REMARK  status: ('A' for Active; 'I' for Inactive)
REMARK    1  A    between atoms: C_1  and  C_2
REMARK    2  A    between atoms: C_2  and  C_3
REMARK    3  A    between atoms: C_2  and  N_4
REMARK    4  A    between atoms: C_5  and  C_7
REMARK    5  A    between atoms: C_7  and  O_8
REMARK    6  A    between atoms: O_8  and  C_9
REMARK    7  A    between atoms: C_12  and  C_15
REMARK    8  A    between atoms: N_16  and  N_17
REMARK    9  A    between atoms: C_18  and  C_20
REMARK   10  A    between atoms: N_22  and  C_23
REMARK                            x       y       z     vdW  Elec       q    Type
REMARK                         _______ _______ _______ _____ _____    ______ ____
ROOT
ATOM      1  C   UNL     1       1.950  -2.955   9.579  0.00  0.00    +0.138 C 
ATOM      2  N   UNL     1       1.174  -3.048  10.617  0.00  0.00    -0.187 NA
ENDROOT
BRANCH   1   6
ATOM      3  C   UNL     1       0.393  -1.568   5.881  0.00  0.00    +0.121 A 
ATOM      4  C   UNL     1       1.733  -1.922   5.979  0.00  0.00    +0.046 A 
ATOM      5  C   UNL     1       2.243  -2.372   7.178  0.00  0.00    +0.013 A 
ATOM      6  C   UNL     1       1.410  -2.473   8.296  0.00  0.00    -0.005 A 
ATOM      7  C   UNL     1       0.062  -2.116   8.192  0.00  0.00    +0.013 A 
ATOM      8  C   UNL     1      -0.437  -1.661   6.991  0.00  0.00    +0.046 A 
BRANCH   3   9
ATOM      9  O   UNL     1      -0.105  -1.125   4.698  0.00  0.00    -0.483 OA
BRANCH   9  10
ATOM     10  C   UNL     1       0.803  -1.054   3.598  0.00  0.00    +0.324 C 
BRANCH  10  12
ATOM     11  N   UNL     1       0.739  -0.394   1.214  0.00  0.00    -0.310 N 
ATOM     12  C   UNL     1       0.078  -0.544   2.379  0.00  0.00    +0.251 C 
ATOM     13  O   UNL     1      -1.102  -0.269   2.447  0.00  0.00    -0.272 OA
ATOM     14  H   UNL     1       1.682  -0.614   1.161  0.00  0.00    +0.149 HD
BRANCH  11  16
ATOM     15  C   UNL     1       0.017   1.631   0.049  0.00  0.00    +0.027 C 
ATOM     16  C   UNL     1       0.033   0.102   0.030  0.00  0.00    +0.067 C 
ATOM     17  C   UNL     1       0.750  -0.385  -1.231  0.00  0.00    +0.027 C 
ENDBRANCH  11  16
ENDBRANCH  10  12
ENDBRANCH   9  10
ENDBRANCH   3   9
ENDBRANCH   1   6
BRANCH   2  18
ATOM     18  N   UNL     1       1.688  -3.506  11.837  0.00  0.00    -0.199 N 
ATOM     19  C   UNL     1       0.883  -3.602  12.913  0.00  0.00    +0.318 C 
ATOM     20  O   UNL     1      -0.288  -3.292  12.826  0.00  0.00    -0.263 OA
ATOM     21  H   UNL     1       2.623  -3.753  11.907  0.00  0.00    +0.178 HD
BRANCH  19  22
ATOM     22  C   UNL     1       1.430  -4.089  14.212  0.00  0.00    +0.305 C 
ATOM     23  O   UNL     1       2.600  -4.399  14.300  0.00  0.00    -0.265 OA
ATOM     24  N   UNL     1       0.625  -4.186  15.289  0.00  0.00    -0.277 N 
ATOM     25  H   UNL     1      -0.293  -3.877  15.237  0.00  0.00    +0.155 HD
BRANCH  24  26
ATOM     26  C   UNL     1       1.113  -4.731  16.480  0.00  0.00    +0.048 A 
ATOM     27  C   UNL     1       2.434  -4.520  16.852  0.00  0.00    +0.024 A 
ATOM     28  C   UNL     1       2.913  -5.059  18.029  0.00  0.00    +0.002 A 
ATOM     29  C   UNL     1       2.079  -5.809  18.838  0.00  0.00    +0.001 A 
ATOM     30  C   UNL     1       0.763  -6.022  18.471  0.00  0.00    +0.017 A 
ATOM     31  C   UNL     1       0.275  -5.480  17.297  0.00  0.00    +0.039 A 
ATOM     32 BR   UNL     1      -1.527  -5.764  16.801  0.00  0.00    -0.048 Br
ENDBRANCH  24  26
ENDBRANCH  19  22
ENDBRANCH   2  18
TORSDOF 8
