REMARK  Name = ZINC15681463
REMARK  7 active torsions:
REMARK  status: ('A' for Active; 'I' for Inactive)
REMARK    1  A    between atoms: C_1  and  C_2
REMARK    2  A    between atoms: C_5  and  N_8
REMARK    3  A    between atoms: C_9  and  N_24
REMARK    4  A    between atoms: C_10  and  C_14
REMARK    5  A    between atoms: C_11  and  C_13
REMARK    6  A    between atoms: N_16  and  C_17
REMARK    7  A    between atoms: C_22  and  C_23
REMARK                            x       y       z     vdW  Elec       q    Type
REMARK                         _______ _______ _______ _____ _____    ______ ____
ROOT
ATOM      1  N   UNL     1      -2.922   0.433  -0.760  0.00  0.00    -0.215 N 
ATOM      2  C   UNL     1      -2.423   1.416   0.020  0.00  0.00    +0.154 A 
ATOM      3  C   UNL     1      -3.466   1.879   0.815  0.00  0.00    +0.102 A 
ATOM      4  C   UNL     1      -4.611   1.121   0.477  0.00  0.00    +0.075 A 
ATOM      5  N   UNL     1      -4.277   0.269  -0.451  0.00  0.00    -0.169 NA
ATOM      6  C   UNL     1      -5.981   1.274   1.085  0.00  0.00    +0.068 C 
ENDROOT
BRANCH   1  11
ATOM      7  C   UNL     1      -0.017  -2.536  -4.627  0.00  0.00    +0.044 C 
ATOM      8  C   UNL     1      -0.789  -1.748  -3.599  0.00  0.00    -0.050 A 
ATOM      9  C   UNL     1      -1.788  -2.361  -2.866  0.00  0.00    +0.005 A 
ATOM     10  C   UNL     1      -2.496  -1.641  -1.924  0.00  0.00    +0.028 A 
ATOM     11  C   UNL     1      -2.205  -0.300  -1.714  0.00  0.00    +0.068 A 
ATOM     12  C   UNL     1      -1.205   0.315  -2.456  0.00  0.00    +0.028 A 
ATOM     13  C   UNL     1      -0.496  -0.412  -3.393  0.00  0.00    +0.005 A 
ENDBRANCH   1  11
BRANCH   2  14
ATOM     14  N   UNL     1      -1.113   1.881   0.023  0.00  0.00    -0.307 N 
ATOM     15  C   UNL     1       0.010   1.102   0.017  0.00  0.00    +0.092 A 
ATOM     16  C   UNL     1       1.086   1.915   0.017  0.00  0.00    +0.019 A 
ATOM     17  C   UNL     1       0.613   3.244   0.028  0.00  0.00    +0.019 A 
ATOM     18  C   UNL     1      -0.734   3.195   0.035  0.00  0.00    +0.092 A 
ENDBRANCH   2  14
BRANCH   3  19
ATOM     19  C   UNL     1      -3.391   2.952   1.816  0.00  0.00    +0.254 C 
ATOM     20  O   UNL     1      -3.610   4.104   1.491  0.00  0.00    -0.270 OA
ATOM     21  N   UNL     1      -3.081   2.660   3.095  0.00  0.00    -0.281 N 
ATOM     22  H   UNL     1      -2.985   1.735   3.372  0.00  0.00    +0.155 HD
BRANCH  21  23
ATOM     23  C   UNL     1      -2.897   3.690   4.022  0.00  0.00    +0.037 A 
ATOM     24  C   UNL     1      -2.521   4.956   3.591  0.00  0.00    +0.023 A 
ATOM     25  C   UNL     1      -2.345   5.973   4.509  0.00  0.00    +0.002 A 
ATOM     26  C   UNL     1      -2.532   5.729   5.858  0.00  0.00    +0.000 A 
ATOM     27  C   UNL     1      -2.901   4.468   6.291  0.00  0.00    +0.005 A 
ATOM     28  C   UNL     1      -3.084   3.449   5.377  0.00  0.00    -0.029 A 
ATOM     29  C   UNL     1      -3.485   2.075   5.850  0.00  0.00    +0.045 C 
ENDBRANCH  21  23
ENDBRANCH   3  19
TORSDOF 4
