REMARK  Name = ZINC23593426
REMARK  11 active torsions:
REMARK  status: ('A' for Active; 'I' for Inactive)
REMARK    1  A    between atoms: C_1  and  C_2
REMARK    2  A    between atoms: C_2  and  C_4
REMARK    3  A    between atoms: C_2  and  O_16
REMARK    4  A    between atoms: N_6  and  C_7
REMARK    5  A    between atoms: C_10  and  C_13
REMARK    6  A    between atoms: C_13  and  C_14
REMARK    7  A    between atoms: C_13  and  C_15
REMARK    8  A    between atoms: O_16  and  C_17
REMARK    9  A    between atoms: C_17  and  C_19
REMARK   10  A    between atoms: C_21  and  S_26
REMARK   11  A    between atoms: S_26  and  N_29
REMARK                            x       y       z     vdW  Elec       q    Type
REMARK                         _______ _______ _______ _____ _____    ______ ____
ROOT
ATOM      1  O   UNL     1       0.692  -0.480   1.160  0.00  0.00    -0.449 OA
ENDROOT
BRANCH   1   3
ATOM      2  C   UNL     1      -0.033   1.520   0.013  0.00  0.00    +0.062 C 
ATOM      3  C   UNL     1      -0.002  -0.010   0.002  0.00  0.00    +0.259 C 
BRANCH   3   4
ATOM      4  C   UNL     1       0.708  -0.488  -1.238  0.00  0.00    +0.258 C 
ATOM      5  O   UNL     1       1.758  -1.088  -1.142  0.00  0.00    -0.271 OA
ATOM      6  N   UNL     1       0.176  -0.250  -2.453  0.00  0.00    -0.282 N 
ATOM      7  H   UNL     1      -0.695   0.170  -2.527  0.00  0.00    +0.155 HD
BRANCH   6   8
ATOM      8  C   UNL     1       0.881  -0.608  -3.608  0.00  0.00    +0.034 A 
ATOM      9  C   UNL     1       0.802   0.185  -4.745  0.00  0.00    +0.023 A 
ATOM     10  C   UNL     1       1.499  -0.171  -5.883  0.00  0.00    +0.006 A 
ATOM     11  C   UNL     1       2.275  -1.316  -5.891  0.00  0.00    -0.045 A 
ATOM     12  C   UNL     1       2.355  -2.108  -4.760  0.00  0.00    +0.006 A 
ATOM     13  C   UNL     1       1.665  -1.754  -3.617  0.00  0.00    +0.023 A 
BRANCH  11  14
ATOM     14  C   UNL     1       3.034  -1.702  -7.134  0.00  0.00    +0.013 C 
ATOM     15  C   UNL     1       4.531  -1.752  -6.823  0.00  0.00    +0.012 C 
ATOM     16  C   UNL     1       2.565  -3.078  -7.612  0.00  0.00    +0.012 C 
ENDBRANCH  11  14
ENDBRANCH   6   8
ENDBRANCH   3   4
ENDBRANCH   1   3
BRANCH   1  17
ATOM     17  C   UNL     1      -0.045  -0.707   2.264  0.00  0.00    +0.341 C 
ATOM     18  O   UNL     1      -1.244  -0.511   2.245  0.00  0.00    -0.245 OA
BRANCH  17  19
ATOM     19  C   UNL     1       0.604  -1.195   3.498  0.00  0.00    +0.075 A 
ATOM     20  C   UNL     1       1.983  -1.416   3.525  0.00  0.00    +0.044 A 
ATOM     21  C   UNL     1       2.583  -1.871   4.680  0.00  0.00    +0.106 A 
ATOM     22  C   UNL     1       1.822  -2.109   5.812  0.00  0.00    +0.029 A 
ATOM     23  C   UNL     1       0.456  -1.893   5.793  0.00  0.00    +0.018 A 
ATOM     24  C   UNL     1      -0.157  -1.431   4.645  0.00  0.00    +0.032 A 
ATOM     25 BR   UNL     1      -2.024  -1.129   4.624  0.00  0.00    -0.049 Br
BRANCH  21  26
ATOM     26  S   UNL     1       4.322  -2.151   4.715  0.00  0.00    +0.056 S 
ATOM     27  O   UNL     1       4.560  -3.095   5.750  0.00  0.00    -0.153 OA
ATOM     28  O   UNL     1       4.725  -2.375   3.371  0.00  0.00    -0.153 OA
BRANCH  26  29
ATOM     29  N   UNL     1       5.036  -0.735   5.194  0.00  0.00    -0.204 NA
ATOM     30  H   UNL     1       4.489   0.041   5.391  0.00  0.00    +0.144 HD
ATOM     31  H   UNL     1       6.001  -0.682   5.277  0.00  0.00    +0.144 HD
ENDBRANCH  26  29
ENDBRANCH  21  26
ENDBRANCH  17  19
ENDBRANCH   1  17
TORSDOF 8
