REMARK  Name = ZINC16399449
REMARK  4 active torsions:
REMARK  status: ('A' for Active; 'I' for Inactive)
REMARK    1  A    between atoms: C_4  and  C_7
REMARK    2  A    between atoms: C_14  and  S_16
REMARK    3  A    between atoms: S_16  and  C_17
REMARK    4  A    between atoms: C_17  and  C_18
REMARK                            x       y       z     vdW  Elec       q    Type
REMARK                         _______ _______ _______ _____ _____    ______ ____
ROOT
ATOM      1  C   UNL     1       3.698  -0.688  -0.038  0.00  0.00    +0.004 A 
ATOM      2  C   UNL     1       4.658  -0.360  -0.936  0.00  0.00    +0.056 A 
ATOM      3  S   UNL     1       5.981  -1.491  -0.548  0.00  0.00    -0.078 S 
ATOM      4  C   UNL     1       5.217  -2.363   0.793  0.00  0.00    +0.093 A 
ATOM      5  C   UNL     1       3.965  -1.759   0.915  0.00  0.00    +0.080 A 
ATOM      6  C   UNL     1       3.101  -2.303   1.988  0.00  0.00    +0.283 A 
ATOM      7  N   UNL     1       3.555  -3.300   2.753  0.00  0.00    -0.185 NA
ATOM      8  C   UNL     1       4.751  -3.824   2.590  0.00  0.00    +0.171 A 
ATOM      9  N   UNL     1       5.595  -3.380   1.616  0.00  0.00    -0.328 N 
ATOM     10  O   UNL     1       1.984  -1.844   2.171  0.00  0.00    -0.265 OA
ATOM     11  H   UNL     1       6.472  -3.782   1.516  0.00  0.00    +0.168 HD
ENDROOT
BRANCH   1  15
ATOM     12  C   UNL     1      -0.017   1.379   0.010  0.00  0.00    +0.000 A 
ATOM     13  C   UNL     1       1.169   2.092   0.002  0.00  0.00    +0.001 A 
ATOM     14  C   UNL     1       2.377   1.427  -0.013  0.00  0.00    +0.008 A 
ATOM     15  C   UNL     1       2.403   0.033  -0.021  0.00  0.00    -0.017 A 
ATOM     16  C   UNL     1       1.205  -0.680  -0.013  0.00  0.00    +0.008 A 
ATOM     17  C   UNL     1       0.002  -0.004   0.002  0.00  0.00    +0.001 A 
ENDBRANCH   1  15
BRANCH   8  18
ATOM     18  S   UNL     1       5.268  -5.136   3.646  0.00  0.00    -0.078 S 
BRANCH  18  19
ATOM     19  C   UNL     1       3.852  -5.395   4.750  0.00  0.00    +0.172 C 
BRANCH  19  20
ATOM     20  C   UNL     1       4.166  -6.507   5.717  0.00  0.00    +0.221 C 
ATOM     21  O   UNL     1       5.240  -7.070   5.667  0.00  0.00    -0.275 OA
ATOM     22  N   UNL     1       3.254  -6.877   6.638  0.00  0.00    -0.329 N 
ATOM     23  H   UNL     1       2.396  -6.427   6.678  0.00  0.00    +0.145 HD
ATOM     24  H   UNL     1       3.457  -7.593   7.261  0.00  0.00    +0.145 HD
ENDBRANCH  19  20
ENDBRANCH  18  19
ENDBRANCH   8  18
TORSDOF 4
