REMARK  Name = ZINC16692686
REMARK  5 active torsions:
REMARK  status: ('A' for Active; 'I' for Inactive)
REMARK    1  A    between atoms: C_1  and  O_2
REMARK    2  A    between atoms: O_2  and  C_3
REMARK    3  A    between atoms: C_5  and  C_10
REMARK    4  A    between atoms: C_8  and  O_9
REMARK    5  A    between atoms: N_16  and  C_17
REMARK                            x       y       z     vdW  Elec       q    Type
REMARK                         _______ _______ _______ _____ _____    ______ ____
ROOT
ATOM      1  C   UNL     1       3.418   0.217  -3.602  0.00  0.00    +0.028 C 
ATOM      2  C   UNL     1       3.835  -0.353  -4.762  0.00  0.00    +0.078 C 
ATOM      3  C   UNL     1       4.376   0.286  -5.977  0.00  0.00    +0.256 C 
ATOM      4  O   UNL     1       4.510   1.493  -6.056  0.00  0.00    -0.269 OA
ATOM      5  N   UNL     1       4.710  -0.513  -6.977  0.00  0.00    -0.260 N 
ATOM      6  C   UNL     1       4.550  -1.877  -6.868  0.00  0.00    +0.166 C 
ATOM      7  N   UNL     1       4.828  -2.805  -7.756  0.00  0.00    -0.225 NA
ATOM      8  S   UNL     1       3.882  -2.078  -5.225  0.00  0.00    -0.049 S 
ATOM      9  H   UNL     1       5.069  -0.135  -7.794  0.00  0.00    +0.157 HD
ENDROOT
BRANCH   7  10
ATOM     10  C   UNL     1       4.517  -4.113  -7.500  0.00  0.00    +0.080 A 
ATOM     11  C   UNL     1       3.242  -4.455  -7.043  0.00  0.00    +0.029 A 
ATOM     12  C   UNL     1       2.935  -5.775  -6.786  0.00  0.00    +0.002 A 
ATOM     13  C   UNL     1       3.887  -6.760  -6.981  0.00  0.00    +0.001 A 
ATOM     14  C   UNL     1       5.152  -6.430  -7.433  0.00  0.00    +0.017 A 
ATOM     15  C   UNL     1       5.472  -5.114  -7.699  0.00  0.00    +0.043 A 
ATOM     16 BR   UNL     1       7.199  -4.665  -8.324  0.00  0.00    -0.048 Br
ENDBRANCH   7  10
BRANCH   1  19
ATOM     17  C   UNL     1       1.994  -0.903  -0.319  0.00  0.00    +0.162 A 
ATOM     18  C   UNL     1       2.316  -0.103  -1.397  0.00  0.00    +0.057 A 
ATOM     19  C   UNL     1       3.073  -0.628  -2.452  0.00  0.00    -0.020 A 
ATOM     20  C   UNL     1       3.499  -1.961  -2.407  0.00  0.00    +0.012 A 
ATOM     21  C   UNL     1       3.173  -2.751  -1.326  0.00  0.00    +0.050 A 
ATOM     22  C   UNL     1       2.427  -2.228  -0.279  0.00  0.00    +0.158 A 
BRANCH  17  24
ATOM     23  C   UNL     1       0.850   0.968   0.601  0.00  0.00    +0.277 C 
ATOM     24  O   UNL     1       1.260  -0.397   0.708  0.00  0.00    -0.491 OA
ENDBRANCH  17  24
BRANCH  22  25
ATOM     25  O   UNL     1       2.114  -3.011   0.787  0.00  0.00    -0.503 OA
ATOM     26  H   UNL     1       1.281  -3.492   0.690  0.00  0.00    +0.292 HD
ENDBRANCH  22  25
ENDBRANCH   1  19
TORSDOF 4
