REMARK  Name = ZINC63373751
REMARK  7 active torsions:
REMARK  status: ('A' for Active; 'I' for Inactive)
REMARK    1  A    between atoms: C_1  and  C_2
REMARK    2  A    between atoms: C_13  and  C_32
REMARK    3  A    between atoms: N_20  and  C_23
REMARK    4  A    between atoms: C_23  and  C_24
REMARK    5  A    between atoms: C_24  and  C_25
REMARK    6  A    between atoms: C_35  and  O_38
REMARK    7  A    between atoms: O_38  and  C_39
REMARK                            x       y       z     vdW  Elec       q    Type
REMARK                         _______ _______ _______ _____ _____    ______ ____
ROOT
ATOM      1  C   UNL     1      -0.019   1.526   0.010  0.00  0.00    +0.044 C 
ATOM      2  C   UNL     1       0.002  -0.004   0.002  0.00  0.00    +0.135 C 
ATOM      3  C   UNL     1       0.498  -0.386  -1.357  0.00  0.00    +0.139 C 
ATOM      4  C   UNL     1       1.585  -1.439  -1.225  0.00  0.00    -0.027 C 
ATOM      5  C   UNL     1       1.260  -2.423  -2.051  0.00  0.00    -0.000 A 
ATOM      6  C   UNL     1       1.955  -3.666  -2.422  0.00  0.00    +0.010 A 
ATOM      7  C   UNL     1       1.313  -4.469  -3.312  0.00  0.00    +0.001 A 
ATOM      8  C   UNL     1       0.064  -4.165  -3.862  0.00  0.00    +0.002 A 
ATOM      9  C   UNL     1      -0.644  -3.043  -3.581  0.00  0.00    +0.026 A 
ATOM     10  C   UNL     1      -0.070  -2.116  -2.663  0.00  0.00    +0.043 A 
ATOM     11  N   UNL     1      -0.510  -0.988  -2.228  0.00  0.00    -0.375 N 
ATOM     12  C   UNL     1       2.705  -1.279  -0.227  0.00  0.00    +0.065 C 
ATOM     13  C   UNL     1       2.038  -1.169   1.147  0.00  0.00    +0.121 C 
ATOM     14  N   UNL     1       0.822  -0.378   1.140  0.00  0.00    -0.283 N 
ATOM     15  C   UNL     1       0.343   0.038   2.360  0.00  0.00    +0.234 C 
ATOM     16  O   UNL     1       0.982  -0.114   3.379  0.00  0.00    -0.274 OA
ATOM     17  C   UNL     1      -1.021   0.697   2.368  0.00  0.00    +0.203 C 
ATOM     18  N   UNL     1      -1.920  -0.069   1.485  0.00  0.00    -0.291 N 
ATOM     19  C   UNL     1      -1.426  -0.413   0.258  0.00  0.00    +0.242 C 
ATOM     20  O   UNL     1      -2.089  -1.004  -0.568  0.00  0.00    -0.273 OA
ATOM     21  H   UNL     1      -1.372  -0.603  -2.451  0.00  0.00    +0.160 HD
ENDROOT
BRANCH  12  22
ATOM     22  C   UNL     1       3.612  -2.481  -0.270  0.00  0.00    -0.038 A 
ATOM     23  C   UNL     1       3.106  -3.739   0.001  0.00  0.00    +0.008 A 
ATOM     24  C   UNL     1       3.936  -4.842  -0.037  0.00  0.00    +0.046 A 
ATOM     25  C   UNL     1       5.279  -4.688  -0.349  0.00  0.00    +0.120 A 
ATOM     26  C   UNL     1       5.785  -3.426  -0.621  0.00  0.00    +0.046 A 
ATOM     27  C   UNL     1       4.949  -2.326  -0.587  0.00  0.00    +0.008 A 
BRANCH  25  28
ATOM     28  O   UNL     1       6.098  -5.772  -0.387  0.00  0.00    -0.495 OA
ATOM     29  C   UNL     1       7.469  -5.539  -0.715  0.00  0.00    +0.277 C 
ENDBRANCH  25  28
ENDBRANCH  12  22
BRANCH  18  30
ATOM     30  C   UNL     1      -3.274  -0.442   1.902  0.00  0.00    +0.113 C 
BRANCH  30  31
ATOM     31  C   UNL     1      -4.254   0.660   1.497  0.00  0.00    +0.057 C 
BRANCH  31  32
ATOM     32  C   UNL     1      -5.647   0.277   1.925  0.00  0.00    -0.011 A 
ATOM     33  C   UNL     1      -6.495  -0.355   1.035  0.00  0.00    +0.006 A 
ATOM     34  C   UNL     1      -7.772  -0.708   1.428  0.00  0.00    +0.000 A 
ATOM     35  C   UNL     1      -8.204  -0.428   2.712  0.00  0.00    +0.003 A 
ATOM     36  C   UNL     1      -7.358   0.203   3.603  0.00  0.00    +0.038 A 
ATOM     37  C   UNL     1      -6.076   0.552   3.213  0.00  0.00    +0.127 A 
ATOM     38  F   UNL     1      -5.247   1.165   4.085  0.00  0.00    -0.205 F 
ENDBRANCH  31  32
ENDBRANCH  30  31
ENDBRANCH  18  30
TORSDOF 5
