REMARK  Name = ZINC09478156
REMARK  7 active torsions:
REMARK  status: ('A' for Active; 'I' for Inactive)
REMARK    1  A    between atoms: C_1  and  C_2
REMARK    2  A    between atoms: C_6  and  N_9
REMARK    3  A    between atoms: C_7  and  C_8
REMARK    4  A    between atoms: C_13  and  C_15
REMARK    5  A    between atoms: C_15  and  N_16
REMARK    6  A    between atoms: C_19  and  C_23
REMARK    7  A    between atoms: C_19  and  C_24
REMARK                            x       y       z     vdW  Elec       q    Type
REMARK                         _______ _______ _______ _____ _____    ______ ____
ROOT
ATOM      1  N   UNL     1      -3.599   1.714  -0.057  0.00  0.00    -0.215 N 
ATOM      2  C   UNL     1      -4.312   2.080  -1.140  0.00  0.00    +0.251 C 
ATOM      3  O   UNL     1      -4.027   1.889  -2.303  0.00  0.00    -0.272 OA
ATOM      4  C   UNL     1      -5.544   2.780  -0.603  0.00  0.00    +0.136 C 
ATOM      5  N   UNL     1      -5.366   2.721   0.858  0.00  0.00    -0.281 N 
ATOM      6  C   UNL     1      -4.206   2.077   1.079  0.00  0.00    +0.310 C 
ATOM      7  O   UNL     1      -3.758   1.853   2.186  0.00  0.00    -0.252 OA
ATOM      8  C   UNL     1      -5.590   4.233  -1.081  0.00  0.00    +0.047 C 
ATOM      9  H   UNL     1      -5.970   3.075   1.530  0.00  0.00    +0.152 HD
ENDROOT
BRANCH   4  10
ATOM     10  C   UNL     1      -6.794   2.047  -1.018  0.00  0.00    -0.008 A 
ATOM     11  C   UNL     1      -7.607   1.494  -0.077  0.00  0.00    +0.007 A 
ATOM     12  C   UNL     1      -8.767   0.813  -0.441  0.00  0.00    +0.001 A 
ATOM     13  C   UNL     1      -9.120   0.680  -1.749  0.00  0.00    +0.008 A 
ATOM     14  C   UNL     1      -8.305   1.238  -2.749  0.00  0.00    -0.018 A 
ATOM     15  C   UNL     1      -7.128   1.935  -2.378  0.00  0.00    -0.012 A 
ATOM     16  C   UNL     1      -6.310   2.488  -3.378  0.00  0.00    +0.009 A 
ATOM     17  C   UNL     1      -6.663   2.356  -4.686  0.00  0.00    +0.001 A 
ATOM     18  C   UNL     1      -7.823   1.674  -5.051  0.00  0.00    +0.001 A 
ATOM     19  C   UNL     1      -8.637   1.121  -4.110  0.00  0.00    +0.008 A 
ENDBRANCH   4  10
BRANCH   1  20
ATOM     20  C   UNL     1      -2.321   1.001  -0.115  0.00  0.00    +0.214 C 
BRANCH  20  25
ATOM     21  N   UNL     1       2.370   2.029  -0.348  0.00  0.00    -0.269 N 
ATOM     22  C   UNL     1       1.094   2.459  -0.283  0.00  0.00    +0.310 C 
ATOM     23  O   UNL     1       0.854   3.650  -0.274  0.00  0.00    -0.252 OA
ATOM     24  N   UNL     1       0.084   1.567  -0.229  0.00  0.00    -0.239 N 
ATOM     25  C   UNL     1      -1.192   1.997  -0.170  0.00  0.00    +0.238 C 
ATOM     26  O   UNL     1      -1.431   3.186  -0.161  0.00  0.00    -0.274 OA
ATOM     27  H   UNL     1       2.566   1.081  -0.276  0.00  0.00    +0.156 HD
ATOM     28  H   UNL     1       0.276   0.617  -0.236  0.00  0.00    +0.159 HD
BRANCH  21  34
ATOM     29  C   UNL     1       7.116   3.195   0.184  0.00  0.00    +0.044 C 
ATOM     30  C   UNL     1       5.721   3.540  -0.269  0.00  0.00    -0.046 A 
ATOM     31  C   UNL     1       5.468   4.768  -0.854  0.00  0.00    +0.004 A 
ATOM     32  C   UNL     1       4.189   5.088  -1.270  0.00  0.00    +0.002 A 
ATOM     33  C   UNL     1       3.161   4.180  -1.109  0.00  0.00    +0.023 A 
ATOM     34  C   UNL     1       3.410   2.949  -0.518  0.00  0.00    +0.038 A 
ATOM     35  C   UNL     1       4.696   2.630  -0.100  0.00  0.00    -0.026 A 
ATOM     36  C   UNL     1       4.973   1.292   0.536  0.00  0.00    +0.046 C 
ENDBRANCH  21  34
ENDBRANCH  20  25
ENDBRANCH   1  20
TORSDOF 4
