REMARK  Name = ZINC24901837
REMARK  13 active torsions:
REMARK  status: ('A' for Active; 'I' for Inactive)
REMARK    1  A    between atoms: C_1  and  C_2
REMARK    2  A    between atoms: C_2  and  C_3
REMARK    3  A    between atoms: C_3  and  C_4
REMARK    4  A    between atoms: C_3  and  C_5
REMARK    5  A    between atoms: C_3  and  C_6
REMARK    6  A    between atoms: C_13  and  N_17
REMARK    7  A    between atoms: C_14  and  C_15
REMARK    8  A    between atoms: C_18  and  C_20
REMARK    9  A    between atoms: C_20  and  S_21
REMARK   10  A    between atoms: S_21  and  C_22
REMARK   11  A    between atoms: C_24  and  C_31
REMARK   12  A    between atoms: C_25  and  C_27
REMARK   13  A    between atoms: C_27  and  C_28
REMARK                            x       y       z     vdW  Elec       q    Type
REMARK                         _______ _______ _______ _____ _____    ______ ____
ROOT
ATOM      1  N   UNL     1      -0.831  -7.920  -2.493  0.00  0.00    -0.278 N 
ATOM      2  C   UNL     1       0.122  -8.175  -3.412  0.00  0.00    +0.228 C 
ATOM      3  O   UNL     1       0.827  -7.277  -3.820  0.00  0.00    -0.275 OA
ATOM      4  H   UNL     1      -1.470  -8.735  -2.123  0.00  0.00    +0.155 HD
ENDROOT
BRANCH   1  11
ATOM      5  C   UNL     1      -1.413  -2.063   0.004  0.00  0.00    -0.000 C 
ATOM      6  C   UNL     1      -2.848  -2.596   0.015  0.00  0.00    +0.009 C 
ATOM      7  C   UNL     1      -2.841  -4.107   0.256  0.00  0.00    +0.037 C 
ATOM      8  C   UNL     1      -1.899  -4.759  -0.749  0.00  0.00    -0.018 A 
ATOM      9  C   UNL     1      -0.967  -4.031  -1.403  0.00  0.00    -0.004 A 
ATOM     10  S   UNL     1      -0.132  -5.195  -2.442  0.00  0.00    -0.077 S 
ATOM     11  C   UNL     1      -1.006  -6.629  -2.015  0.00  0.00    +0.090 A 
ATOM     12  C   UNL     1      -1.923  -6.173  -1.080  0.00  0.00    +0.084 A 
ATOM     13  C   UNL     1      -0.710  -2.562  -1.267  0.00  0.00    +0.047 C 
BRANCH   5  14
ATOM     14  C   UNL     1      -1.433  -0.534   0.013  0.00  0.00    -0.032 C 
ATOM     15  C   UNL     1      -2.149  -0.040   1.272  0.00  0.00    +0.011 C 
ATOM     16  C   UNL     1      -2.173  -0.027  -1.227  0.00  0.00    +0.011 C 
BRANCH  14  18
ATOM     17  C   UNL     1      -0.019   1.526   0.010  0.00  0.00    +0.004 C 
ATOM     18  C   UNL     1       0.002  -0.004   0.002  0.00  0.00    +0.003 C 
ENDBRANCH  14  18
ENDBRANCH   5  14
BRANCH  12  19
ATOM     19  C   UNL     1      -2.859  -7.064  -0.463  0.00  0.00    +0.102 C 
ATOM     20  N   UNL     1      -3.601  -7.771   0.027  0.00  0.00    -0.191 NA
ENDBRANCH  12  19
ENDBRANCH   1  11
BRANCH   2  21
ATOM     21  C   UNL     1       0.312  -9.577  -3.930  0.00  0.00    +0.172 C 
BRANCH  21  22
ATOM     22  S   UNL     1       1.657  -9.595  -5.141  0.00  0.00    -0.089 S 
BRANCH  22  23
ATOM     23  C   UNL     1       1.661 -11.305  -5.569  0.00  0.00    +0.135 A 
ATOM     24  N   UNL     1       0.887 -12.274  -5.118  0.00  0.00    -0.238 NA
ATOM     25  C   UNL     1       1.024 -13.514  -5.550  0.00  0.00    +0.050 A 
ATOM     26  C   UNL     1       1.981 -13.774  -6.473  0.00  0.00    +0.022 A 
ATOM     27  S   UNL     1       2.677 -12.144  -6.700  0.00  0.00    -0.065 S 
ATOM     28  C   UNL     1       0.137 -14.614  -5.027  0.00  0.00    +0.066 C 
BRANCH  26  29
ATOM     29  C   UNL     1       2.352 -15.078  -7.131  0.00  0.00    +0.139 C 
BRANCH  29  30
ATOM     30  C   UNL     1       1.543 -15.253  -8.390  0.00  0.00    +0.215 C 
ATOM     31  O   UNL     1       0.744 -14.403  -8.720  0.00  0.00    -0.276 OA
ATOM     32  N   UNL     1       1.707 -16.354  -9.149  0.00  0.00    -0.329 N 
ATOM     33  H   UNL     1       1.117 -16.482 -10.068  0.00  0.00    +0.145 HD
ATOM     34  H   UNL     1       2.432 -17.126  -8.850  0.00  0.00    +0.145 HD
ENDBRANCH  29  30
ENDBRANCH  26  29
ENDBRANCH  22  23
ENDBRANCH  21  22
ENDBRANCH   2  21
TORSDOF 9
