REMARK  Name = ZINC03505120
REMARK  7 active torsions:
REMARK  status: ('A' for Active; 'I' for Inactive)
REMARK    1  A    between atoms: C_1  and  C_2
REMARK    2  A    between atoms: C_5  and  C_29
REMARK    3  A    between atoms: C_6  and  N_8
REMARK    4  A    between atoms: C_17  and  S_18
REMARK    5  A    between atoms: S_18  and  C_19
REMARK    6  A    between atoms: C_19  and  C_20
REMARK    7  A    between atoms: C_24  and  C_28
REMARK                            x       y       z     vdW  Elec       q    Type
REMARK                         _______ _______ _______ _____ _____    ______ ____
ROOT
ATOM      1  N   UNL     1       0.057  -4.063  -1.904  0.00  0.00    -0.255 N 
ATOM      2  C   UNL     1      -0.058  -2.886  -1.245  0.00  0.00    +0.268 A 
ATOM      3  O   UNL     1      -0.844  -2.733  -0.326  0.00  0.00    -0.267 OA
ATOM      4  C   UNL     1       0.801  -1.831  -1.693  0.00  0.00    +0.076 A 
ATOM      5  C   UNL     1       0.873  -0.481  -1.157  0.00  0.00    -0.023 A 
ATOM      6  C   UNL     1       1.763   0.356  -1.737  0.00  0.00    -0.004 A 
ATOM      7  S   UNL     1       2.540  -0.603  -3.014  0.00  0.00    -0.073 S 
ATOM      8  C   UNL     1       1.673  -2.120  -2.768  0.00  0.00    +0.117 A 
ATOM      9  N   UNL     1       1.738  -3.299  -3.374  0.00  0.00    -0.215 NA
ATOM     10  C   UNL     1       0.930  -4.254  -2.934  0.00  0.00    +0.178 A 
ATOM     11  C   UNL     1       2.033   1.784  -1.377  0.00  0.00    +0.046 C 
ATOM     12  C   UNL     1       1.415   2.064  -0.000  0.00  0.00    -0.009 C 
ATOM     13  C   UNL     1      -0.019   1.524   0.010  0.00  0.00    +0.008 C 
ATOM     14  C   UNL     1       0.002  -0.004   0.002  0.00  0.00    +0.037 C 
ATOM     15  C   UNL     1       1.397   3.572   0.258  0.00  0.00    +0.008 C 
ENDROOT
BRANCH   1  21
ATOM     16  C   UNL     1      -0.648  -8.032   0.913  0.00  0.00    +0.044 C 
ATOM     17  C   UNL     1      -1.123  -7.071  -0.146  0.00  0.00    -0.048 A 
ATOM     18  C   UNL     1      -2.365  -7.245  -0.730  0.00  0.00    +0.004 A 
ATOM     19  C   UNL     1      -2.804  -6.366  -1.702  0.00  0.00    +0.005 A 
ATOM     20  C   UNL     1      -2.004  -5.310  -2.093  0.00  0.00    -0.026 A 
ATOM     21  C   UNL     1      -0.757  -5.133  -1.509  0.00  0.00    +0.055 A 
ATOM     22  C   UNL     1      -0.316  -6.021  -0.537  0.00  0.00    +0.030 A 
ATOM     23  C   UNL     1      -2.484  -4.351  -3.152  0.00  0.00    +0.046 C 
ENDBRANCH   1  21
BRANCH  10  24
ATOM     24  S   UNL     1       0.986  -5.834  -3.712  0.00  0.00    -0.078 S 
BRANCH  24  25
ATOM     25  C   UNL     1       2.265  -5.527  -4.956  0.00  0.00    +0.172 C 
BRANCH  25  26
ATOM     26  C   UNL     1       2.488  -6.777  -5.766  0.00  0.00    +0.221 C 
ATOM     27  O   UNL     1       1.846  -7.778  -5.527  0.00  0.00    -0.275 OA
ATOM     28  N   UNL     1       3.402  -6.784  -6.757  0.00  0.00    -0.329 N 
ATOM     29  H   UNL     1       3.916  -5.984  -6.948  0.00  0.00    +0.145 HD
ATOM     30  H   UNL     1       3.546  -7.589  -7.278  0.00  0.00    +0.145 HD
ENDBRANCH  25  26
ENDBRANCH  24  25
ENDBRANCH  10  24
TORSDOF 4
