REMARK  Name = ZINC43305297
REMARK  6 active torsions:
REMARK  status: ('A' for Active; 'I' for Inactive)
REMARK    1  A    between atoms: C_4  and  C_7
REMARK    2  A    between atoms: C_7  and  C_9
REMARK    3  A    between atoms: C_7  and  N_22
REMARK    4  A    between atoms: N_11  and  C_12
REMARK    5  A    between atoms: C_16  and  N_18
REMARK    6  A    between atoms: C_26  and  O_29
REMARK                            x       y       z     vdW  Elec       q    Type
REMARK                         _______ _______ _______ _____ _____    ______ ____
ROOT
ATOM      1  C   UNL     1       3.867  -0.723  -0.049  0.00  0.00    +0.050 C 
ENDROOT
BRANCH   1   2
ATOM      2  N   UNL     1       4.667  -1.514   0.895  0.00  0.00    +0.392 N 
ATOM      3  C   UNL     1       4.297  -1.155   2.269  0.00  0.00    -0.077 C 
ATOM      4  C   UNL     1       5.068  -2.034   3.256  0.00  0.00    -0.016 C 
ATOM      5  C   UNL     1       6.571  -1.816   3.058  0.00  0.00    +0.027 C 
ATOM      6  C   UNL     1       6.933  -2.123   1.601  0.00  0.00    +0.098 C 
ATOM      7  C   UNL     1       6.093  -1.241   0.676  0.00  0.00    -0.046 C 
ATOM      8  H   UNL     1       4.487  -2.496   0.746  0.00  0.00    -0.080 HD
BRANCH   6   9
ATOM      9  O   UNL     1       8.320  -1.854   1.388  0.00  0.00    -0.394 OA
ATOM     10  H   UNL     1       8.913  -2.377   1.945  0.00  0.00    +0.210 HD
ENDBRANCH   6   9
ENDBRANCH   1   2
BRANCH   1  14
ATOM     11  C   UNL     1      -0.286  -1.326   0.746  0.00  0.00    +0.000 A 
ATOM     12  C   UNL     1       0.180  -0.066   0.423  0.00  0.00    +0.000 A 
ATOM     13  C   UNL     1       1.524   0.130   0.166  0.00  0.00    +0.002 A 
ATOM     14  C   UNL     1       2.402  -0.935   0.232  0.00  0.00    -0.052 A 
ATOM     15  C   UNL     1       1.937  -2.196   0.556  0.00  0.00    +0.002 A 
ATOM     16  C   UNL     1       0.592  -2.392   0.812  0.00  0.00    +0.000 A 
ENDBRANCH   1  14
BRANCH   1  17
ATOM     17  C   UNL     1       4.177  -1.158  -1.458  0.00  0.00    +0.208 C 
ATOM     18  O   UNL     1       4.532  -2.297  -1.676  0.00  0.00    -0.277 OA
ATOM     19  N   UNL     1       4.059  -0.282  -2.475  0.00  0.00    -0.286 N 
ATOM     20  H   UNL     1       3.841   0.645  -2.294  0.00  0.00    +0.155 HD
BRANCH  19  21
ATOM     21  C   UNL     1       4.250  -0.712  -3.794  0.00  0.00    +0.036 A 
ATOM     22  C   UNL     1       3.892  -2.001  -4.165  0.00  0.00    +0.025 A 
ATOM     23  C   UNL     1       4.082  -2.422  -5.466  0.00  0.00    +0.024 A 
ATOM     24  C   UNL     1       4.628  -1.560  -6.401  0.00  0.00    +0.071 A 
ATOM     25  C   UNL     1       4.986  -0.274  -6.034  0.00  0.00    +0.146 A 
ATOM     26  C   UNL     1       4.793   0.153  -4.735  0.00  0.00    +0.057 A 
ATOM     27 CL   UNL     1       4.866  -2.092  -8.036  0.00  0.00    -0.081 Cl
BRANCH  25  28
ATOM     28  N   UNL     1       5.571   0.645  -7.036  0.00  0.00    +0.058 N 
ATOM     29  O   UNL     1       5.884   1.768  -6.716  0.00  0.00    -0.126 OA
ATOM     30  O   UNL     1       5.736   0.272  -8.174  0.00  0.00    -0.126 OA
ENDBRANCH  25  28
ENDBRANCH  19  21
ENDBRANCH   1  17
TORSDOF 6
