REMARK  Name = ZINC35545179
REMARK  7 active torsions:
REMARK  status: ('A' for Active; 'I' for Inactive)
REMARK    1  A    between atoms: C_1  and  C_2
REMARK    2  A    between atoms: C_2  and  N_3
REMARK    3  A    between atoms: C_4  and  C_6
REMARK    4  A    between atoms: C_11  and  C_31
REMARK    5  A    between atoms: N_19  and  C_22
REMARK    6  A    between atoms: C_27  and  O_28
REMARK    7  A    between atoms: O_28  and  C_29
REMARK                            x       y       z     vdW  Elec       q    Type
REMARK                         _______ _______ _______ _____ _____    ______ ____
ROOT
ATOM      1  C   UNL     1       1.583  -2.313   2.615  0.00  0.00    +0.101 C 
ATOM      2  C   UNL     1       3.014  -1.779   2.604  0.00  0.00    +0.051 C 
ATOM      3  C   UNL     1       3.732  -2.343   1.406  0.00  0.00    -0.025 A 
ATOM      4  C   UNL     1       4.754  -1.619   0.819  0.00  0.00    +0.017 A 
ATOM      5  C   UNL     1       5.412  -2.124  -0.287  0.00  0.00    +0.055 A 
ATOM      6  C   UNL     1       5.049  -3.352  -0.810  0.00  0.00    +0.014 A 
ATOM      7  C   UNL     1       4.032  -4.079  -0.224  0.00  0.00    +0.024 A 
ATOM      8  C   UNL     1       3.372  -3.576   0.893  0.00  0.00    +0.033 A 
ATOM      9  N   UNL     1       2.358  -4.352   1.480  0.00  0.00    -0.323 N 
ATOM     10  C   UNL     1       1.598  -3.845   2.607  0.00  0.00    +0.103 C 
ATOM     11  C   UNL     1       0.160  -4.338   2.633  0.00  0.00    +0.128 C 
ATOM     12  N   UNL     1       0.009  -5.673   2.090  0.00  0.00    -0.324 N 
ATOM     13  C   UNL     1       0.717  -6.119   0.901  0.00  0.00    +0.124 C 
ATOM     14  C   UNL     1       2.164  -5.694   0.932  0.00  0.00    +0.124 C 
ENDROOT
BRANCH  12  15
ATOM     15  C   UNL     1      -0.854  -6.568   2.734  0.00  0.00    +0.073 A 
ATOM     16  C   UNL     1      -2.189  -6.634   2.366  0.00  0.00    +0.046 A 
ATOM     17  C   UNL     1      -3.039  -7.520   3.004  0.00  0.00    +0.043 A 
ATOM     18  C   UNL     1      -2.559  -8.340   4.010  0.00  0.00    +0.024 A 
ATOM     19  C   UNL     1      -1.229  -8.278   4.382  0.00  0.00    +0.049 A 
ATOM     20  C   UNL     1      -0.371  -7.398   3.743  0.00  0.00    +0.141 A 
ATOM     21 CL   UNL     1      -4.710  -7.602   2.542  0.00  0.00    -0.083 Cl
BRANCH  20  22
ATOM     22  O   UNL     1       0.939  -7.340   4.105  0.00  0.00    -0.493 OA
ATOM     23  C   UNL     1       1.364  -8.221   5.147  0.00  0.00    +0.277 C 
ENDBRANCH  20  22
ENDBRANCH  12  15
BRANCH   1  25
ATOM     24  N   UNL     1       0.711  -0.489   1.189  0.00  0.00    -0.315 N 
ATOM     25  C   UNL     1       0.854  -1.814   1.394  0.00  0.00    +0.218 C 
ATOM     26  O   UNL     1       0.396  -2.604   0.595  0.00  0.00    -0.275 OA
ATOM     27  H   UNL     1       1.077   0.142   1.827  0.00  0.00    +0.149 HD
BRANCH  24  29
ATOM     28  C   UNL     1      -0.019   1.526   0.010  0.00  0.00    +0.024 C 
ATOM     29  C   UNL     1       0.002  -0.004   0.002  0.00  0.00    +0.101 C 
ENDBRANCH  24  29
ENDBRANCH   1  25
BRANCH   5  30
ATOM     30  C   UNL     1       6.525  -1.334  -0.925  0.00  0.00    +0.417 C 
ATOM     31  F   UNL     1       7.744  -1.684  -0.333  0.00  0.00    -0.166 F 
ATOM     32  F   UNL     1       6.574  -1.618  -2.294  0.00  0.00    -0.166 F 
ATOM     33  F   UNL     1       6.293   0.033  -0.741  0.00  0.00    -0.166 F 
ENDBRANCH   5  30
TORSDOF 5
