REMARK  Name = ZINC14095868
REMARK  9 active torsions:
REMARK  status: ('A' for Active; 'I' for Inactive)
REMARK    1  A    between atoms: C_1  and  C_2
REMARK    2  A    between atoms: C_2  and  C_4
REMARK    3  A    between atoms: C_2  and  N_56
REMARK    4  A    between atoms: N_6  and  C_7
REMARK    5  A    between atoms: C_7  and  C_8
REMARK    6  A    between atoms: C_17  and  C_18
REMARK    7  A    between atoms: C_17  and  N_56
REMARK    8  A    between atoms: C_18  and  C_20
REMARK    9  A    between atoms: C_18  and  C_25
REMARK                            x       y       z     vdW  Elec       q    Type
REMARK                         _______ _______ _______ _____ _____    ______ ____
ROOT
ATOM      1  N   UNL     1      -1.029   5.246   2.483  0.00  0.00    +0.387 N 
ATOM      2  H   UNL     1      -0.596   4.316   2.508  0.00  0.00    -0.085 HD
ATOM      3  H   UNL     1      -0.296   5.963   2.429  0.00  0.00    -0.085 HD
ENDROOT
BRANCH   1   5
ATOM      4  C   UNL     1      -2.449   4.122   4.139  0.00  0.00    -0.004 C 
ATOM      5  C   UNL     1      -1.817   5.449   3.713  0.00  0.00    +0.013 C 
BRANCH   5   6
ATOM      6  C   UNL     1      -0.908   5.947   4.807  0.00  0.00    +0.199 C 
ATOM      7  O   UNL     1       0.272   6.118   4.584  0.00  0.00    -0.278 OA
ATOM      8  N   UNL     1      -1.407   6.202   6.033  0.00  0.00    -0.313 N 
ATOM      9  H   UNL     1      -2.350   6.066   6.211  0.00  0.00    +0.149 HD
BRANCH   8  10
ATOM     10  C   UNL     1      -0.523   6.686   7.097  0.00  0.00    +0.139 C 
BRANCH  10  11
ATOM     11  C   UNL     1      -1.321   6.892   8.358  0.00  0.00    -0.027 A 
ATOM     12  C   UNL     1      -1.907   8.119   8.611  0.00  0.00    +0.009 A 
ATOM     13  C   UNL     1      -2.645   8.311   9.764  0.00  0.00    +0.050 A 
ATOM     14  C   UNL     1      -2.789   7.277  10.676  0.00  0.00    +0.166 A 
ATOM     15  C   UNL     1      -2.194   6.044  10.423  0.00  0.00    +0.167 A 
ATOM     16  C   UNL     1      -1.461   5.856   9.263  0.00  0.00    +0.054 A 
ATOM     17  O   UNL     1      -2.480   5.202  11.459  0.00  0.00    -0.453 OA
ATOM     18  C   UNL     1      -2.910   6.052  12.539  0.00  0.00    +0.466 C 
ATOM     19  O   UNL     1      -3.447   7.208  11.870  0.00  0.00    -0.453 OA
ENDBRANCH  10  11
ENDBRANCH   8  10
ENDBRANCH   5   6
ENDBRANCH   1   5
BRANCH   1  20
ATOM     20  C   UNL     1      -1.897   5.348   1.295  0.00  0.00    -0.068 C 
BRANCH  20  21
ATOM     21  C   UNL     1      -1.054   5.133   0.037  0.00  0.00    +0.041 C 
BRANCH  21  22
ATOM     22  C   UNL     1      -1.907   5.356  -1.184  0.00  0.00    -0.016 A 
ATOM     23  C   UNL     1      -3.013   4.674  -1.521  0.00  0.00    +0.087 A 
ATOM     24  N   UNL     1      -3.522   5.160  -2.695  0.00  0.00    -0.360 N 
ATOM     25  H   UNL     1      -4.319   4.828  -3.136  0.00  0.00    +0.165 HD
ATOM     26  C   UNL     1      -2.731   6.187  -3.159  0.00  0.00    +0.047 A 
ATOM     27  C   UNL     1      -1.684   6.355  -2.233  0.00  0.00    +0.003 A 
ATOM     28  C   UNL     1      -0.716   7.337  -2.447  0.00  0.00    +0.010 A 
ATOM     29  C   UNL     1      -0.789   8.132  -3.557  0.00  0.00    +0.001 A 
ATOM     30  C   UNL     1      -1.819   7.969  -4.473  0.00  0.00    +0.002 A 
ATOM     31  C   UNL     1      -2.785   7.006  -4.281  0.00  0.00    +0.026 A 
ENDBRANCH  21  22
BRANCH  21  32
ATOM     32  C   UNL     1      -0.518   3.725   0.025  0.00  0.00    -0.005 A 
ATOM     33  C   UNL     1       0.770   3.301   0.012  0.00  0.00    +0.012 A 
ATOM     34  C   UNL     1       1.029   1.944   0.003  0.00  0.00    +0.008 A 
ATOM     35  C   UNL     1      -0.013   1.076   0.008  0.00  0.00    +0.045 A 
ATOM     36  S   UNL     1      -1.415   2.181   0.019  0.00  0.00    -0.101 S 
ENDBRANCH  21  32
ENDBRANCH  20  21
ENDBRANCH   1  20
TORSDOF 8
