REMARK  Name = ZINC41584055
REMARK  13 active torsions:
REMARK  status: ('A' for Active; 'I' for Inactive)
REMARK    1  A    between atoms: C_1  and  C_2
REMARK    2  A    between atoms: C_2  and  C_3
REMARK    3  A    between atoms: C_3  and  C_4
REMARK    4  A    between atoms: C_4  and  N_5
REMARK    5  A    between atoms: N_5  and  C_6
REMARK    6  A    between atoms: N_5  and  C_7
REMARK    7  A    between atoms: C_7  and  C_8
REMARK    8  A    between atoms: C_9  and  O_32
REMARK    9  A    between atoms: C_11  and  C_31
REMARK   10  A    between atoms: C_16  and  C_17
REMARK   11  A    between atoms: N_19  and  C_28
REMARK   12  A    between atoms: C_23  and  O_26
REMARK   13  A    between atoms: O_26  and  C_27
REMARK                            x       y       z     vdW  Elec       q    Type
REMARK                         _______ _______ _______ _____ _____    ______ ____
ROOT
ATOM      1  C   UNL     1      -4.182  -4.549   0.262  0.00  0.00    +0.020 A 
ATOM      2  C   UNL     1      -4.754  -4.686   1.517  0.00  0.00    +0.122 A 
ATOM      3  C   UNL     1      -6.057  -5.158   1.653  0.00  0.00    +0.050 A 
ATOM      4  C   UNL     1      -6.787  -5.492   0.547  0.00  0.00    -0.033 A 
ATOM      5  C   UNL     1      -6.225  -5.359  -0.722  0.00  0.00    +0.071 A 
ATOM      6  C   UNL     1      -4.913  -4.878  -0.872  0.00  0.00    +0.145 A 
ATOM      7  O   UNL     1      -4.612  -4.837  -2.187  0.00  0.00    -0.451 OA
ATOM      8  C   UNL     1      -5.651  -5.259  -2.946  0.00  0.00    +0.176 C 
ATOM      9  C   UNL     1      -5.664  -5.335  -4.306  0.00  0.00    +0.060 C 
ATOM     10  C   UNL     1      -6.720  -5.622  -2.085  0.00  0.00    +0.232 C 
ATOM     11  O   UNL     1      -7.819  -6.045  -2.405  0.00  0.00    -0.283 OA
ATOM     12  C   UNL     1      -8.196  -6.003   0.699  0.00  0.00    +0.045 C 
ENDROOT
BRANCH   9  13
ATOM     13  C   UNL     1      -4.483  -4.941  -5.072  0.00  0.00    +0.004 A 
ATOM     14  C   UNL     1      -3.287  -4.480  -4.566  0.00  0.00    +0.094 A 
ATOM     15  N   UNL     1      -2.435  -4.218  -5.588  0.00  0.00    -0.349 N 
ATOM     16  C   UNL     1      -3.035  -4.494  -6.802  0.00  0.00    +0.050 A 
ATOM     17  C   UNL     1      -4.332  -4.963  -6.540  0.00  0.00    +0.011 A 
ATOM     18  C   UNL     1      -5.170  -5.327  -7.590  0.00  0.00    +0.056 A 
ATOM     19  C   UNL     1      -4.716  -5.228  -8.892  0.00  0.00    +0.121 A 
ATOM     20  C   UNL     1      -3.429  -4.768  -9.151  0.00  0.00    +0.047 A 
ATOM     21  C   UNL     1      -2.596  -4.397  -8.118  0.00  0.00    +0.030 A 
ATOM     22  C   UNL     1      -1.070  -3.711  -5.428  0.00  0.00    +0.149 C 
BRANCH  19  23
ATOM     23  O   UNL     1      -5.530  -5.582  -9.922  0.00  0.00    -0.495 OA
ATOM     24  C   UNL     1      -4.998  -5.455 -11.243  0.00  0.00    +0.277 C 
ENDBRANCH  19  23
ENDBRANCH   9  13
BRANCH   2  25
ATOM     25  O   UNL     1      -4.038  -4.358   2.622  0.00  0.00    -0.506 OA
ATOM     26  H   UNL     1      -4.135  -3.435   2.894  0.00  0.00    +0.292 HD
ENDBRANCH   2  25
BRANCH   1  27
ATOM     27  C   UNL     1      -2.772  -4.037   0.128  0.00  0.00    -0.036 C 
BRANCH  27  28
ATOM     28  N   UNL     1      -2.791  -2.572   0.015  0.00  0.00    +0.381 N 
ATOM     29  C   UNL     1      -3.465  -2.186  -1.232  0.00  0.00    -0.096 C 
ATOM     30  H   UNL     1      -3.288  -2.181   0.801  0.00  0.00    -0.082 HD
BRANCH  28  31
ATOM     31  C   UNL     1      -1.413  -2.063   0.004  0.00  0.00    -0.079 C 
BRANCH  31  32
ATOM     32  C   UNL     1      -1.433  -0.534   0.013  0.00  0.00    -0.019 C 
BRANCH  32  34
ATOM     33  C   UNL     1      -0.019   1.526   0.010  0.00  0.00    +0.004 C 
ATOM     34  C   UNL     1       0.002  -0.004   0.002  0.00  0.00    -0.005 C 
ENDBRANCH  32  34
ENDBRANCH  31  32
ENDBRANCH  28  31
ENDBRANCH  27  28
ENDBRANCH   1  27
TORSDOF 8
