REMARK  Name = ZINC19743345
REMARK  11 active torsions:
REMARK  status: ('A' for Active; 'I' for Inactive)
REMARK    1  A    between atoms: C_1  and  C_2
REMARK    2  A    between atoms: C_3  and  C_7
REMARK    3  A    between atoms: C_7  and  N_8
REMARK    4  A    between atoms: N_8  and  C_9
REMARK    5  A    between atoms: N_8  and  C_10
REMARK    6  A    between atoms: C_10  and  C_11
REMARK    7  A    between atoms: C_13  and  C_33
REMARK    8  A    between atoms: C_16  and  O_17
REMARK    9  A    between atoms: O_17  and  C_18
REMARK   10  A    between atoms: C_18  and  C_19
REMARK   11  A    between atoms: N_24  and  C_27
REMARK                            x       y       z     vdW  Elec       q    Type
REMARK                         _______ _______ _______ _____ _____    ______ ____
ROOT
ATOM      1  C   UNL     1      -1.191  -0.713   0.010  0.00  0.00    -0.022 A 
ATOM      2  C   UNL     1      -1.176  -2.092   0.002  0.00  0.00    +0.013 A 
ATOM      3  C   UNL     1       0.040  -2.774  -0.014  0.00  0.00    -0.017 A 
ATOM      4  C   UNL     1       1.236  -2.059  -0.022  0.00  0.00    +0.012 A 
ATOM      5  C   UNL     1       1.214  -0.680  -0.019  0.00  0.00    +0.046 A 
ATOM      6  C   UNL     1       0.002  -0.004   0.002  0.00  0.00    +0.123 A 
ENDROOT
BRANCH   3   7
ATOM      7  C   UNL     1       0.060  -4.257  -0.023  0.00  0.00    -0.018 A 
ATOM      8  C   UNL     1      -1.136  -4.973  -0.010  0.00  0.00    +0.011 A 
ATOM      9  C   UNL     1      -1.113  -6.352  -0.025  0.00  0.00    +0.039 A 
ATOM     10  C   UNL     1       0.097  -7.026  -0.040  0.00  0.00    +0.123 A 
ATOM     11  C   UNL     1       1.289  -6.319  -0.048  0.00  0.00    +0.039 A 
ATOM     12  C   UNL     1       1.275  -4.940  -0.039  0.00  0.00    +0.011 A 
ATOM     13  F   UNL     1       0.116  -8.377  -0.049  0.00  0.00    -0.205 F 
ENDBRANCH   3   7
BRANCH   1  14
ATOM     14  C   UNL     1      -2.505   0.025   0.027  0.00  0.00    -0.039 C 
BRANCH  14  15
ATOM     15  N   UNL     1      -2.828   0.483  -1.331  0.00  0.00    +0.384 N 
ATOM     16  C   UNL     1      -1.865   1.494  -1.788  0.00  0.00    -0.095 C 
ATOM     17  H   UNL     1      -2.755  -0.383  -2.006  0.00  0.00    -0.081 HD
BRANCH  15  18
ATOM     18  C   UNL     1      -4.203   0.995  -1.401  0.00  0.00    -0.017 C 
BRANCH  18  21
ATOM     19  C   UNL     1      -5.549  -1.136  -3.291  0.00  0.00    +0.071 C 
ATOM     20  C   UNL     1      -5.183   0.271  -3.687  0.00  0.00    +0.103 A 
ATOM     21  C   UNL     1      -4.581   1.224  -2.842  0.00  0.00    +0.091 A 
ATOM     22  N   UNL     1      -4.407   2.333  -3.497  0.00  0.00    -0.056 NA
ATOM     23  O   UNL     1      -4.892   2.128  -4.814  0.00  0.00    -0.242 OA
ATOM     24  N   UNL     1      -5.373   0.794  -4.861  0.00  0.00    -0.054 NA
ENDBRANCH  18  21
ENDBRANCH  15  18
ENDBRANCH  14  15
ENDBRANCH   1  14
BRANCH   6  25
ATOM     25  O   UNL     1      -0.016   1.355   0.009  0.00  0.00    -0.483 OA
BRANCH  25  26
ATOM     26  C   UNL     1       1.248   2.021   0.001  0.00  0.00    +0.324 C 
BRANCH  26  27
ATOM     27  C   UNL     1       1.030   3.512   0.011  0.00  0.00    +0.253 C 
ATOM     28  O   UNL     1      -0.097   3.960   0.024  0.00  0.00    -0.272 OA
ATOM     29  N   UNL     1       2.088   4.347   0.005  0.00  0.00    -0.296 N 
ATOM     30  C   UNL     1       3.463   3.825  -0.004  0.00  0.00    +0.123 C 
ATOM     31  C   UNL     1       4.230   4.509  -1.146  0.00  0.00    +0.103 C 
ATOM     32  N   UNL     1       4.121   5.967  -0.998  0.00  0.00    -0.296 NA
ATOM     33  C   UNL     1       2.727   6.412  -1.122  0.00  0.00    +0.103 C 
ATOM     34  C   UNL     1       1.898   5.806   0.015  0.00  0.00    +0.123 C 
BRANCH  32  35
ATOM     35  C   UNL     1       4.983   6.660  -1.965  0.00  0.00    +0.057 C 
ATOM     36  C   UNL     1       4.576   6.266  -3.386  0.00  0.00    +0.019 C 
ATOM     37  C   UNL     1       5.474   6.988  -4.392  0.00  0.00    +0.002 C 
ATOM     38  C   UNL     1       6.932   6.592  -4.151  0.00  0.00    +0.000 C 
ATOM     39  C   UNL     1       7.339   6.987  -2.730  0.00  0.00    +0.002 C 
ATOM     40  C   UNL     1       6.441   6.264  -1.723  0.00  0.00    +0.019 C 
ENDBRANCH  32  35
ENDBRANCH  26  27
ENDBRANCH  25  26
ENDBRANCH   6  25
TORSDOF 9
