REMARK  Name = ZINC44802931
REMARK  10 active torsions:
REMARK  status: ('A' for Active; 'I' for Inactive)
REMARK    1  A    between atoms: C_1  and  C_2
REMARK    2  A    between atoms: C_5  and  S_8
REMARK    3  A    between atoms: S_8  and  C_9
REMARK    4  A    between atoms: C_9  and  C_10
REMARK    5  A    between atoms: C_10  and  N_11
REMARK    6  A    between atoms: C_12  and  C_14
REMARK    7  A    between atoms: C_14  and  N_15
REMARK    8  A    between atoms: N_15  and  C_16
REMARK    9  A    between atoms: N_15  and  S_24
REMARK   10  A    between atoms: S_24  and  C_27
REMARK                            x       y       z     vdW  Elec       q    Type
REMARK                         _______ _______ _______ _____ _____    ______ ____
ROOT
ATOM      1  N   UNL     1       0.039  -9.992   5.250  0.00  0.00    -0.193 N 
ENDROOT
BRANCH   1   2
ATOM      2  C   UNL     1      -1.204 -10.620   5.136  0.00  0.00    +0.071 A 
ATOM      3  C   UNL     1      -1.652 -11.058   3.896  0.00  0.00    +0.026 A 
ATOM      4  C   UNL     1      -2.881 -11.678   3.787  0.00  0.00    +0.003 A 
ATOM      5  C   UNL     1      -3.668 -11.863   4.909  0.00  0.00    +0.021 A 
ATOM      6  C   UNL     1      -3.226 -11.428   6.146  0.00  0.00    +0.061 A 
ATOM      7  C   UNL     1      -1.993 -10.812   6.264  0.00  0.00    +0.082 A 
ATOM      8 CL   UNL     1      -1.435 -10.273   7.817  0.00  0.00    -0.080 Cl
ATOM      9 CL   UNL     1      -4.217 -11.663   7.552  0.00  0.00    -0.082 Cl
ENDBRANCH   1   2
BRANCH   1  10
ATOM     10  S   UNL     1       1.385 -10.883   5.622  0.00  0.00    +0.075 S 
ATOM     11  O   UNL     1       1.112 -12.218   5.221  0.00  0.00    -0.150 OA
ATOM     12  O   UNL     1       2.502 -10.154   5.132  0.00  0.00    -0.150 OA
BRANCH  10  13
ATOM     13  C   UNL     1       1.527 -10.903   7.378  0.00  0.00    +0.109 A 
ATOM     14  C   UNL     1       2.246  -9.915   8.025  0.00  0.00    +0.029 A 
ATOM     15  C   UNL     1       2.358  -9.931   9.402  0.00  0.00    +0.002 A 
ATOM     16  C   UNL     1       1.750 -10.934  10.133  0.00  0.00    +0.000 A 
ATOM     17  C   UNL     1       1.030 -11.921   9.487  0.00  0.00    +0.002 A 
ATOM     18  C   UNL     1       0.915 -11.903   8.110  0.00  0.00    +0.029 A 
ENDBRANCH  10  13
ENDBRANCH   1  10
BRANCH   1  19
ATOM     19  C   UNL     1       0.152  -8.547   5.040  0.00  0.00    +0.227 C 
BRANCH  19  21
ATOM     20  N   UNL     1       0.340  -6.994   3.124  0.00  0.00    -0.313 N 
ATOM     21  C   UNL     1       0.334  -8.265   3.571  0.00  0.00    +0.232 C 
ATOM     22  O   UNL     1       0.474  -9.183   2.790  0.00  0.00    -0.274 OA
ATOM     23  H   UNL     1       0.227  -6.260   3.748  0.00  0.00    +0.149 HD
BRANCH  20  24
ATOM     24  C   UNL     1       0.516  -6.720   1.696  0.00  0.00    +0.115 C 
BRANCH  24  25
ATOM     25  C   UNL     1       0.485  -5.209   1.458  0.00  0.00    +0.093 C 
BRANCH  25  26
ATOM     26  S   UNL     1       0.704  -4.870  -0.310  0.00  0.00    -0.124 S 
BRANCH  26  31
ATOM     27  C   UNL     1       0.500   1.152  -0.679  0.00  0.00    +0.044 C 
ATOM     28  C   UNL     1       0.552  -0.351  -0.587  0.00  0.00    -0.050 A 
ATOM     29  C   UNL     1       0.734  -1.107  -1.731  0.00  0.00    +0.004 A 
ATOM     30  C   UNL     1       0.781  -2.485  -1.650  0.00  0.00    +0.015 A 
ATOM     31  C   UNL     1       0.645  -3.112  -0.418  0.00  0.00    +0.008 A 
ATOM     32  C   UNL     1       0.462  -2.350   0.730  0.00  0.00    +0.015 A 
ATOM     33  C   UNL     1       0.421  -0.972   0.642  0.00  0.00    +0.004 A 
ENDBRANCH  26  31
ENDBRANCH  25  26
ENDBRANCH  24  25
ENDBRANCH  20  24
ENDBRANCH  19  21
ENDBRANCH   1  19
TORSDOF 9
