REMARK  Name = ZINC21868851
REMARK  8 active torsions:
REMARK  status: ('A' for Active; 'I' for Inactive)
REMARK    1  A    between atoms: C_1  and  C_2
REMARK    2  A    between atoms: C_8  and  N_33
REMARK    3  A    between atoms: C_12  and  C_24
REMARK    4  A    between atoms: C_12  and  C_25
REMARK    5  A    between atoms: N_13  and  C_16
REMARK    6  A    between atoms: C_16  and  C_17
REMARK    7  A    between atoms: C_17  and  C_18
REMARK    8  A    between atoms: N_27  and  C_28
REMARK                            x       y       z     vdW  Elec       q    Type
REMARK                         _______ _______ _______ _____ _____    ______ ____
ROOT
ATOM      1  C   UNL     1      11.744  -3.022  -2.460  0.00  0.00    +0.044 C 
ATOM      2  C   UNL     1      10.278  -2.675  -2.416  0.00  0.00    -0.050 A 
ATOM      3  C   UNL     1       9.353  -3.608  -2.856  0.00  0.00    +0.005 A 
ATOM      4  C   UNL     1       7.992  -3.363  -2.846  0.00  0.00    +0.027 A 
ATOM      5  C   UNL     1       7.574  -2.119  -2.369  0.00  0.00    +0.052 A 
ATOM      6  C   UNL     1       8.528  -1.168  -1.918  0.00  0.00    +0.025 A 
ATOM      7  C   UNL     1       9.900  -1.444  -1.940  0.00  0.00    +0.015 A 
ATOM      8  C   UNL     1       7.781   0.003  -1.487  0.00  0.00    +0.084 A 
ATOM      9  C   UNL     1       6.468  -0.283  -1.686  0.00  0.00    +0.130 A 
ATOM     10  N   UNL     1       6.343  -1.569  -2.231  0.00  0.00    -0.332 N 
ATOM     11  C   UNL     1       5.025  -2.124  -2.567  0.00  0.00    +0.157 C 
ATOM     12  C   UNL     1       3.976  -1.540  -1.624  0.00  0.00    +0.128 C 
ATOM     13  N   UNL     1       4.082  -0.091  -1.497  0.00  0.00    -0.280 N 
ATOM     14  C   UNL     1       5.280   0.532  -1.407  0.00  0.00    +0.266 C 
ATOM     15  O   UNL     1       5.369   1.708  -1.108  0.00  0.00    -0.268 OA
ATOM     16  C   UNL     1       2.585  -1.889  -2.157  0.00  0.00    +0.043 C 
ENDROOT
BRANCH   8  17
ATOM     17  N   UNL     1       8.309   1.188  -0.970  0.00  0.00    -0.321 N 
ATOM     18  C   UNL     1       8.114   1.661   0.297  0.00  0.00    +0.091 A 
ATOM     19  C   UNL     1       8.784   2.824   0.420  0.00  0.00    +0.019 A 
ATOM     20  C   UNL     1       9.409   3.086  -0.817  0.00  0.00    +0.019 A 
ATOM     21  C   UNL     1       9.102   2.070  -1.648  0.00  0.00    +0.091 A 
ENDBRANCH   8  17
BRANCH  12  22
ATOM     22  C   UNL     1       4.146  -2.162  -0.262  0.00  0.00    +0.238 C 
ATOM     23  O   UNL     1       3.520  -3.158   0.032  0.00  0.00    -0.273 OA
ATOM     24  N   UNL     1       4.992  -1.611   0.630  0.00  0.00    -0.311 N 
ATOM     25  H   UNL     1       5.560  -0.707   0.364  0.00  0.00    +0.149 HD
BRANCH  24  26
ATOM     26  C   UNL     1       5.157  -2.215   1.955  0.00  0.00    +0.073 C 
ATOM     27  C   UNL     1       4.105  -1.647   2.929  0.00  0.00    +0.022 C 
ATOM     28  C   UNL     1       4.860  -1.531   4.277  0.00  0.00    +0.002 C 
ATOM     29  C   UNL     1       6.273  -1.073   3.840  0.00  0.00    +0.002 C 
ATOM     30  C   UNL     1       6.535  -1.850   2.533  0.00  0.00    +0.022 C 
ENDBRANCH  24  26
ENDBRANCH  12  22
BRANCH  13  31
ATOM     31  C   UNL     1       2.858   0.713  -1.471  0.00  0.00    +0.113 C 
BRANCH  31  32
ATOM     32  C   UNL     1       2.382   0.871  -0.026  0.00  0.00    +0.049 C 
BRANCH  32  33
ATOM     33  C   UNL     1       1.122   1.698   0.001  0.00  0.00    -0.072 C 
ATOM     34  C   UNL     1      -0.013   1.076   0.008  0.00  0.00    -0.028 C 
ATOM     35  C   UNL     1      -1.347   1.761   0.018  0.00  0.00    +0.027 C 
ATOM     36  C   UNL     1      -1.185   3.221   0.453  0.00  0.00    +0.004 C 
ATOM     37  C   UNL     1      -0.061   3.850  -0.381  0.00  0.00    +0.005 C 
ATOM     38  C   UNL     1       1.262   3.192   0.017  0.00  0.00    +0.030 C 
ENDBRANCH  32  33
ENDBRANCH  31  32
ENDBRANCH  13  31
TORSDOF 6
