REMARK  Name = ZINC39981205
REMARK  7 active torsions:
REMARK  status: ('A' for Active; 'I' for Inactive)
REMARK    1  A    between atoms: C_1  and  C_2
REMARK    2  A    between atoms: C_2  and  C_3
REMARK    3  A    between atoms: C_2  and  C_4
REMARK    4  A    between atoms: C_16  and  S_18
REMARK    5  A    between atoms: S_18  and  C_19
REMARK    6  A    between atoms: C_19  and  C_20
REMARK    7  A    between atoms: N_22  and  C_23
REMARK                            x       y       z     vdW  Elec       q    Type
REMARK                         _______ _______ _______ _____ _____    ______ ____
ROOT
ATOM      1  C   UNL     1      -1.364  -0.571   0.072  0.00  0.00    -0.044 A 
ATOM      2  C   UNL     1      -2.203  -0.229   1.141  0.00  0.00    +0.006 A 
ATOM      3  C   UNL     1      -3.486  -0.650   1.203  0.00  0.00    +0.026 A 
ATOM      4  C   UNL     1      -4.018  -1.489   0.122  0.00  0.00    +0.046 A 
ATOM      5  N   UNL     1      -5.191  -2.051  -0.052  0.00  0.00    -0.358 N 
ATOM      6  C   UNL     1      -5.221  -2.675  -1.364  0.00  0.00    +0.252 C 
ATOM      7  C   UNL     1      -3.791  -2.641  -1.872  0.00  0.00    +0.117 C 
ATOM      8  C   UNL     1      -3.101  -1.844  -0.991  0.00  0.00    +0.025 A 
ATOM      9  C   UNL     1      -1.780  -1.340  -0.960  0.00  0.00    +0.015 A 
ATOM     10  N   UNL     1      -3.391  -3.399  -2.896  0.00  0.00    -0.147 NA
ATOM     11  N   UNL     1      -4.060  -4.499  -3.072  0.00  0.00    -0.122 NA
ATOM     12  C   UNL     1      -5.052  -4.881  -2.232  0.00  0.00    +0.208 C 
ATOM     13  N   UNL     1      -5.631  -4.079  -1.367  0.00  0.00    -0.227 NA
ATOM     14  H   UNL     1      -5.918  -2.051   0.590  0.00  0.00    +0.162 HD
ENDROOT
BRANCH   1  16
ATOM     15  C   UNL     1       0.042   1.472   0.083  0.00  0.00    +0.012 C 
ATOM     16  C   UNL     1       0.053  -0.058   0.068  0.00  0.00    +0.013 C 
ATOM     17  C   UNL     1       0.786  -0.575   1.308  0.00  0.00    +0.012 C 
ENDBRANCH   1  16
BRANCH  12  18
ATOM     18  S   UNL     1      -5.603  -6.553  -2.306  0.00  0.00    -0.075 S 
BRANCH  18  19
ATOM     19  C   UNL     1      -6.908  -6.641  -1.048  0.00  0.00    +0.173 C 
BRANCH  19  20
ATOM     20  C   UNL     1      -7.472  -8.038  -1.007  0.00  0.00    +0.228 C 
ATOM     21  O   UNL     1      -7.037  -8.890  -1.753  0.00  0.00    -0.275 OA
ATOM     22  N   UNL     1      -8.460  -8.340  -0.142  0.00  0.00    -0.283 N 
ATOM     23  H   UNL     1      -8.764  -7.678   0.498  0.00  0.00    +0.155 HD
BRANCH  22  24
ATOM     24  C   UNL     1      -9.049  -9.611  -0.167  0.00  0.00    +0.069 A 
ATOM     25  C   UNL     1      -8.282 -10.726  -0.473  0.00  0.00    +0.026 A 
ATOM     26  C   UNL     1      -8.865 -11.979  -0.497  0.00  0.00    +0.002 A 
ATOM     27  C   UNL     1     -10.211 -12.122  -0.217  0.00  0.00    +0.003 A 
ATOM     28  C   UNL     1     -10.980 -11.014   0.087  0.00  0.00    +0.040 A 
ATOM     29  C   UNL     1     -10.401  -9.758   0.119  0.00  0.00    +0.144 A 
ATOM     30  F   UNL     1     -11.150  -8.675   0.422  0.00  0.00    -0.204 F 
ENDBRANCH  22  24
ENDBRANCH  19  20
ENDBRANCH  18  19
ENDBRANCH  12  18
TORSDOF 5
