REMARK  Name = ZINC40014231
REMARK  16 active torsions:
REMARK  status: ('A' for Active; 'I' for Inactive)
REMARK    1  A    between atoms: C_1  and  C_2
REMARK    2  A    between atoms: C_2  and  C_3
REMARK    3  A    between atoms: C_3  and  C_4
REMARK    4  A    between atoms: C_4  and  O_5
REMARK    5  A    between atoms: O_5  and  C_6
REMARK    6  A    between atoms: C_9  and  C_14
REMARK    7  A    between atoms: C_11  and  O_12
REMARK    8  A    between atoms: O_12  and  C_13
REMARK    9  A    between atoms: N_29  and  C_30
REMARK   10  A    between atoms: C_30  and  C_31
REMARK   11  A    between atoms: C_31  and  C_32
REMARK   12  A    between atoms: C_32  and  N_33
REMARK   13  A    between atoms: N_33  and  C_34
REMARK   14  A    between atoms: N_33  and  C_36
REMARK   15  A    between atoms: C_34  and  C_35
REMARK   16  A    between atoms: C_36  and  C_37
REMARK                            x       y       z     vdW  Elec       q    Type
REMARK                         _______ _______ _______ _____ _____    ______ ____
ROOT
ATOM      1  C   UNL     1      -3.561  -8.383  -0.094  0.00  0.00    +0.145 C 
ATOM      2  C   UNL     1      -3.238  -8.954  -1.436  0.00  0.00    +0.072 A 
ATOM      3  C   UNL     1      -3.931  -8.848  -2.724  0.00  0.00    +0.199 A 
ATOM      4  O   UNL     1      -4.857  -8.081  -2.922  0.00  0.00    -0.287 OA
ATOM      5  C   UNL     1      -3.397  -9.764  -3.764  0.00  0.00    +0.067 A 
ATOM      6  C   UNL     1      -4.072  -9.927  -4.974  0.00  0.00    +0.053 A 
ATOM      7  C   UNL     1      -3.564 -10.785  -5.926  0.00  0.00    +0.124 A 
ATOM      8  C   UNL     1      -2.388 -11.483  -5.678  0.00  0.00    +0.042 A 
ATOM      9  C   UNL     1      -1.715 -11.328  -4.487  0.00  0.00    +0.050 A 
ATOM     10  C   UNL     1      -2.206 -10.463  -3.510  0.00  0.00    +0.140 A 
ATOM     11  O   UNL     1      -1.519 -10.322  -2.353  0.00  0.00    -0.450 OA
ATOM     12  C   UNL     1      -2.087  -9.679  -1.314  0.00  0.00    +0.199 A 
ATOM     13  C   UNL     1      -1.641  -9.606   0.089  0.00  0.00    +0.283 C 
ATOM     14  O   UNL     1      -0.648 -10.147   0.533  0.00  0.00    -0.267 OA
ATOM     15  N   UNL     1      -2.497  -8.850   0.809  0.00  0.00    -0.284 N 
ATOM     16  F   UNL     1      -4.211 -10.948  -7.101  0.00  0.00    -0.205 F 
ENDROOT
BRANCH   1  20
ATOM     17  C   UNL     1      -3.568  -4.111  -0.274  0.00  0.00    +0.162 A 
ATOM     18  C   UNL     1      -2.369  -4.803  -0.228  0.00  0.00    +0.050 A 
ATOM     19  C   UNL     1      -2.370  -6.184  -0.170  0.00  0.00    +0.009 A 
ATOM     20  C   UNL     1      -3.566  -6.878  -0.158  0.00  0.00    -0.019 A 
ATOM     21  C   UNL     1      -4.766  -6.193  -0.203  0.00  0.00    +0.055 A 
ATOM     22  C   UNL     1      -4.772  -4.809  -0.256  0.00  0.00    +0.162 A 
BRANCH  22  23
ATOM     23  O   UNL     1      -5.952  -4.133  -0.295  0.00  0.00    -0.491 OA
ATOM     24  C   UNL     1      -7.148  -4.915  -0.273  0.00  0.00    +0.277 C 
ENDBRANCH  22  23
BRANCH  17  25
ATOM     25  O   UNL     1      -3.569  -2.752  -0.331  0.00  0.00    -0.488 OA
BRANCH  25  26
ATOM     26  C   UNL     1      -2.297  -2.103  -0.347  0.00  0.00    +0.229 C 
BRANCH  26  27
ATOM     27  C   UNL     1      -2.498  -0.587  -0.412  0.00  0.00    +0.041 C 
BRANCH  27  29
ATOM     28  C   UNL     1      -1.337   1.623  -0.495  0.00  0.00    +0.004 C 
ATOM     29  C   UNL     1      -1.135   0.108  -0.429  0.00  0.00    -0.000 C 
ENDBRANCH  27  29
ENDBRANCH  26  27
ENDBRANCH  25  26
ENDBRANCH  17  25
ENDBRANCH   1  20
BRANCH  15  30
ATOM     30  C   UNL     1      -2.386  -8.547   2.238  0.00  0.00    +0.107 C 
BRANCH  30  31
ATOM     31  C   UNL     1      -3.126  -9.615   3.046  0.00  0.00    +0.000 C 
BRANCH  31  32
ATOM     32  C   UNL     1      -3.011  -9.298   4.538  0.00  0.00    -0.077 C 
BRANCH  32  33
ATOM     33  N   UNL     1      -3.829 -10.248   5.305  0.00  0.00    +0.379 N 
ATOM     34  H   UNL     1      -4.774 -10.238   4.953  0.00  0.00    -0.082 HD
BRANCH  33  35
ATOM     35  C   UNL     1      -3.269 -11.599   5.167  0.00  0.00    -0.082 C 
ATOM     36  C   UNL     1      -4.189 -12.605   5.862  0.00  0.00    -0.017 C 
ENDBRANCH  33  35
BRANCH  33  37
ATOM     37  C   UNL     1      -3.829  -9.860   6.722  0.00  0.00    -0.082 C 
ATOM     38  C   UNL     1      -4.541  -8.515   6.882  0.00  0.00    -0.017 C 
ENDBRANCH  33  37
ENDBRANCH  32  33
ENDBRANCH  31  32
ENDBRANCH  30  31
ENDBRANCH  15  30
TORSDOF 12
