REMARK  Name = ZINC09725676
REMARK  8 active torsions:
REMARK  status: ('A' for Active; 'I' for Inactive)
REMARK    1  A    between atoms: C_1  and  C_2
REMARK    2  A    between atoms: N_4  and  C_5
REMARK    3  A    between atoms: N_13  and  C_14
REMARK    4  A    between atoms: C_14  and  C_16
REMARK    5  A    between atoms: C_17  and  C_18
REMARK    6  A    between atoms: C_22  and  N_24
REMARK    7  A    between atoms: N_27  and  C_28
REMARK    8  A    between atoms: C_28  and  C_29
REMARK                            x       y       z     vdW  Elec       q    Type
REMARK                         _______ _______ _______ _____ _____    ______ ____
ROOT
ATOM      1  C   UNL     1      -1.296   1.515   0.108  0.00  0.00    +0.035 A 
ATOM      2  C   UNL     1      -1.481   2.892   0.062  0.00  0.00    +0.025 A 
ATOM      3  C   UNL     1      -2.734   3.445   0.154  0.00  0.00    +0.029 A 
ATOM      4  C   UNL     1      -3.873   2.635   0.310  0.00  0.00    +0.058 A 
ATOM      5  C   UNL     1      -3.656   1.250   0.359  0.00  0.00    +0.041 A 
ATOM      6  C   UNL     1      -2.404   0.691   0.261  0.00  0.00    +0.040 A 
ATOM      7  S   UNL     1      -5.292   0.585   0.557  0.00  0.00    -0.052 S 
ATOM      8  C   UNL     1      -6.187   2.129   0.568  0.00  0.00    +0.167 A 
ATOM      9  N   UNL     1      -7.493   2.333   0.689  0.00  0.00    -0.153 NA
ATOM     10  N   UNL     1      -5.190   3.047   0.422  0.00  0.00    -0.317 N 
ENDROOT
BRANCH   1  14
ATOM     11  C   UNL     1       2.334   1.045  -0.775  0.00  0.00    +0.109 C 
ATOM     12  C   UNL     1       0.921   1.569  -0.756  0.00  0.00    +0.214 C 
ATOM     13  O   UNL     1       0.623   2.534  -1.429  0.00  0.00    -0.276 OA
ATOM     14  N   UNL     1      -0.011   0.966   0.007  0.00  0.00    -0.286 N 
ATOM     15  H   UNL     1       0.206   0.149   0.484  0.00  0.00    +0.155 HD
ENDBRANCH   1  14
BRANCH   9  16
ATOM     16  C   UNL     1      -8.324   1.290   0.825  0.00  0.00    +0.262 C 
ATOM     17  O   UNL     1      -7.879   0.154   0.839  0.00  0.00    -0.269 OA
BRANCH  16  18
ATOM     18  C   UNL     1      -9.769   1.515   0.958  0.00  0.00    +0.070 C 
ATOM     19  C   UNL     1     -10.603   0.467   1.095  0.00  0.00    +0.013 C 
BRANCH  19  20
ATOM     20  C   UNL     1     -12.052   0.693   1.229  0.00  0.00    -0.023 A 
ATOM     21  C   UNL     1     -12.566   1.993   1.214  0.00  0.00    +0.008 A 
ATOM     22  C   UNL     1     -13.924   2.196   1.339  0.00  0.00    +0.003 A 
ATOM     23  C   UNL     1     -14.778   1.117   1.479  0.00  0.00    +0.033 A 
ATOM     24  C   UNL     1     -14.278  -0.173   1.495  0.00  0.00    +0.127 A 
ATOM     25  C   UNL     1     -12.922  -0.393   1.365  0.00  0.00    +0.040 A 
BRANCH  24  26
ATOM     26  N   UNL     1     -15.201  -1.321   1.645  0.00  0.00    +0.056 N 
ATOM     27  O   UNL     1     -16.398  -1.129   1.755  0.00  0.00    -0.126 OA
ATOM     28  O   UNL     1     -14.762  -2.457   1.659  0.00  0.00    -0.126 OA
ENDBRANCH  24  26
ENDBRANCH  19  20
ENDBRANCH  16  18
ENDBRANCH   9  16
BRANCH  10  29
ATOM     29  C   UNL     1      -5.514   4.475   0.382  0.00  0.00    +0.151 C 
BRANCH  29  30
ATOM     30  C   UNL     1      -6.889   4.663  -0.204  0.00  0.00    -0.013 C 
ATOM     31  C   UNL     1      -7.800   5.328   0.462  0.00  0.00    +0.005 C 
ENDBRANCH  29  30
ENDBRANCH  10  29
TORSDOF 7
