REMARK  Name = ZINC63589318
REMARK  6 active torsions:
REMARK  status: ('A' for Active; 'I' for Inactive)
REMARK    1  A    between atoms: C_7  and  C_10
REMARK    2  A    between atoms: C_10  and  C_11
REMARK    3  A    between atoms: C_11  and  N_12
REMARK    4  A    between atoms: N_14  and  C_15
REMARK    5  A    between atoms: N_22  and  C_23
REMARK    6  A    between atoms: C_23  and  C_25
REMARK                            x       y       z     vdW  Elec       q    Type
REMARK                         _______ _______ _______ _____ _____    ______ ____
ROOT
ATOM      1  N   UNL     1      -2.018  -3.431  -2.675  0.00  0.00    -0.357 N 
ATOM      2  C   UNL     1      -1.399  -4.603  -2.998  0.00  0.00    +0.194 C 
ATOM      3  N   UNL     1      -0.428  -4.620  -3.958  0.00  0.00    -0.326 N 
ATOM      4  N   UNL     1      -1.741  -5.724  -2.383  0.00  0.00    -0.143 NA
ATOM      5  H   UNL     1      -2.657  -3.405  -1.946  0.00  0.00    +0.162 HD
ATOM      6  H   UNL     1      -0.448  -5.292  -4.657  0.00  0.00    +0.169 HD
ENDROOT
BRANCH   3   7
ATOM      7  C   UNL     1       0.597  -3.666  -3.932  0.00  0.00    +0.077 A 
ATOM      8  C   UNL     1       1.214  -3.340  -2.732  0.00  0.00    +0.028 A 
ATOM      9  C   UNL     1       2.226  -2.399  -2.711  0.00  0.00    +0.002 A 
ATOM     10  C   UNL     1       2.624  -1.781  -3.882  0.00  0.00    +0.003 A 
ATOM     11  C   UNL     1       2.012  -2.103  -5.080  0.00  0.00    +0.040 A 
ATOM     12  C   UNL     1       1.004  -3.049  -5.110  0.00  0.00    +0.147 A 
ATOM     13  F   UNL     1       0.410  -3.367  -6.281  0.00  0.00    -0.203 F 
ENDBRANCH   3   7
BRANCH   4  14
ATOM     14  C   UNL     1      -1.045  -6.848  -2.603  0.00  0.00    +0.273 C 
ATOM     15  O   UNL     1      -0.057  -6.823  -3.314  0.00  0.00    -0.268 OA
BRANCH  14  16
ATOM     16  C   UNL     1      -1.478  -8.120  -1.981  0.00  0.00    +0.074 A 
ATOM     17  C   UNL     1      -2.668  -8.176  -1.255  0.00  0.00    +0.016 A 
ATOM     18  C   UNL     1      -3.066  -9.363  -0.678  0.00  0.00    +0.001 A 
ATOM     19  C   UNL     1      -2.287 -10.500  -0.816  0.00  0.00    +0.003 A 
ATOM     20  C   UNL     1      -1.106 -10.453  -1.532  0.00  0.00    +0.039 A 
ATOM     21  C   UNL     1      -0.698  -9.271  -2.122  0.00  0.00    +0.136 A 
ATOM     22  F   UNL     1       0.453  -9.227  -2.827  0.00  0.00    -0.205 F 
ENDBRANCH  14  16
ENDBRANCH   4  14
BRANCH   1  23
ATOM     23  C   UNL     1      -1.716  -2.211  -3.427  0.00  0.00    +0.120 C 
BRANCH  23  24
ATOM     24  C   UNL     1      -2.483  -1.034  -2.820  0.00  0.00    +0.054 C 
BRANCH  24  31
ATOM     25  C   UNL     1      -4.885   0.813  -6.266  0.00  0.00    +0.001 A 
ATOM     26  C   UNL     1      -4.316   1.985  -6.783  0.00  0.00    +0.002 A 
ATOM     27  C   UNL     1      -3.170   2.512  -6.303  0.00  0.00    +0.026 A 
ATOM     28  C   UNL     1      -2.482   1.880  -5.231  0.00  0.00    +0.043 A 
ATOM     29  N   UNL     1      -1.373   2.189  -4.602  0.00  0.00    -0.380 N 
ATOM     30  C   UNL     1      -1.125   1.178  -3.568  0.00  0.00    +0.144 C 
ATOM     31  C   UNL     1      -2.269   0.195  -3.666  0.00  0.00    -0.040 C 
ATOM     32  C   UNL     1      -3.062   0.640  -4.667  0.00  0.00    -0.001 A 
ATOM     33  C   UNL     1      -4.312   0.134  -5.246  0.00  0.00    +0.010 A 
ATOM     34  H   UNL     1      -0.811   2.957  -4.790  0.00  0.00    +0.160 HD
ENDBRANCH  24  31
ENDBRANCH  23  24
ENDBRANCH   1  23
TORSDOF 6
