REMARK  Name = ZINC21536638
REMARK  6 active torsions:
REMARK  status: ('A' for Active; 'I' for Inactive)
REMARK    1  A    between atoms: C_1  and  C_2
REMARK    2  A    between atoms: C_5  and  C_8
REMARK    3  A    between atoms: N_25  and  C_26
REMARK    4  A    between atoms: C_31  and  C_32
REMARK    5  A    between atoms: C_32  and  O_34
REMARK    6  A    between atoms: O_34  and  C_35
REMARK                            x       y       z     vdW  Elec       q    Type
REMARK                         _______ _______ _______ _____ _____    ______ ____
ROOT
ATOM      1  C   UNL     1       2.480   1.059  -0.020  0.00  0.00    +0.155 C 
ATOM      2  C   UNL     1       3.112   1.141   1.345  0.00  0.00    +0.049 A 
ATOM      3  C   UNL     1       3.596   0.143   2.101  0.00  0.00    +0.025 A 
ATOM      4  C   UNL     1       4.086   0.717   3.294  0.00  0.00    +0.020 A 
ATOM      5  C   UNL     1       3.880   2.051   3.218  0.00  0.00    +0.091 A 
ATOM      6  N   UNL     1       3.284   2.317   2.028  0.00  0.00    -0.318 N 
ATOM      7  C   UNL     1       2.873   3.549   1.498  0.00  0.00    +0.051 A 
ATOM      8  C   UNL     1       2.159   4.457   2.261  0.00  0.00    +0.026 A 
ATOM      9  C   UNL     1       1.723   5.638   1.692  0.00  0.00    +0.002 A 
ATOM     10  C   UNL     1       1.997   5.909   0.363  0.00  0.00    +0.000 A 
ATOM     11  C   UNL     1       2.728   5.013  -0.395  0.00  0.00    +0.007 A 
ATOM     12  C   UNL     1       3.188   3.844   0.176  0.00  0.00    -0.006 A 
ATOM     13  C   UNL     1       4.091   2.917  -0.590  0.00  0.00    +0.147 C 
ATOM     14  N   UNL     1       3.388   1.683  -1.003  0.00  0.00    -0.268 N 
ATOM     15  C   UNL     1       3.570   1.146  -2.225  0.00  0.00    +0.308 C 
ATOM     16  O   UNL     1       2.981   0.129  -2.537  0.00  0.00    -0.252 OA
ATOM     17  N   UNL     1       4.405   1.736  -3.103  0.00  0.00    -0.268 N 
ATOM     18  H   UNL     1       5.005   2.604  -2.793  0.00  0.00    +0.156 HD
ENDROOT
BRANCH   1  23
ATOM     19  C   UNL     1      -2.571   3.866   0.009  0.00  0.00    +0.044 C 
ATOM     20  C   UNL     1      -1.254   3.133   0.001  0.00  0.00    -0.050 A 
ATOM     21  C   UNL     1      -0.506   3.069  -1.159  0.00  0.00    +0.004 A 
ATOM     22  C   UNL     1       0.700   2.393  -1.168  0.00  0.00    +0.006 A 
ATOM     23  C   UNL     1       1.163   1.790  -0.013  0.00  0.00    -0.021 A 
ATOM     24  C   UNL     1       0.416   1.858   1.149  0.00  0.00    +0.006 A 
ATOM     25  C   UNL     1      -0.792   2.530   1.156  0.00  0.00    +0.004 A 
ENDBRANCH   1  23
BRANCH  17  26
ATOM     26  C   UNL     1       4.508   1.248  -4.403  0.00  0.00    +0.050 A 
ATOM     27  C   UNL     1       3.391   0.727  -5.043  0.00  0.00    +0.044 A 
ATOM     28  C   UNL     1       3.494   0.247  -6.334  0.00  0.00    +0.043 A 
ATOM     29  C   UNL     1       4.713   0.273  -6.997  0.00  0.00    +0.021 A 
ATOM     30  C   UNL     1       5.832   0.781  -6.376  0.00  0.00    +0.018 A 
ATOM     31  C   UNL     1       5.742   1.274  -5.071  0.00  0.00    +0.080 A 
ATOM     32 CL   UNL     1       2.092  -0.397  -7.130  0.00  0.00    -0.083 Cl
BRANCH  31  33
ATOM     33  C   UNL     1       6.935   1.819  -4.401  0.00  0.00    +0.341 C 
ATOM     34  O   UNL     1       6.836   2.329  -3.302  0.00  0.00    -0.245 OA
BRANCH  33  35
ATOM     35  O   UNL     1       8.137   1.752  -5.006  0.00  0.00    -0.464 OA
ATOM     36  C   UNL     1       9.269   2.309  -4.287  0.00  0.00    +0.280 C 
ENDBRANCH  33  35
ENDBRANCH  31  33
ENDBRANCH  17  26
TORSDOF 4
