REMARK  Name = ZINC22370838
REMARK  13 active torsions:
REMARK  status: ('A' for Active; 'I' for Inactive)
REMARK    1  A    between atoms: C_1  and  C_2
REMARK    2  A    between atoms: C_7  and  N_8
REMARK    3  A    between atoms: N_8  and  C_9
REMARK    4  A    between atoms: N_8  and  S_26
REMARK    5  A    between atoms: C_9  and  C_10
REMARK    6  A    between atoms: N_12  and  C_13
REMARK    7  A    between atoms: C_13  and  C_15
REMARK    8  A    between atoms: C_13  and  C_16
REMARK    9  A    between atoms: C_16  and  C_17
REMARK   10  A    between atoms: C_17  and  C_18
REMARK   11  A    between atoms: C_17  and  C_19
REMARK   12  A    between atoms: C_17  and  C_20
REMARK   13  A    between atoms: S_26  and  C_29
REMARK                            x       y       z     vdW  Elec       q    Type
REMARK                         _______ _______ _______ _____ _____    ______ ____
ROOT
ATOM      1  N   UNL     1       5.137   1.064  -3.952  0.00  0.00    -0.194 N 
ENDROOT
BRANCH   1   8
ATOM      2  C   UNL     1       7.759   1.323  -2.881  0.00  0.00    +0.046 C 
ATOM      3  C   UNL     1       7.061  -0.009  -2.966  0.00  0.00    -0.028 A 
ATOM      4  C   UNL     1       7.693  -1.152  -2.517  0.00  0.00    +0.005 A 
ATOM      5  C   UNL     1       7.053  -2.374  -2.594  0.00  0.00    +0.000 A 
ATOM      6  C   UNL     1       5.777  -2.458  -3.122  0.00  0.00    +0.002 A 
ATOM      7  C   UNL     1       5.137  -1.319  -3.569  0.00  0.00    +0.025 A 
ATOM      8  C   UNL     1       5.779  -0.089  -3.497  0.00  0.00    +0.055 A 
ENDBRANCH   1   8
BRANCH   1   9
ATOM      9  S   UNL     1       5.350   1.569  -5.515  0.00  0.00    +0.075 S 
ATOM     10  O   UNL     1       5.617   0.405  -6.285  0.00  0.00    -0.150 OA
ATOM     11  O   UNL     1       4.272   2.446  -5.809  0.00  0.00    -0.150 OA
BRANCH   9  12
ATOM     12  C   UNL     1       6.817   2.544  -5.551  0.00  0.00    +0.109 A 
ATOM     13  C   UNL     1       6.763   3.887  -5.226  0.00  0.00    +0.030 A 
ATOM     14  C   UNL     1       7.914   4.651  -5.249  0.00  0.00    +0.022 A 
ATOM     15  C   UNL     1       9.119   4.075  -5.609  0.00  0.00    +0.041 A 
ATOM     16  C   UNL     1       9.172   2.732  -5.940  0.00  0.00    +0.022 A 
ATOM     17  C   UNL     1       8.021   1.968  -5.911  0.00  0.00    +0.030 A 
ATOM     18 CL   UNL     1      10.565   5.036  -5.644  0.00  0.00    -0.084 Cl
ENDBRANCH   9  12
ENDBRANCH   1   9
BRANCH   1  19
ATOM     19  C   UNL     1       4.274   1.827  -3.047  0.00  0.00    +0.227 C 
BRANCH  19  20
ATOM     20  C   UNL     1       2.890   1.229  -3.049  0.00  0.00    +0.232 C 
ATOM     21  O   UNL     1       2.649   0.261  -3.739  0.00  0.00    -0.274 OA
ATOM     22  N   UNL     1       1.921   1.770  -2.285  0.00  0.00    -0.311 N 
ATOM     23  H   UNL     1       2.140   2.648  -1.659  0.00  0.00    +0.149 HD
BRANCH  22  24
ATOM     24  C   UNL     1       0.576   1.190  -2.287  0.00  0.00    +0.071 C 
ATOM     25  C   UNL     1      -0.227   1.766  -3.455  0.00  0.00    +0.028 C 
BRANCH  24  26
ATOM     26  C   UNL     1      -0.127   1.526  -0.970  0.00  0.00    +0.033 C 
BRANCH  26  27
ATOM     27  C   UNL     1       0.595   0.829   0.185  0.00  0.00    -0.008 C 
ATOM     28  C   UNL     1       0.692  -0.670  -0.103  0.00  0.00    +0.016 C 
ATOM     29  C   UNL     1       2.002   1.412   0.333  0.00  0.00    +0.016 C 
BRANCH  27  30
ATOM     30  C   UNL     1      -0.175   1.046   1.462  0.00  0.00    -0.042 A 
ATOM     31  C   UNL     1      -1.341   1.789   1.449  0.00  0.00    +0.004 A 
ATOM     32  C   UNL     1      -2.050   1.984   2.619  0.00  0.00    +0.000 A 
ATOM     33  C   UNL     1      -1.588   1.445   3.805  0.00  0.00    +0.000 A 
ATOM     34  C   UNL     1      -0.419   0.707   3.820  0.00  0.00    +0.000 A 
ATOM     35  C   UNL     1       0.287   0.507   2.648  0.00  0.00    +0.004 A 
ENDBRANCH  27  30
ENDBRANCH  26  27
ENDBRANCH  24  26
ENDBRANCH  22  24
ENDBRANCH  19  20
ENDBRANCH   1  19
TORSDOF 9
