REMARK  Name = ZINC12477944
REMARK  13 active torsions:
REMARK  status: ('A' for Active; 'I' for Inactive)
REMARK    1  A    between atoms: C_1  and  C_2
REMARK    2  A    between atoms: C_5  and  C_8
REMARK    3  A    between atoms: N_11  and  C_13
REMARK    4  A    between atoms: C_13  and  C_14
REMARK    5  A    between atoms: N_16  and  C_17
REMARK    6  A    between atoms: N_16  and  C_23
REMARK    7  A    between atoms: C_17  and  C_18
REMARK    8  A    between atoms: C_23  and  C_25
REMARK    9  A    between atoms: C_23  and  C_30
REMARK   10  A    between atoms: N_32  and  C_33
REMARK   11  A    between atoms: C_33  and  C_34
REMARK   12  A    between atoms: C_33  and  C_35
REMARK   13  A    between atoms: C_33  and  C_36
REMARK                            x       y       z     vdW  Elec       q    Type
REMARK                         _______ _______ _______ _____ _____    ______ ____
ROOT
ATOM      1  C   UNL     1      -2.580  -0.189   2.017  0.00  0.00    +0.240 C 
ATOM      2  O   UNL     1      -2.821  -0.393   3.188  0.00  0.00    -0.273 OA
ATOM      3  N   UNL     1      -3.049   0.923   1.417  0.00  0.00    -0.277 N 
ENDROOT
BRANCH   1   4
ATOM      4  C   UNL     1      -1.755  -1.178   1.235  0.00  0.00    +0.264 C 
BRANCH   4   8
ATOM      5  C   UNL     1      -0.833  -3.846   3.351  0.00  0.00    +0.205 A 
ATOM      6  N   UNL     1      -1.952  -4.324   2.789  0.00  0.00    -0.108 NA
ATOM      7  N   UNL     1      -2.390  -3.420   1.980  0.00  0.00    -0.045 NA
ATOM      8  N   UNL     1      -1.596  -2.407   2.015  0.00  0.00    -0.154 N 
ATOM      9  N   UNL     1      -0.636  -2.646   2.841  0.00  0.00    -0.130 NA
BRANCH   5  14
ATOM     10  C   UNL     1       2.486  -6.524   7.224  0.00  0.00    +0.044 C 
ATOM     11  C   UNL     1       1.617  -5.823   6.211  0.00  0.00    -0.050 A 
ATOM     12  C   UNL     1       0.486  -6.451   5.721  0.00  0.00    +0.004 A 
ATOM     13  C   UNL     1      -0.312  -5.813   4.793  0.00  0.00    +0.012 A 
ATOM     14  C   UNL     1       0.022  -4.536   4.350  0.00  0.00    +0.023 A 
ATOM     15  C   UNL     1       1.166  -3.911   4.842  0.00  0.00    +0.012 A 
ATOM     16  C   UNL     1       1.955  -4.555   5.773  0.00  0.00    +0.004 A 
ENDBRANCH   5  14
ENDBRANCH   4   8
ENDBRANCH   1   4
BRANCH   3  17
ATOM     17  C   UNL     1      -2.670   1.223   0.033  0.00  0.00    +0.151 C 
BRANCH  17  18
ATOM     18  C   UNL     1      -1.195   1.524  -0.030  0.00  0.00    +0.007 A 
ATOM     19  C   UNL     1      -0.169   0.701  -0.359  0.00  0.00    +0.013 A 
ATOM     20  C   UNL     1       1.119   1.201  -0.356  0.00  0.00    +0.008 A 
ATOM     21  C   UNL     1       1.320   2.498  -0.017  0.00  0.00    +0.045 A 
ATOM     22  S   UNL     1      -0.344   3.056   0.312  0.00  0.00    -0.100 S 
ENDBRANCH  17  18
ENDBRANCH   3  17
BRANCH   3  23
ATOM     23  C   UNL     1      -3.937   1.831   2.146  0.00  0.00    +0.228 C 
BRANCH  23  24
ATOM     24  C   UNL     1      -5.295   1.839   1.493  0.00  0.00    +0.134 A 
ATOM     25  C   UNL     1      -6.477   1.861   2.135  0.00  0.00    +0.047 A 
ATOM     26  C   UNL     1      -7.482   1.860   1.141  0.00  0.00    +0.041 A 
ATOM     27  C   UNL     1      -6.855   1.837  -0.048  0.00  0.00    +0.195 A 
ATOM     28  O   UNL     1      -5.530   1.830   0.171  0.00  0.00    -0.465 OA
ENDBRANCH  23  24
BRANCH  23  29
ATOM     29  C   UNL     1      -3.361   3.223   2.123  0.00  0.00    +0.242 C 
ATOM     30  O   UNL     1      -2.385   3.465   1.445  0.00  0.00    -0.273 OA
ATOM     31  N   UNL     1      -3.930   4.200   2.857  0.00  0.00    -0.309 N 
ATOM     32  H   UNL     1      -4.711   4.008   3.399  0.00  0.00    +0.149 HD
BRANCH  31  33
ATOM     33  C   UNL     1      -3.370   5.554   2.834  0.00  0.00    +0.026 C 
ATOM     34  C   UNL     1      -3.405   6.097   1.404  0.00  0.00    +0.031 C 
ATOM     35  C   UNL     1      -4.197   6.463   3.745  0.00  0.00    +0.031 C 
ATOM     36  C   UNL     1      -1.923   5.515   3.330  0.00  0.00    +0.031 C 
ENDBRANCH  31  33
ENDBRANCH  23  29
ENDBRANCH   3  23
TORSDOF 9
