REMARK  Name = ZINC38379376
REMARK  9 active torsions:
REMARK  status: ('A' for Active; 'I' for Inactive)
REMARK    1  A    between atoms: C_1  and  C_2
REMARK    2  A    between atoms: C_2  and  C_3
REMARK    3  A    between atoms: C_3  and  N_4
REMARK    4  A    between atoms: N_4  and  C_5
REMARK    5  A    between atoms: N_4  and  C_20
REMARK    6  A    between atoms: C_5  and  C_6
REMARK    7  A    between atoms: C_20  and  C_21
REMARK    8  A    between atoms: N_23  and  C_24
REMARK    9  A    between atoms: C_29  and  C_30
REMARK                            x       y       z     vdW  Elec       q    Type
REMARK                         _______ _______ _______ _____ _____    ______ ____
ROOT
ATOM      1  N   UNL     1       0.648  -1.968   1.281  0.00  0.00    +0.390 N 
ATOM      2  H   UNL     1      -0.320  -2.218   1.146  0.00  0.00    -0.081 HD
ENDROOT
BRANCH   1   3
ATOM      3  C   UNL     1       0.782  -0.505   1.264  0.00  0.00    -0.078 C 
BRANCH   3   5
ATOM      4  C   UNL     1       0.196   1.577   0.012  0.00  0.00    +0.002 C 
ATOM      5  C   UNL     1       0.179   0.047  -0.030  0.00  0.00    -0.022 C 
ENDBRANCH   3   5
ENDBRANCH   1   3
BRANCH   1   6
ATOM      6  C   UNL     1       1.113  -2.486   2.574  0.00  0.00    -0.001 C 
BRANCH   6   7
ATOM      7  C   UNL     1       0.206  -1.990   3.670  0.00  0.00    +0.118 A 
ATOM      8  N   UNL     1       0.487  -0.848   4.263  0.00  0.00    -0.230 NA
ATOM      9  C   UNL     1      -0.293  -0.381   5.233  0.00  0.00    +0.124 A 
ATOM     10  C   UNL     1      -0.283   0.818   6.088  0.00  0.00    +0.046 A 
ATOM     11  C   UNL     1       0.559   1.921   6.197  0.00  0.00    +0.014 A 
ATOM     12  C   UNL     1       0.284   2.902   7.126  0.00  0.00    +0.001 A 
ATOM     13  C   UNL     1      -0.827   2.789   7.949  0.00  0.00    +0.004 A 
ATOM     14  C   UNL     1      -1.667   1.701   7.850  0.00  0.00    +0.047 A 
ATOM     15  C   UNL     1      -1.407   0.702   6.919  0.00  0.00    +0.138 A 
ATOM     16  O   UNL     1      -2.048  -0.447   6.614  0.00  0.00    -0.448 OA
ATOM     17  C   UNL     1      -1.421  -1.114   5.623  0.00  0.00    +0.220 A 
ATOM     18  C   UNL     1      -1.677  -2.319   4.964  0.00  0.00    +0.316 A 
ATOM     19  O   UNL     1      -2.753  -3.073   5.297  0.00  0.00    -0.262 OA
ATOM     20  N   UNL     1      -0.849  -2.710   4.003  0.00  0.00    -0.193 NA
ENDBRANCH   6   7
ENDBRANCH   1   6
BRANCH   1  21
ATOM     21  C   UNL     1       1.459  -2.546   0.201  0.00  0.00    +0.019 C 
BRANCH  21  22
ATOM     22  C   UNL     1       1.177  -4.023   0.099  0.00  0.00    +0.201 C 
ATOM     23  O   UNL     1       0.420  -4.553   0.885  0.00  0.00    -0.278 OA
ATOM     24  N   UNL     1       1.767  -4.756  -0.866  0.00  0.00    -0.287 N 
ATOM     25  H   UNL     1       2.425  -4.349  -1.451  0.00  0.00    +0.155 HD
BRANCH  24  26
ATOM     26  C   UNL     1       1.431  -6.106  -1.024  0.00  0.00    +0.036 A 
ATOM     27  C   UNL     1       0.965  -6.838   0.060  0.00  0.00    +0.023 A 
ATOM     28  C   UNL     1       0.634  -8.169  -0.099  0.00  0.00    +0.002 A 
ATOM     29  C   UNL     1       0.767  -8.773  -1.336  0.00  0.00    +0.000 A 
ATOM     30  C   UNL     1       1.232  -8.047  -2.417  0.00  0.00    +0.005 A 
ATOM     31  C   UNL     1       1.558  -6.713  -2.266  0.00  0.00    -0.029 A 
ATOM     32  C   UNL     1       2.058  -5.921  -3.446  0.00  0.00    +0.045 C 
ENDBRANCH  24  26
ENDBRANCH  21  22
ENDBRANCH   1  21
TORSDOF 7
