REMARK  Name = ZINC14125884
REMARK  5 active torsions:
REMARK  status: ('A' for Active; 'I' for Inactive)
REMARK    1  A    between atoms: C_4  and  C_14
REMARK    2  A    between atoms: C_5  and  C_7
REMARK    3  A    between atoms: C_7  and  C_9
REMARK    4  A    between atoms: N_19  and  S_22
REMARK    5  A    between atoms: S_22  and  C_25
REMARK                            x       y       z     vdW  Elec       q    Type
REMARK                         _______ _______ _______ _____ _____    ______ ____
ROOT
ATOM      1  C   UNL     1       3.333  -0.490   1.195  0.00  0.00    +0.247 C 
ATOM      2  O   UNL     1       3.363  -1.704   1.250  0.00  0.00    -0.270 OA
ATOM      3  N   UNL     1       2.152   0.157   1.258  0.00  0.00    -0.295 N 
ATOM      4  C   UNL     1       0.888  -0.592   1.291  0.00  0.00    +0.125 C 
ATOM      5  C   UNL     1      -0.003  -0.101   0.143  0.00  0.00    +0.128 C 
ATOM      6  N   UNL     1      -0.049   1.367   0.180  0.00  0.00    -0.174 NA
ATOM      7  C   UNL     1       1.214   2.117   0.147  0.00  0.00    +0.128 C 
ATOM      8  C   UNL     1       2.106   1.626   1.294  0.00  0.00    +0.125 C 
ENDROOT
BRANCH   1  12
ATOM      9  C   UNL     1       6.952   1.717   0.809  0.00  0.00    +0.001 A 
ATOM     10  C   UNL     1       6.174   1.851   1.946  0.00  0.00    +0.001 A 
ATOM     11  C   UNL     1       4.996   1.140   2.074  0.00  0.00    +0.014 A 
ATOM     12  C   UNL     1       4.590   0.276   1.060  0.00  0.00    +0.048 A 
ATOM     13  C   UNL     1       5.381   0.141  -0.096  0.00  0.00    +0.035 A 
ATOM     14  C   UNL     1       6.563   0.869  -0.210  0.00  0.00    +0.012 A 
BRANCH  13  15
ATOM     15  C   UNL     1       4.960  -0.770  -1.183  0.00  0.00    +0.200 C 
ATOM     16  O   UNL     1       3.870  -1.310  -1.137  0.00  0.00    -0.286 OA
BRANCH  15  17
ATOM     17  C   UNL     1       5.853  -1.020  -2.315  0.00  0.00    +0.059 A 
ATOM     18  C   UNL     1       5.698  -1.906  -3.374  0.00  0.00    +0.019 A 
ATOM     19  C   UNL     1       6.698  -1.939  -4.311  0.00  0.00    +0.008 A 
ATOM     20  C   UNL     1       7.778  -1.126  -4.159  0.00  0.00    +0.046 A 
ATOM     21  S   UNL     1       7.429  -0.273  -2.690  0.00  0.00    -0.093 S 
ENDBRANCH  15  17
ENDBRANCH  13  15
ENDBRANCH   1  12
BRANCH   6  22
ATOM     22  S   UNL     1      -1.500   2.163   0.251  0.00  0.00    +0.061 S 
ATOM     23  O   UNL     1      -1.276   3.463  -0.278  0.00  0.00    -0.153 OA
ATOM     24  O   UNL     1      -2.474   1.280  -0.287  0.00  0.00    -0.153 OA
BRANCH  22  25
ATOM     25  C   UNL     1      -1.896   2.373   1.955  0.00  0.00    +0.108 A 
ATOM     26  C   UNL     1      -2.633   1.408   2.616  0.00  0.00    +0.031 A 
ATOM     27  C   UNL     1      -2.941   1.568   3.954  0.00  0.00    +0.043 A 
ATOM     28  C   UNL     1      -2.521   2.700   4.630  0.00  0.00    +0.159 A 
ATOM     29  C   UNL     1      -1.787   3.671   3.965  0.00  0.00    +0.160 A 
ATOM     30  C   UNL     1      -1.476   3.505   2.627  0.00  0.00    +0.069 A 
ATOM     31  F   UNL     1      -1.375   4.777   4.623  0.00  0.00    -0.202 F 
ATOM     32  F   UNL     1      -2.825   2.860   5.937  0.00  0.00    -0.202 F 
ENDBRANCH  22  25
ENDBRANCH   6  22
TORSDOF 5
