REMARK  Name = ZINC32638563
REMARK  3 active torsions:
REMARK  status: ('A' for Active; 'I' for Inactive)
REMARK    1  A    between atoms: C_5  and  C_11
REMARK    2  A    between atoms: N_13  and  C_14
REMARK    3  A    between atoms: C_14  and  C_15
REMARK                            x       y       z     vdW  Elec       q    Type
REMARK                         _______ _______ _______ _____ _____    ______ ____
ROOT
ATOM      1  C   UNL     1       5.978   0.637  -0.050  0.00  0.00    +0.280 C 
ATOM      2  O   UNL     1       6.628   1.666  -0.051  0.00  0.00    -0.267 OA
ATOM      3  N   UNL     1       6.605  -0.556  -0.062  0.00  0.00    -0.305 N 
ATOM      4  H   UNL     1       6.088  -1.376  -0.062  0.00  0.00    +0.149 HD
ENDROOT
BRANCH   1   9
ATOM      5  C   UNL     1      -0.017   1.384   0.010  0.00  0.00    +0.002 A 
ATOM      6  C   UNL     1       1.152   2.092   0.002  0.00  0.00    +0.012 A 
ATOM      7  C   UNL     1       2.373   1.414  -0.013  0.00  0.00    +0.022 A 
ATOM      8  C   UNL     1       3.773   1.836  -0.023  0.00  0.00    +0.063 A 
ATOM      9  C   UNL     1       4.510   0.696  -0.036  0.00  0.00    +0.191 A 
ATOM     10  O   UNL     1       3.690  -0.376  -0.035  0.00  0.00    -0.449 OA
ATOM     11  C   UNL     1       2.399   0.007  -0.021  0.00  0.00    +0.150 A 
ATOM     12  C   UNL     1       1.197  -0.693  -0.015  0.00  0.00    +0.061 A 
ATOM     13  C   UNL     1       0.002  -0.004   0.002  0.00  0.00    +0.019 A 
ATOM     14 BR   UNL     1       1.201  -2.584  -0.025  0.00  0.00    -0.046 Br
ENDBRANCH   1   9
BRANCH   3  15
ATOM     15  C   UNL     1       8.069  -0.614  -0.076  0.00  0.00    +0.141 C 
BRANCH  15  16
ATOM     16  C   UNL     1       8.515  -2.053  -0.088  0.00  0.00    -0.014 A 
ATOM     17  C   UNL     1       8.728  -2.731   1.105  0.00  0.00    +0.010 A 
ATOM     18  C   UNL     1       9.136  -4.051   1.050  0.00  0.00    +0.042 A 
ATOM     19  C   UNL     1       9.319  -4.652  -0.191  0.00  0.00    +0.099 A 
ATOM     20  N   UNL     1       9.105  -3.972  -1.307  0.00  0.00    -0.349 N 
ATOM     21  C   UNL     1       8.710  -2.713  -1.284  0.00  0.00    +0.089 A 
ATOM     22  N   UNL     1       9.730  -5.978  -0.261  0.00  0.00    -0.317 N 
ATOM     23  C   UNL     1       9.998  -6.854   0.889  0.00  0.00    +0.106 C 
ATOM     24  C   UNL     1      10.450  -8.220   0.330  0.00  0.00    +0.020 C 
ATOM     25  C   UNL     1      10.955  -7.862  -1.093  0.00  0.00    +0.020 C 
ATOM     26  C   UNL     1       9.963  -6.741  -1.501  0.00  0.00    +0.106 C 
ATOM     27  H   UNL     1       9.239  -4.411  -2.161  0.00  0.00    +0.167 HD
ENDBRANCH  15  16
ENDBRANCH   3  15
TORSDOF 3
