REMARK  Name = ZINC13942734
REMARK  8 active torsions:
REMARK  status: ('A' for Active; 'I' for Inactive)
REMARK    1  A    between atoms: C_1  and  C_2
REMARK    2  A    between atoms: C_6  and  C_38
REMARK    3  A    between atoms: C_7  and  O_8
REMARK    4  A    between atoms: O_8  and  C_9
REMARK    5  A    between atoms: C_9  and  C_10
REMARK    6  A    between atoms: C_10  and  N_11
REMARK    7  A    between atoms: C_13  and  C_20
REMARK    8  A    between atoms: C_30  and  C_32
REMARK                            x       y       z     vdW  Elec       q    Type
REMARK                         _______ _______ _______ _____ _____    ______ ____
ROOT
ATOM      1  N   UNL     1      -2.553   1.407   4.126  0.00  0.00    -0.343 N 
ATOM      2  C   UNL     1      -3.225   2.574   4.186  0.00  0.00    +0.095 A 
ATOM      3  C   UNL     1      -4.245   2.473   5.112  0.00  0.00    +0.001 A 
ATOM      4  C   UNL     1      -4.170   1.103   5.659  0.00  0.00    +0.007 A 
ATOM      5  C   UNL     1      -3.096   0.485   4.999  0.00  0.00    +0.050 A 
ATOM      6  C   UNL     1      -2.779  -0.834   5.303  0.00  0.00    +0.026 A 
ATOM      7  C   UNL     1      -3.518  -1.521   6.242  0.00  0.00    +0.002 A 
ATOM      8  C   UNL     1      -4.581  -0.910   6.890  0.00  0.00    +0.001 A 
ATOM      9  C   UNL     1      -4.906   0.400   6.607  0.00  0.00    +0.010 A 
ENDROOT
BRANCH   3  10
ATOM     10  C   UNL     1      -5.174   3.478   5.466  0.00  0.00    +0.026 C 
ATOM     11  C   UNL     1      -4.783   4.805   5.483  0.00  0.00    +0.081 C 
ATOM     12  C   UNL     1      -5.763   5.908   5.678  0.00  0.00    +0.152 C 
ATOM     13  N   UNL     1      -6.832   5.795   6.423  0.00  0.00    -0.283 NA
ATOM     14  N   UNL     1      -5.425   7.087   4.981  0.00  0.00    -0.152 N 
ATOM     15  C   UNL     1      -4.100   7.274   4.651  0.00  0.00    +0.181 C 
ATOM     16  N   UNL     1      -3.110   6.435   4.823  0.00  0.00    -0.152 NA
ATOM     17  C   UNL     1      -3.366   5.203   5.314  0.00  0.00    +0.273 C 
ATOM     18  O   UNL     1      -2.460   4.439   5.607  0.00  0.00    -0.268 OA
ATOM     19  S   UNL     1      -4.120   8.896   3.934  0.00  0.00    -0.038 S 
ATOM     20  C   UNL     1      -5.883   9.171   4.029  0.00  0.00    +0.103 C 
ATOM     21  N   UNL     1      -6.303   8.083   4.607  0.00  0.00    -0.169 NA
ATOM     22  H   UNL     1      -7.439   6.545   6.516  0.00  0.00    +0.188 HD
BRANCH  20  23
ATOM     23  C   UNL     1      -6.681  10.360   3.558  0.00  0.00    +0.046 C 
ATOM     24  C   UNL     1      -7.980  10.453   4.362  0.00  0.00    +0.010 C 
ATOM     25  C   UNL     1      -8.790  11.660   3.884  0.00  0.00    +0.001 C 
ATOM     26  C   UNL     1      -9.120  11.497   2.399  0.00  0.00    +0.000 C 
ATOM     27  C   UNL     1      -7.822  11.403   1.595  0.00  0.00    +0.001 C 
ATOM     28  C   UNL     1      -7.012  10.197   2.073  0.00  0.00    +0.010 C 
ENDBRANCH  20  23
ENDBRANCH   3  10
BRANCH   1  29
ATOM     29  C   UNL     1      -1.407   1.150   3.251  0.00  0.00    +0.163 C 
BRANCH  29  30
ATOM     30  C   UNL     1      -1.891   0.491   1.958  0.00  0.00    +0.250 C 
BRANCH  30  31
ATOM     31  O   UNL     1      -0.773   0.240   1.103  0.00  0.00    -0.490 OA
BRANCH  31  38
ATOM     32  C   UNL     1      -1.312   1.938  -1.089  0.00  0.00    +0.047 C 
ATOM     33  C   UNL     1      -1.304   0.436  -1.208  0.00  0.00    -0.009 A 
ATOM     34  C   UNL     1      -1.560  -0.162  -2.426  0.00  0.00    +0.007 A 
ATOM     35  C   UNL     1      -1.552  -1.541  -2.536  0.00  0.00    +0.001 A 
ATOM     36  C   UNL     1      -1.287  -2.323  -1.427  0.00  0.00    +0.007 A 
ATOM     37  C   UNL     1      -1.030  -1.730  -0.206  0.00  0.00    -0.009 A 
ATOM     38  C   UNL     1      -1.032  -0.347  -0.095  0.00  0.00    +0.126 A 
ATOM     39  C   UNL     1      -0.742  -2.583   1.002  0.00  0.00    +0.047 C 
ENDBRANCH  31  38
ENDBRANCH  30  31
ENDBRANCH  29  30
ENDBRANCH   1  29
TORSDOF 6
