REMARK  Name = ZINC52860573
REMARK  3 active torsions:
REMARK  status: ('A' for Active; 'I' for Inactive)
REMARK    1  A    between atoms: C_3  and  N_12
REMARK    2  A    between atoms: C_4  and  C_8
REMARK    3  A    between atoms: N_9  and  O_10
REMARK                            x       y       z     vdW  Elec       q    Type
REMARK                         _______ _______ _______ _____ _____    ______ ____
ROOT
ATOM      1  C   UNL     1      -0.154   0.819  -0.593  0.00  0.00    +0.022 A 
ATOM      2  C   UNL     1       0.880   1.704  -0.359  0.00  0.00    +0.025 A 
ATOM      3  C   UNL     1       2.136   1.230  -0.008  0.00  0.00    +0.040 A 
ATOM      4  C   UNL     1       2.350  -0.151   0.107  0.00  0.00    +0.040 A 
ATOM      5  C   UNL     1       1.298  -1.034  -0.133  0.00  0.00    +0.033 A 
ATOM      6  C   UNL     1       0.054  -0.546  -0.480  0.00  0.00    +0.042 A 
ATOM      7 CL   UNL     1      -1.254  -1.647  -0.777  0.00  0.00    -0.084 Cl
ENDROOT
BRANCH   3   8
ATOM      8  N   UNL     1       3.180   2.122   0.228  0.00  0.00    -0.329 N 
ATOM      9  C   UNL     1       3.972   2.660  -0.887  0.00  0.00    +0.105 C 
ATOM     10  C   UNL     1       3.964   4.189  -0.801  0.00  0.00    +0.023 C 
ATOM     11  C   UNL     1       4.455   4.623   0.583  0.00  0.00    -0.005 C 
ATOM     12  C   UNL     1       4.474   6.152   0.654  0.00  0.00    +0.004 C 
ATOM     13  C   UNL     1       4.958   6.594   2.036  0.00  0.00    +0.000 C 
ATOM     14  C   UNL     1       4.010   6.049   3.105  0.00  0.00    +0.000 C 
ATOM     15  C   UNL     1       3.993   4.521   3.038  0.00  0.00    +0.005 C 
ATOM     16  C   UNL     1       3.513   4.072   1.656  0.00  0.00    +0.009 C 
ATOM     17  C   UNL     1       3.507   2.547   1.595  0.00  0.00    +0.109 C 
ENDBRANCH   3   8
BRANCH   4  18
ATOM     18  C   UNL     1       3.684  -0.667   0.479  0.00  0.00    +0.164 C 
ATOM     19  N   UNL     1       3.813  -1.456   1.506  0.00  0.00    -0.071 NA
ATOM     20  N   UNL     1       4.797  -0.312  -0.265  0.00  0.00    -0.340 N 
ATOM     21  H   UNL     1       4.701   0.276  -1.031  0.00  0.00    +0.144 HD
ATOM     22  H   UNL     1       5.672  -0.651  -0.021  0.00  0.00    +0.144 HD
BRANCH  19  23
ATOM     23  O   UNL     1       2.698  -1.726   2.336  0.00  0.00    -0.408 OA
ATOM     24  H   UNL     1       2.871  -2.380   3.027  0.00  0.00    +0.328 HD
ENDBRANCH  19  23
ENDBRANCH   4  18
TORSDOF 3
