REMARK  Name = ZINC09598463
REMARK  11 active torsions:
REMARK  status: ('A' for Active; 'I' for Inactive)
REMARK    1  A    between atoms: C_1  and  C_2
REMARK    2  A    between atoms: C_2  and  O_3
REMARK    3  A    between atoms: O_3  and  C_4
REMARK    4  A    between atoms: C_4  and  C_6
REMARK    5  A    between atoms: C_13  and  C_15
REMARK    6  A    between atoms: C_15  and  C_16
REMARK    7  A    between atoms: C_16  and  C_17
REMARK    8  A    between atoms: N_19  and  C_20
REMARK    9  A    between atoms: C_26  and  C_39
REMARK   10  A    between atoms: C_31  and  C_38
REMARK   11  A    between atoms: C_34  and  C_37
REMARK                            x       y       z     vdW  Elec       q    Type
REMARK                         _______ _______ _______ _____ _____    ______ ____
ROOT
ATOM      1  C   UNL     1      -6.380   7.559  -8.747  0.00  0.00    +0.034 A 
ATOM      2  C   UNL     1      -5.900   7.018  -9.945  0.00  0.00    +0.025 A 
ATOM      3  C   UNL     1      -6.462   7.351 -11.137  0.00  0.00    +0.028 A 
ATOM      4  C   UNL     1      -7.542   8.250 -11.179  0.00  0.00    +0.048 A 
ATOM      5  C   UNL     1      -8.032   8.801  -9.970  0.00  0.00    +0.003 A 
ATOM      6  C   UNL     1      -7.440   8.439  -8.751  0.00  0.00    +0.033 A 
ATOM      7  C   UNL     1      -9.115   9.703 -10.016  0.00  0.00    -0.038 A 
ATOM      8  C   UNL     1      -9.649  10.010 -11.231  0.00  0.00    +0.045 A 
ATOM      9  C   UNL     1      -9.119   9.431 -12.393  0.00  0.00    +0.099 A 
ATOM     10  N   UNL     1      -9.673   9.753 -13.624  0.00  0.00    -0.316 N 
ATOM     11  C   UNL     1     -11.115   9.474 -13.641  0.00  0.00    +0.109 C 
ATOM     12  C   UNL     1     -11.717   9.974 -14.956  0.00  0.00    +0.004 C 
ATOM     13  C   UNL     1     -11.028   9.269 -16.128  0.00  0.00    +0.009 C 
ATOM     14  C   UNL     1      -9.522   9.536 -16.059  0.00  0.00    +0.004 C 
ATOM     15  C   UNL     1      -8.983   9.048 -14.712  0.00  0.00    +0.109 C 
ATOM     16  C   UNL     1      -8.818   8.786 -17.192  0.00  0.00    +0.009 C 
ATOM     17  C   UNL     1     -11.505  11.485 -15.073  0.00  0.00    +0.009 C 
ATOM     18  C   UNL     1      -9.668  10.312  -8.753  0.00  0.00    +0.044 C 
ATOM     19  N   UNL     1      -8.081   8.559 -12.409  0.00  0.00    -0.343 N 
ATOM     20  H   UNL     1      -7.720   8.154 -13.281  0.00  0.00    +0.167 HD
ENDROOT
BRANCH   1  23
ATOM     21  C   UNL     1      -5.702   8.094  -6.529  0.00  0.00    +0.218 C 
ATOM     22  O   UNL     1      -6.062   9.238  -6.707  0.00  0.00    -0.275 OA
ATOM     23  N   UNL     1      -5.781   7.199  -7.534  0.00  0.00    -0.285 N 
ATOM     24  H   UNL     1      -5.423   6.305  -7.416  0.00  0.00    +0.155 HD
BRANCH  21  25
ATOM     25  C   UNL     1      -5.167   7.672  -5.185  0.00  0.00    +0.105 C 
BRANCH  25  26
ATOM     26  C   UNL     1      -5.184   8.869  -4.231  0.00  0.00    +0.105 C 
BRANCH  26  33
ATOM     27  C   UNL     1      -2.919   9.902  -0.176  0.00  0.00    +0.115 C 
ATOM     28  C   UNL     1      -3.428  11.344  -0.243  0.00  0.00    +0.018 C 
ATOM     29  C   UNL     1      -3.861  11.668  -1.675  0.00  0.00    +0.020 C 
ATOM     30  C   UNL     1      -5.003  10.732  -2.083  0.00  0.00    +0.108 C 
ATOM     31  N   UNL     1      -4.571   9.342  -1.883  0.00  0.00    -0.301 N 
ATOM     32  C   UNL     1      -4.051   8.947  -0.567  0.00  0.00    +0.122 C 
ATOM     33  C   UNL     1      -4.649   8.447  -2.887  0.00  0.00    +0.216 C 
ATOM     34  O   UNL     1      -4.289   7.303  -2.709  0.00  0.00    -0.276 OA
BRANCH  27  35
ATOM     35  C   UNL     1      -2.463   9.595   1.228  0.00  0.00    +0.312 C 
ATOM     36  O   UNL     1      -2.535  10.442   2.086  0.00  0.00    -0.250 OA
BRANCH  35  37
ATOM     37  O   UNL     1      -1.978   8.379   1.524  0.00  0.00    -0.465 OA
BRANCH  37  39
ATOM     38  C   UNL     1      -1.037   6.722   3.041  0.00  0.00    +0.048 C 
ATOM     39  C   UNL     1      -1.558   8.153   2.896  0.00  0.00    +0.229 C 
ENDBRANCH  37  39
ENDBRANCH  35  37
ENDBRANCH  27  35
ENDBRANCH  26  33
ENDBRANCH  25  26
ENDBRANCH  21  25
ENDBRANCH   1  23
TORSDOF 7
