REMARK  Name = ZINC48325600
REMARK  7 active torsions:
REMARK  status: ('A' for Active; 'I' for Inactive)
REMARK    1  A    between atoms: C_1  and  C_2
REMARK    2  A    between atoms: C_4  and  N_18
REMARK    3  A    between atoms: C_6  and  S_8
REMARK    4  A    between atoms: S_8  and  C_9
REMARK    5  A    between atoms: C_9  and  C_11
REMARK    6  A    between atoms: C_9  and  C_12
REMARK    7  A    between atoms: C_14  and  C_17
REMARK                            x       y       z     vdW  Elec       q    Type
REMARK                         _______ _______ _______ _____ _____    ______ ____
ROOT
ATOM      1  C   UNL     1      -0.018   1.503   0.010  0.00  0.00    +0.066 C 
ATOM      2  C   UNL     1       0.002  -0.004   0.002  0.00  0.00    +0.044 A 
ATOM      3  C   UNL     1       0.006  -0.696  -1.194  0.00  0.00    +0.066 A 
ATOM      4  C   UNL     1       0.025  -2.091  -1.157  0.00  0.00    +0.121 A 
ATOM      5  N   UNL     1       0.039  -2.705   0.022  0.00  0.00    -0.207 NA
ATOM      6  C   UNL     1       0.035  -2.005   1.147  0.00  0.00    +0.191 A 
ATOM      7  N   UNL     1       0.022  -0.679   1.141  0.00  0.00    -0.227 NA
ENDROOT
BRANCH   4   8
ATOM      8  N   UNL     1       0.029  -2.826  -2.331  0.00  0.00    -0.343 N 
ATOM      9  H   UNL     1       0.018  -2.371  -3.188  0.00  0.00    +0.144 HD
ATOM     10  H   UNL     1       0.042  -3.795  -2.297  0.00  0.00    +0.144 HD
ENDBRANCH   4   8
BRANCH   6  11
ATOM     11  S   UNL     1       0.053  -2.857   2.690  0.00  0.00    -0.073 S 
BRANCH  11  12
ATOM     12  C   UNL     1       0.075  -4.610   2.222  0.00  0.00    +0.140 C 
ATOM     13  C   UNL     1      -1.231  -4.963   1.508  0.00  0.00    +0.029 C 
BRANCH  12  14
ATOM     14  C   UNL     1       0.216  -5.458   3.460  0.00  0.00    +0.240 A 
ATOM     15  N   UNL     1       1.020  -6.475   3.602  0.00  0.00    -0.195 NA
ATOM     16  C   UNL     1       0.888  -6.997   4.827  0.00  0.00    +0.169 A 
ATOM     17  N   UNL     1      -0.006  -6.314   5.482  0.00  0.00    -0.062 NA
ATOM     18  O   UNL     1      -0.458  -5.293   4.605  0.00  0.00    -0.337 OA
ATOM     19  C   UNL     1       1.650  -8.182   5.361  0.00  0.00    +0.091 C 
ENDBRANCH  12  14
ENDBRANCH  11  12
ENDBRANCH   6  11
TORSDOF 4
