REMARK  Name = ZINC04458165
REMARK  7 active torsions:
REMARK  status: ('A' for Active; 'I' for Inactive)
REMARK    1  A    between atoms: C_1  and  C_2
REMARK    2  A    between atoms: C_2  and  C_3
REMARK    3  A    between atoms: C_3  and  N_4
REMARK    4  A    between atoms: N_12  and  C_28
REMARK    5  A    between atoms: N_16  and  N_17
REMARK    6  A    between atoms: C_18  and  C_19
REMARK    7  A    between atoms: C_20  and  C_21
REMARK                            x       y       z     vdW  Elec       q    Type
REMARK                         _______ _______ _______ _____ _____    ______ ____
ROOT
ATOM      1  N   UNL     1       2.162   1.073   1.817  0.00  0.00    -0.305 N 
ATOM      2  C   UNL     1       3.099   2.096   1.841  0.00  0.00    +0.153 A 
ATOM      3  C   UNL     1       4.464   2.173   2.172  0.00  0.00    +0.280 A 
ATOM      4  O   UNL     1       5.068   1.176   2.529  0.00  0.00    -0.265 OA
ATOM      5  N   UNL     1       5.096   3.361   2.092  0.00  0.00    -0.273 N 
ATOM      6  H   UNL     1       6.067   3.420   2.327  0.00  0.00    +0.173 HD
ATOM      7  C   UNL     1       4.443   4.469   1.700  0.00  0.00    +0.331 A 
ATOM      8  O   UNL     1       5.046   5.523   1.639  0.00  0.00    -0.246 OA
ATOM      9  N   UNL     1       3.137   4.439   1.373  0.00  0.00    -0.280 N 
ATOM     10  C   UNL     1       2.432   3.248   1.437  0.00  0.00    +0.170 A 
ATOM     11  N   UNL     1       1.167   2.913   1.184  0.00  0.00    -0.195 NA
ATOM     12  C   UNL     1       0.990   1.625   1.401  0.00  0.00    +0.218 A 
ATOM     13  N   UNL     1      -0.196   0.946   1.240  0.00  0.00    -0.206 N 
ATOM     14  C   UNL     1       2.460   5.668   0.951  0.00  0.00    +0.155 C 
ATOM     15  H   UNL     1      -0.239  -0.006   1.423  0.00  0.00    +0.177 HD
ENDROOT
BRANCH  13  16
ATOM     16  N   UNL     1      -1.340   1.628   0.804  0.00  0.00    -0.187 NA
ATOM     17  C   UNL     1      -2.461   0.984   0.646  0.00  0.00    +0.145 C 
BRANCH  17  18
ATOM     18  C   UNL     1      -3.619   1.674   0.205  0.00  0.00    +0.038 C 
ATOM     19  C   UNL     1      -4.749   0.989  -0.072  0.00  0.00    +0.024 C 
ATOM     20 BR   UNL     1      -3.581   3.554   0.006  0.00  0.00    -0.049 Br
BRANCH  19  21
ATOM     21  C   UNL     1      -4.734  -0.482  -0.080  0.00  0.00    -0.024 A 
ATOM     22  C   UNL     1      -3.595  -1.171  -0.509  0.00  0.00    +0.008 A 
ATOM     23  C   UNL     1      -3.587  -2.550  -0.509  0.00  0.00    +0.001 A 
ATOM     24  C   UNL     1      -4.706  -3.252  -0.097  0.00  0.00    +0.000 A 
ATOM     25  C   UNL     1      -5.839  -2.578   0.324  0.00  0.00    +0.001 A 
ATOM     26  C   UNL     1      -5.861  -1.199   0.335  0.00  0.00    +0.008 A 
ENDBRANCH  19  21
ENDBRANCH  17  18
ENDBRANCH  13  16
BRANCH   1  27
ATOM     27  C   UNL     1       2.391  -0.331   2.169  0.00  0.00    +0.125 C 
BRANCH  27  29
ATOM     28  C   UNL     1       3.061  -2.571   1.289  0.00  0.00    +0.005 C 
ATOM     29  C   UNL     1       2.822  -1.105   0.921  0.00  0.00    +0.018 C 
ENDBRANCH  27  29
ENDBRANCH   1  27
TORSDOF 5
