REMARK  Name = ZINC05028287
REMARK  4 active torsions:
REMARK  status: ('A' for Active; 'I' for Inactive)
REMARK    1  A    between atoms: C_1  and  C_2
REMARK    2  A    between atoms: C_2  and  C_4
REMARK    3  A    between atoms: C_2  and  S_16
REMARK    4  A    between atoms: S_16  and  C_17
REMARK                            x       y       z     vdW  Elec       q    Type
REMARK                         _______ _______ _______ _____ _____    ______ ____
ROOT
ATOM      1  C   UNL     1       0.886   6.094  -1.281  0.00  0.00    +0.027 C 
ATOM      2  C   UNL     1       0.118   6.239   0.034  0.00  0.00    +0.117 C 
ENDROOT
BRANCH   2   3
ATOM      3  C   UNL     1      -0.383   7.654   0.170  0.00  0.00    +0.124 A 
ATOM      4  N   UNL     1       0.367   8.537   0.880  0.00  0.00    -0.309 N 
ATOM      5  H   UNL     1       1.223   8.236   1.298  0.00  0.00    +0.170 HD
ATOM      6  C   UNL     1      -0.036   9.821   1.026  0.00  0.00    +0.259 A 
ATOM      7  O   UNL     1       0.627  10.624   1.657  0.00  0.00    -0.267 OA
ATOM      8  C   UNL     1      -1.310  10.206   0.400  0.00  0.00    +0.065 A 
ATOM      9  C   UNL     1      -1.816  11.501   0.496  0.00  0.00    +0.015 A 
ATOM     10  C   UNL     1      -3.015  11.807  -0.110  0.00  0.00    +0.001 A 
ATOM     11  C   UNL     1      -3.719  10.838  -0.813  0.00  0.00    +0.002 A 
ATOM     12  C   UNL     1      -3.236   9.554  -0.920  0.00  0.00    +0.028 A 
ATOM     13  C   UNL     1      -2.023   9.219  -0.314  0.00  0.00    +0.078 A 
ATOM     14  N   UNL     1      -1.510   7.965  -0.394  0.00  0.00    -0.233 NA
ENDBRANCH   2   3
BRANCH   2  15
ATOM     15  S   UNL     1      -1.288   5.099   0.040  0.00  0.00    -0.077 S 
BRANCH  15  16
ATOM     16  C   UNL     1      -0.432   3.558   0.025  0.00  0.00    +0.168 A 
ATOM     17  N   UNL     1      -1.028   2.329   0.019  0.00  0.00    -0.333 N 
ATOM     18  H   UNL     1      -2.011   2.146   0.021  0.00  0.00    +0.168 HD
ATOM     19  C   UNL     1      -0.017   1.382   0.010  0.00  0.00    +0.067 A 
ATOM     20  C   UNL     1       0.002  -0.004   0.002  0.00  0.00    +0.028 A 
ATOM     21  C   UNL     1       1.208  -0.674  -0.013  0.00  0.00    +0.002 A 
ATOM     22  C   UNL     1       2.403   0.029  -0.021  0.00  0.00    +0.002 A 
ATOM     23  C   UNL     1       2.403   1.406  -0.013  0.00  0.00    +0.030 A 
ATOM     24  C   UNL     1       1.191   2.100   0.002  0.00  0.00    +0.090 A 
ATOM     25  N   UNL     1       0.871   3.421   0.012  0.00  0.00    -0.222 NA
ENDBRANCH  15  16
ENDBRANCH   2  15
TORSDOF 3
