REMARK  Name = ZINC13726745
REMARK  13 active torsions:
REMARK  status: ('A' for Active; 'I' for Inactive)
REMARK    1  A    between atoms: C_1  and  C_2
REMARK    2  A    between atoms: C_2  and  O_3
REMARK    3  A    between atoms: O_3  and  C_4
REMARK    4  A    between atoms: C_6  and  C_22
REMARK    5  A    between atoms: C_9  and  O_10
REMARK    6  A    between atoms: O_10  and  C_11
REMARK    7  A    between atoms: N_15  and  C_16
REMARK    8  A    between atoms: C_22  and  N_61
REMARK    9  A    between atoms: C_23  and  C_25
REMARK   10  A    between atoms: C_23  and  C_26
REMARK   11  A    between atoms: C_23  and  N_61
REMARK   12  A    between atoms: C_26  and  C_27
REMARK   13  A    between atoms: C_27  and  C_28
REMARK                            x       y       z     vdW  Elec       q    Type
REMARK                         _______ _______ _______ _____ _____    ______ ____
ROOT
ATOM      1  C   UNL     1      -2.943   1.626   2.237  0.00  0.00    +0.163 A 
ATOM      2  C   UNL     1      -2.416   2.400   3.259  0.00  0.00    +0.051 A 
ATOM      3  C   UNL     1      -3.091   2.510   4.460  0.00  0.00    -0.061 A 
ATOM      4  C   UNL     1      -4.292   1.850   4.646  0.00  0.00    +0.005 A 
ATOM      5  C   UNL     1      -4.823   1.076   3.630  0.00  0.00    +0.050 A 
ATOM      6  C   UNL     1      -4.154   0.966   2.421  0.00  0.00    +0.173 A 
ENDROOT
BRANCH   1   7
ATOM      7  O   UNL     1      -2.280   1.517   1.054  0.00  0.00    -0.489 OA
BRANCH   7   9
ATOM      8  C   UNL     1      -0.452   1.985  -0.455  0.00  0.00    +0.048 C 
ATOM      9  C   UNL     1      -1.046   2.227   0.934  0.00  0.00    +0.226 C 
ENDBRANCH   7   9
ENDBRANCH   1   7
BRANCH   6  10
ATOM     10  O   UNL     1      -4.678   0.210   1.419  0.00  0.00    -0.419 OA
BRANCH  10  11
ATOM     11  C   UNL     1      -5.928  -0.285   1.583  0.00  0.00    +0.347 A 
ATOM     12  N   UNL     1      -6.748  -0.019   2.574  0.00  0.00    -0.070 NA
ATOM     13  N   UNL     1      -7.856  -0.652   2.423  0.00  0.00    -0.019 NA
ATOM     14  N   UNL     1      -7.823  -1.363   1.349  0.00  0.00    -0.036 NA
ATOM     15  N   UNL     1      -6.564  -1.152   0.760  0.00  0.00    -0.162 N 
BRANCH  15  16
ATOM     16  C   UNL     1      -6.073  -1.717  -0.426  0.00  0.00    +0.072 A 
ATOM     17  C   UNL     1      -5.246  -0.976  -1.259  0.00  0.00    +0.028 A 
ATOM     18  C   UNL     1      -4.759  -1.536  -2.424  0.00  0.00    +0.002 A 
ATOM     19  C   UNL     1      -5.104  -2.831  -2.766  0.00  0.00    +0.000 A 
ATOM     20  C   UNL     1      -5.933  -3.569  -1.942  0.00  0.00    +0.002 A 
ATOM     21  C   UNL     1      -6.418  -3.016  -0.773  0.00  0.00    +0.028 A 
ENDBRANCH  15  16
ENDBRANCH  10  11
ENDBRANCH   6  10
BRANCH   3  22
ATOM     22  C   UNL     1      -2.516   3.351   5.571  0.00  0.00    -0.046 C 
BRANCH  22  23
ATOM     23  N   UNL     1      -3.018   4.732   5.440  0.00  0.00    +0.383 N 
ATOM     24  H   UNL     1      -4.043   4.727   5.501  0.00  0.00    -0.085 HD
ATOM     25  H   UNL     1      -2.732   5.112   4.530  0.00  0.00    -0.085 HD
BRANCH  23  26
ATOM     26  C   UNL     1      -2.471   5.580   6.516  0.00  0.00    -0.074 C 
ATOM     27  C   UNL     1      -1.096   6.107   6.101  0.00  0.00    -0.014 C 
BRANCH  26  28
ATOM     28  C   UNL     1      -3.418   6.758   6.757  0.00  0.00    -0.011 C 
BRANCH  28  29
ATOM     29  C   UNL     1      -4.754   6.237   7.291  0.00  0.00    +0.033 C 
BRANCH  29  30
ATOM     30  C   UNL     1      -5.686   7.397   7.529  0.00  0.00    -0.047 A 
ATOM     31  C   UNL     1      -5.708   8.025   8.761  0.00  0.00    +0.003 A 
ATOM     32  C   UNL     1      -6.559   9.092   8.977  0.00  0.00    +0.000 A 
ATOM     33  C   UNL     1      -7.396   9.525   7.965  0.00  0.00    +0.000 A 
ATOM     34  C   UNL     1      -7.378   8.894   6.736  0.00  0.00    +0.000 A 
ATOM     35  C   UNL     1      -6.522   7.830   6.517  0.00  0.00    +0.003 A 
ENDBRANCH  29  30
ENDBRANCH  28  29
ENDBRANCH  26  28
ENDBRANCH  23  26
ENDBRANCH  22  23
ENDBRANCH   3  22
TORSDOF 11
