REMARK  Name = ZINC36660377
REMARK  11 active torsions:
REMARK  status: ('A' for Active; 'I' for Inactive)
REMARK    1  A    between atoms: C_1  and  C_2
REMARK    2  A    between atoms: C_5  and  O_35
REMARK    3  A    between atoms: N_11  and  C_12
REMARK    4  A    between atoms: C_12  and  C_13
REMARK    5  A    between atoms: C_13  and  N_14
REMARK    6  A    between atoms: N_14  and  C_15
REMARK    7  A    between atoms: N_14  and  C_16
REMARK    8  A    between atoms: C_17  and  C_19
REMARK    9  A    between atoms: N_24  and  S_25
REMARK   10  A    between atoms: S_25  and  C_28
REMARK   11  A    between atoms: O_35  and  C_36
REMARK                            x       y       z     vdW  Elec       q    Type
REMARK                         _______ _______ _______ _____ _____    ______ ____
ROOT
ATOM      1  C   UNL     1       0.703   0.561  -0.782  0.00  0.00    +0.045 C 
ATOM      2  C   UNL     1       0.870  -0.913  -0.519  0.00  0.00    -0.034 A 
ATOM      3  C   UNL     1       1.165  -1.776  -1.559  0.00  0.00    +0.008 A 
ATOM      4  C   UNL     1       1.316  -3.129  -1.297  0.00  0.00    +0.048 A 
ATOM      5  C   UNL     1       1.178  -3.634  -0.025  0.00  0.00    +0.147 A 
ATOM      6  C   UNL     1       0.876  -2.777   1.063  0.00  0.00    +0.122 A 
ATOM      7  C   UNL     1       0.737  -1.406   0.757  0.00  0.00    +0.047 A 
ATOM      8  S   UNL     1       0.382  -0.697   2.347  0.00  0.00    -0.051 S 
ATOM      9  C   UNL     1       0.447  -2.215   3.288  0.00  0.00    +0.168 A 
ATOM     10  N   UNL     1       0.709  -3.107   2.363  0.00  0.00    -0.221 NA
ATOM     11  N   UNL     1       0.256  -2.403   4.649  0.00  0.00    -0.251 N 
ATOM     12  C   UNL     1       0.126  -1.338   5.464  0.00  0.00    +0.240 C 
ATOM     13  O   UNL     1       0.041  -1.500   6.663  0.00  0.00    -0.273 OA
ENDROOT
BRANCH  12  14
ATOM     14  C   UNL     1       0.086   0.053   4.887  0.00  0.00    +0.166 C 
ATOM     15  C   UNL     1      -1.298   0.321   4.258  0.00  0.00    +0.031 C 
ATOM     16  C   UNL     1      -2.047   1.087   5.380  0.00  0.00    +0.019 C 
ATOM     17  C   UNL     1      -0.902   1.925   6.002  0.00  0.00    +0.110 C 
ATOM     18  N   UNL     1       0.282   1.044   5.955  0.00  0.00    -0.165 NA
BRANCH  18  19
ATOM     19  S   UNL     1       1.609   1.151   6.941  0.00  0.00    +0.062 S 
ATOM     20  O   UNL     1       1.184   1.811   8.125  0.00  0.00    -0.153 OA
ATOM     21  O   UNL     1       2.205  -0.139   6.960  0.00  0.00    -0.153 OA
BRANCH  19  22
ATOM     22  C   UNL     1       2.760   2.225   6.150  0.00  0.00    +0.106 A 
ATOM     23  C   UNL     1       3.699   1.710   5.276  0.00  0.00    +0.031 A 
ATOM     24  C   UNL     1       4.602   2.552   4.655  0.00  0.00    +0.040 A 
ATOM     25  C   UNL     1       4.566   3.913   4.909  0.00  0.00    +0.124 A 
ATOM     26  C   UNL     1       3.626   4.428   5.785  0.00  0.00    +0.040 A 
ATOM     27  C   UNL     1       2.720   3.584   6.400  0.00  0.00    +0.031 A 
ATOM     28  F   UNL     1       5.449   4.737   4.303  0.00  0.00    -0.205 F 
ENDBRANCH  19  22
ENDBRANCH  18  19
ENDBRANCH  12  14
BRANCH   5  29
ATOM     29  O   UNL     1       1.333  -4.968   0.190  0.00  0.00    -0.493 OA
ATOM     30  C   UNL     1       1.635  -5.778  -0.948  0.00  0.00    +0.277 C 
ENDBRANCH   5  29
BRANCH  11  31
ATOM     31  C   UNL     1       0.195  -3.759   5.199  0.00  0.00    +0.097 C 
BRANCH  31  32
ATOM     32  C   UNL     1       1.602  -4.213   5.594  0.00  0.00    -0.060 C 
BRANCH  32  33
ATOM     33  N   UNL     1       1.560  -5.614   6.030  0.00  0.00    +0.377 N 
ATOM     34  C   UNL     1       2.926  -6.086   6.295  0.00  0.00    -0.097 C 
ATOM     35  C   UNL     1       0.759  -5.722   7.257  0.00  0.00    -0.097 C 
ATOM     36  H   UNL     1       1.144  -6.180   5.306  0.00  0.00    -0.083 HD
ENDBRANCH  32  33
ENDBRANCH  31  32
ENDBRANCH  11  31
TORSDOF 7
