REMARK  Name = ZINC09425180
REMARK  18 active torsions:
REMARK  status: ('A' for Active; 'I' for Inactive)
REMARK    1  A    between atoms: C_1  and  C_2
REMARK    2  A    between atoms: C_2  and  N_76
REMARK    3  A    between atoms: C_3  and  C_4
REMARK    4  A    between atoms: C_3  and  N_76
REMARK    5  A    between atoms: C_5  and  C_6
REMARK    6  A    between atoms: C_5  and  N_76
REMARK    7  A    between atoms: C_6  and  C_7
REMARK    8  A    between atoms: C_7  and  N_8
REMARK    9  A    between atoms: C_9  and  C_29
REMARK   10  A    between atoms: C_11  and  C_16
REMARK   11  A    between atoms: C_12  and  O_15
REMARK   12  A    between atoms: C_16  and  C_18
REMARK   13  A    between atoms: C_25  and  C_28
REMARK   14  A    between atoms: C_32  and  O_37
REMARK   15  A    between atoms: C_33  and  O_35
REMARK   16  A    between atoms: O_35  and  C_36
REMARK   17  A    between atoms: O_37  and  C_38
REMARK   18  A    between atoms: C_38  and  C_39
REMARK                            x       y       z     vdW  Elec       q    Type
REMARK                         _______ _______ _______ _____ _____    ______ ____
ROOT
ATOM      1  N   UNL     1       2.096   1.385   0.592  0.00  0.00    -0.284 N 
ATOM      2  C   UNL     1       0.648   1.267   0.798  0.00  0.00    +0.145 C 
ATOM      3  C   UNL     1       0.356   1.933   2.123  0.00  0.00    +0.071 C 
ATOM      4  C   UNL     1       1.539   2.379   2.605  0.00  0.00    +0.188 C 
ATOM      5  C   UNL     1       2.613   2.035   1.650  0.00  0.00    +0.282 C 
ATOM      6  O   UNL     1       3.789   2.301   1.799  0.00  0.00    -0.267 OA
ENDROOT
BRANCH   2   7
ATOM      7  C   UNL     1      -0.092   1.970  -0.310  0.00  0.00    -0.019 A 
ATOM      8  C   UNL     1       0.264   3.256  -0.671  0.00  0.00    +0.009 A 
ATOM      9  C   UNL     1      -0.412   3.905  -1.687  0.00  0.00    +0.050 A 
ATOM     10  C   UNL     1      -1.450   3.266  -2.347  0.00  0.00    +0.162 A 
ATOM     11  C   UNL     1      -1.808   1.971  -1.984  0.00  0.00    +0.162 A 
ATOM     12  C   UNL     1      -1.123   1.325  -0.969  0.00  0.00    +0.055 A 
BRANCH  11  13
ATOM     13  O   UNL     1      -2.826   1.340  -2.629  0.00  0.00    -0.491 OA
ATOM     14  C   UNL     1      -3.207   0.054  -2.137  0.00  0.00    +0.277 C 
ENDBRANCH  11  13
BRANCH  10  15
ATOM     15  O   UNL     1      -2.116   3.903  -3.347  0.00  0.00    -0.489 OA
BRANCH  15  16
ATOM     16  C   UNL     1      -1.694   5.230  -3.665  0.00  0.00    +0.226 C 
ATOM     17  C   UNL     1      -2.553   5.779  -4.806  0.00  0.00    +0.048 C 
ENDBRANCH  15  16
ENDBRANCH  10  15
ENDBRANCH   2   7
BRANCH   4  18
ATOM     18  O   UNL     1       1.711   3.035   3.776  0.00  0.00    -0.502 OA
ATOM     19  H   UNL     1       2.679   3.253   3.897  0.00  0.00    +0.292 HD
ENDBRANCH   4  18
BRANCH   3  20
ATOM     20  C   UNL     1      -0.957   2.069   2.763  0.00  0.00    +0.195 C 
ATOM     21  O   UNL     1      -1.455   3.170   2.901  0.00  0.00    -0.287 OA
BRANCH  20  22
ATOM     22  C   UNL     1      -1.674   0.869   3.238  0.00  0.00    +0.023 A 
ATOM     23  C   UNL     1      -1.073  -0.391   3.154  0.00  0.00    +0.015 A 
ATOM     24  C   UNL     1      -1.741  -1.506   3.601  0.00  0.00    +0.046 A 
ATOM     25  C   UNL     1      -3.024  -1.393   4.141  0.00  0.00    +0.124 A 
ATOM     26  C   UNL     1      -3.619  -0.137   4.218  0.00  0.00    -0.002 A 
ATOM     27  C   UNL     1      -2.957   0.985   3.783  0.00  0.00    +0.019 A 
ATOM     28  C   UNL     1      -4.994  -0.334   4.827  0.00  0.00    +0.083 C 
ATOM     29  C   UNL     1      -5.191  -1.861   4.680  0.00  0.00    +0.175 C 
ATOM     30  O   UNL     1      -3.842  -2.356   4.644  0.00  0.00    -0.488 OA
ATOM     31  C   UNL     1      -5.944  -2.428   5.885  0.00  0.00    +0.052 C 
ENDBRANCH  20  22
ENDBRANCH   3  20
BRANCH   1  32
ATOM     32  C   UNL     1       2.846   0.884  -0.563  0.00  0.00    +0.107 C 
BRANCH  32  33
ATOM     33  C   UNL     1       2.908   1.969  -1.640  0.00  0.00    +0.000 C 
BRANCH  33  34
ATOM     34  C   UNL     1       3.692   1.446  -2.846  0.00  0.00    -0.077 C 
BRANCH  34  35
ATOM     35  N   UNL     1       3.724   2.496  -3.885  0.00  0.00    +0.379 N 
ATOM     36  H   UNL     1       2.767   2.821  -4.061  0.00  0.00    -0.082 HD
BRANCH  35  38
ATOM     37  C   UNL     1       5.968   3.186  -3.110  0.00  0.00    -0.017 C 
ATOM     38  C   UNL     1       4.541   3.639  -3.423  0.00  0.00    -0.082 C 
ENDBRANCH  35  38
BRANCH  35  39
ATOM     39  C   UNL     1       4.285   1.949  -5.139  0.00  0.00    -0.082 C 
ATOM     40  C   UNL     1       4.111   2.986  -6.251  0.00  0.00    -0.017 C 
ENDBRANCH  35  39
ENDBRANCH  34  35
ENDBRANCH  33  34
ENDBRANCH  32  33
ENDBRANCH   1  32
TORSDOF 13
