REMARK  Name = ZINC39214884
REMARK  5 active torsions:
REMARK  status: ('A' for Active; 'I' for Inactive)
REMARK    1  A    between atoms: C_4  and  C_7
REMARK    2  A    between atoms: C_8  and  C_33
REMARK    3  A    between atoms: C_11  and  S_13
REMARK    4  A    between atoms: S_13  and  C_14
REMARK    5  A    between atoms: C_16  and  C_27
REMARK                            x       y       z     vdW  Elec       q    Type
REMARK                         _______ _______ _______ _____ _____    ______ ____
ROOT
ATOM      1  S   UNL     1       7.205  -0.309  -1.698  0.00  0.00    -0.067 S 
ENDROOT
BRANCH   1   2
ATOM      2  C   UNL     1       8.650  -1.206  -1.067  0.00  0.00    +0.171 C 
ATOM      3  C   UNL     1       9.887  -0.604  -1.704  0.00  0.00    -0.009 C 
ATOM      4  C   UNL     1      10.706  -1.465  -2.440  0.00  0.00    +0.003 A 
ATOM      5  C   UNL     1      11.877  -0.987  -3.066  0.00  0.00    +0.030 A 
ATOM      6  C   UNL     1      12.656  -1.848  -3.776  0.00  0.00    +0.042 A 
ATOM      7  C   UNL     1      12.321  -3.195  -3.899  0.00  0.00    +0.022 A 
ATOM      8  C   UNL     1      11.204  -3.714  -3.319  0.00  0.00    +0.025 A 
ATOM      9  C   UNL     1      10.352  -2.883  -2.569  0.00  0.00    +0.041 A 
ATOM     10  N   UNL     1       9.256  -3.394  -1.998  0.00  0.00    -0.284 N 
ATOM     11  C   UNL     1       8.409  -2.683  -1.282  0.00  0.00    +0.235 C 
ATOM     12  O   UNL     1       7.431  -3.217  -0.792  0.00  0.00    -0.274 OA
ATOM     13 CL   UNL     1      14.096  -1.255  -4.544  0.00  0.00    -0.084 Cl
ATOM     14  H   UNL     1       9.075  -4.340  -2.118  0.00  0.00    +0.155 HD
BRANCH   3  15
ATOM     15  C   UNL     1      10.199   0.772  -1.561  0.00  0.00    -0.020 A 
ATOM     16  C   UNL     1      10.209   1.616  -2.683  0.00  0.00    +0.008 A 
ATOM     17  C   UNL     1      10.513   2.950  -2.533  0.00  0.00    +0.001 A 
ATOM     18  C   UNL     1      10.809   3.461  -1.280  0.00  0.00    +0.000 A 
ATOM     19  C   UNL     1      10.802   2.638  -0.166  0.00  0.00    +0.001 A 
ATOM     20  C   UNL     1      10.495   1.301  -0.294  0.00  0.00    +0.008 A 
ENDBRANCH   3  15
ENDBRANCH   1   2
BRANCH   1  25
ATOM     21  C   UNL     1       3.639  -0.885  -0.176  0.00  0.00    +0.102 A 
ATOM     22  C   UNL     1       3.914  -1.848   0.816  0.00  0.00    +0.119 A 
ATOM     23  N   UNL     1       5.163  -2.272   0.972  0.00  0.00    -0.145 NA
ATOM     24  N   UNL     1       6.107  -1.810   0.229  0.00  0.00    -0.122 NA
ATOM     25  C   UNL     1       5.871  -0.903  -0.712  0.00  0.00    +0.211 A 
ATOM     26  N   UNL     1       4.645  -0.440  -0.925  0.00  0.00    -0.218 NA
BRANCH  21  30
ATOM     27  C   UNL     1      -0.316   0.551  -0.776  0.00  0.00    +0.000 A 
ATOM     28  C   UNL     1       0.742   1.441  -0.740  0.00  0.00    +0.001 A 
ATOM     29  C   UNL     1       2.028   0.981  -0.546  0.00  0.00    +0.010 A 
ATOM     30  C   UNL     1       2.260  -0.385  -0.385  0.00  0.00    +0.003 A 
ATOM     31  C   UNL     1       1.190  -1.277  -0.422  0.00  0.00    +0.010 A 
ATOM     32  C   UNL     1      -0.092  -0.805  -0.618  0.00  0.00    +0.001 A 
ENDBRANCH  21  30
BRANCH  22  33
ATOM     33  C   UNL     1       2.826  -2.379   1.671  0.00  0.00    +0.004 A 
ATOM     34  C   UNL     1       1.889  -1.511   2.231  0.00  0.00    +0.010 A 
ATOM     35  C   UNL     1       0.878  -2.011   3.026  0.00  0.00    +0.001 A 
ATOM     36  C   UNL     1       0.794  -3.370   3.269  0.00  0.00    +0.000 A 
ATOM     37  C   UNL     1       1.720  -4.236   2.716  0.00  0.00    +0.001 A 
ATOM     38  C   UNL     1       2.732  -3.748   1.915  0.00  0.00    +0.010 A 
ENDBRANCH  22  33
ENDBRANCH   1  25
TORSDOF 5
