REMARK  Name = ZINC01086981
REMARK  5 active torsions:
REMARK  status: ('A' for Active; 'I' for Inactive)
REMARK    1  A    between atoms: C_6  and  C_7
REMARK    2  A    between atoms: C_7  and  N_8
REMARK    3  A    between atoms: C_11  and  C_13
REMARK    4  A    between atoms: N_15  and  N_16
REMARK    5  A    between atoms: C_17  and  C_18
REMARK                            x       y       z     vdW  Elec       q    Type
REMARK                         _______ _______ _______ _____ _____    ______ ____
ROOT
ATOM      1  C   UNL     1       0.971  -3.146  -1.369  0.00  0.00    +0.284 C 
ATOM      2  O   UNL     1       0.736  -4.284  -1.012  0.00  0.00    -0.267 OA
ATOM      3  N   UNL     1       1.721  -2.925  -2.466  0.00  0.00    -0.202 N 
ATOM      4  H   UNL     1       1.908  -2.017  -2.751  0.00  0.00    +0.178 HD
ENDROOT
BRANCH   1   8
ATOM      5  N   UNL     1       0.002  -0.004   0.002  0.00  0.00    -0.265 N 
ATOM      6  C   UNL     1      -0.616  -0.794   0.914  0.00  0.00    +0.124 A 
ATOM      7  C   UNL     1      -0.365  -2.079   0.566  0.00  0.00    +0.068 A 
ATOM      8  C   UNL     1       0.433  -2.005  -0.601  0.00  0.00    +0.163 A 
ATOM      9  N   UNL     1       0.603  -0.727  -0.874  0.00  0.00    -0.165 NA
ATOM     10 BR   UNL     1      -0.959  -3.641   1.450  0.00  0.00    -0.046 Br
BRANCH   5  11
ATOM     11  C   UNL     1      -0.018   1.461   0.010  0.00  0.00    +0.178 C 
BRANCH  11  17
ATOM     12  C   UNL     1       2.054   2.221   1.192  0.00  0.00    +0.006 A 
ATOM     13  C   UNL     1       3.352   2.694   1.182  0.00  0.00    +0.015 A 
ATOM     14  C   UNL     1       3.990   2.940  -0.020  0.00  0.00    +0.018 A 
ATOM     15  C   UNL     1       3.329   2.707  -1.213  0.00  0.00    +0.015 A 
ATOM     16  C   UNL     1       2.033   2.228  -1.203  0.00  0.00    +0.006 A 
ATOM     17  C   UNL     1       1.396   1.982  -0.001  0.00  0.00    -0.026 A 
ATOM     18 BR   UNL     1       5.764   3.595  -0.034  0.00  0.00    -0.050 Br
ENDBRANCH  11  17
ENDBRANCH   5  11
ENDBRANCH   1   8
BRANCH   3  19
ATOM     19  N   UNL     1       2.231  -4.007  -3.196  0.00  0.00    -0.187 NA
ATOM     20  C   UNL     1       2.954  -3.794  -4.253  0.00  0.00    +0.138 C 
BRANCH  20  21
ATOM     21  C   UNL     1       3.491  -4.933  -5.020  0.00  0.00    -0.002 A 
ATOM     22  C   UNL     1       3.227  -6.242  -4.608  0.00  0.00    +0.013 A 
ATOM     23  C   UNL     1       3.726  -7.305  -5.330  0.00  0.00    +0.050 A 
ATOM     24  C   UNL     1       4.498  -7.080  -6.461  0.00  0.00    +0.166 A 
ATOM     25  C   UNL     1       4.770  -5.777  -6.875  0.00  0.00    +0.167 A 
ATOM     26  C   UNL     1       4.269  -4.706  -6.158  0.00  0.00    +0.059 A 
ATOM     27  O   UNL     1       5.541  -5.828  -8.000  0.00  0.00    -0.453 OA
ATOM     28  C   UNL     1       5.398  -7.169  -8.503  0.00  0.00    +0.466 C 
ATOM     29  O   UNL     1       5.100  -7.946  -7.328  0.00  0.00    -0.453 OA
ENDBRANCH  20  21
ENDBRANCH   3  19
TORSDOF 5
