REMARK  Name = ZINC33834181
REMARK  9 active torsions:
REMARK  status: ('A' for Active; 'I' for Inactive)
REMARK    1  A    between atoms: C_1  and  C_2
REMARK    2  A    between atoms: N_7  and  C_9
REMARK    3  A    between atoms: C_9  and  C_11
REMARK    4  A    between atoms: C_9  and  C_23
REMARK    5  A    between atoms: C_16  and  N_17
REMARK    6  A    between atoms: N_25  and  C_26
REMARK    7  A    between atoms: C_29  and  C_32
REMARK    8  A    between atoms: C_32  and  C_33
REMARK    9  A    between atoms: C_32  and  C_34
REMARK                            x       y       z     vdW  Elec       q    Type
REMARK                         _______ _______ _______ _____ _____    ______ ____
ROOT
ATOM      1  C   UNL     1       3.343  -1.102   0.849  0.00  0.00    +0.053 C 
ENDROOT
BRANCH   1   2
ATOM      2  C   UNL     1       2.314  -1.664   1.795  0.00  0.00    -0.018 A 
ATOM      3  C   UNL     1       2.622  -1.822   3.134  0.00  0.00    +0.054 A 
ATOM      4  C   UNL     1       1.677  -2.337   4.006  0.00  0.00    +0.167 A 
ATOM      5  C   UNL     1       0.417  -2.695   3.531  0.00  0.00    +0.168 A 
ATOM      6  C   UNL     1       0.116  -2.534   2.188  0.00  0.00    +0.082 A 
ATOM      7  C   UNL     1       1.063  -2.014   1.325  0.00  0.00    +0.132 A 
ATOM      8  O   UNL     1      -0.324  -3.171   4.574  0.00  0.00    -0.453 OA
ATOM      9  C   UNL     1       0.626  -3.482   5.610  0.00  0.00    +0.466 C 
ATOM     10  O   UNL     1       1.724  -2.589   5.347  0.00  0.00    -0.453 OA
BRANCH   7  11
ATOM     11  N   UNL     1       0.736  -1.836  -0.108  0.00  0.00    +0.057 N 
ATOM     12  O   UNL     1       0.082  -2.681  -0.693  0.00  0.00    -0.126 OA
ATOM     13  O   UNL     1       1.122  -0.846  -0.703  0.00  0.00    -0.126 OA
ENDBRANCH   7  11
ENDBRANCH   1   2
BRANCH   1  19
ATOM     14  C   UNL     1       8.019  -1.521  -0.619  0.00  0.00    +0.005 C 
ATOM     15  C   UNL     1       6.951  -2.052   0.340  0.00  0.00    -0.031 C 
ATOM     16  C   UNL     1       6.767  -3.556   0.118  0.00  0.00    -0.001 C 
ATOM     17  C   UNL     1       5.656  -4.068   1.038  0.00  0.00    -0.018 C 
ATOM     18  C   UNL     1       4.367  -3.294   0.752  0.00  0.00    -0.077 C 
ATOM     19  N   UNL     1       4.594  -1.861   0.979  0.00  0.00    +0.390 N 
ATOM     20  C   UNL     1       5.625  -1.337   0.074  0.00  0.00    -0.074 C 
ATOM     21  H   UNL     1       4.960  -1.739   2.010  0.00  0.00    -0.080 HD
ENDBRANCH   1  19
BRANCH   1  22
ATOM     22  C   UNL     1       3.597   0.345   1.183  0.00  0.00    +0.208 C 
ATOM     23  O   UNL     1       4.447   0.640   1.996  0.00  0.00    -0.277 OA
ATOM     24  N   UNL     1       2.878   1.312   0.579  0.00  0.00    -0.287 N 
ATOM     25  H   UNL     1       2.192   1.056  -0.242  0.00  0.00    +0.155 HD
BRANCH  24  26
ATOM     26  C   UNL     1       3.005   2.642   0.996  0.00  0.00    +0.033 A 
ATOM     27  C   UNL     1       4.252   3.148   1.338  0.00  0.00    +0.023 A 
ATOM     28  C   UNL     1       4.374   4.463   1.744  0.00  0.00    +0.006 A 
ATOM     29  C   UNL     1       3.255   5.271   1.820  0.00  0.00    -0.045 A 
ATOM     30  C   UNL     1       2.011   4.769   1.485  0.00  0.00    +0.006 A 
ATOM     31  C   UNL     1       1.883   3.457   1.074  0.00  0.00    +0.023 A 
BRANCH  29  32
ATOM     32  C   UNL     1       3.392   6.703   2.270  0.00  0.00    +0.013 C 
ATOM     33  C   UNL     1       3.973   6.741   3.684  0.00  0.00    +0.012 C 
ATOM     34  C   UNL     1       4.324   7.451   1.315  0.00  0.00    +0.012 C 
ENDBRANCH  29  32
ENDBRANCH  24  26
ENDBRANCH   1  22
TORSDOF 6
