REMARK  Name = ZINC05076049
REMARK  5 active torsions:
REMARK  status: ('A' for Active; 'I' for Inactive)
REMARK    1  A    between atoms: C_1  and  C_2
REMARK    2  A    between atoms: C_2  and  C_3
REMARK    3  A    between atoms: C_3  and  C_5
REMARK    4  A    between atoms: C_3  and  S_6
REMARK    5  A    between atoms: S_6  and  C_7
REMARK                            x       y       z     vdW  Elec       q    Type
REMARK                         _______ _______ _______ _____ _____    ______ ____
ROOT
ATOM      1  C   UNL     1       0.774  -0.523  -4.074  0.00  0.00    +0.194 A 
ATOM      2  N   UNL     1       1.941  -1.106  -3.804  0.00  0.00    -0.183 NA
ATOM      3  C   UNL     1       2.762  -1.512  -4.757  0.00  0.00    +0.285 A 
ATOM      4  O   UNL     1       3.940  -2.102  -4.452  0.00  0.00    -0.265 OA
ATOM      5  C   UNL     1       2.376  -1.315  -6.106  0.00  0.00    +0.104 A 
ATOM      6  C   UNL     1       2.928  -1.586  -7.340  0.00  0.00    +0.120 A 
ATOM      7  N   UNL     1       2.072  -1.155  -8.275  0.00  0.00    -0.282 N 
ATOM      8  H   UNL     1       2.213  -1.222  -9.232  0.00  0.00    +0.188 HD
ATOM      9  N   UNL     1       0.943  -0.593  -7.667  0.00  0.00    -0.154 NA
ATOM     10  C   UNL     1       1.079  -0.666  -6.360  0.00  0.00    +0.189 A 
ATOM     11  N   UNL     1       0.335  -0.304  -5.296  0.00  0.00    -0.200 NA
ENDROOT
BRANCH   1  12
ATOM     12  S   UNL     1      -0.239  -0.022  -2.723  0.00  0.00    -0.083 S 
BRANCH  12  13
ATOM     13  C   UNL     1       0.718  -0.497  -1.257  0.00  0.00    +0.051 C 
ATOM     14  C   UNL     1       0.849  -2.021  -1.205  0.00  0.00    +0.019 C 
BRANCH  13  16
ATOM     15  C   UNL     1      -0.019   1.526   0.010  0.00  0.00    +0.005 C 
ATOM     16  C   UNL     1       0.002  -0.004   0.002  0.00  0.00    +0.011 C 
ENDBRANCH  13  16
ENDBRANCH  12  13
ENDBRANCH   1  12
TORSDOF 3
