REMARK  Name = ZINC04212939
REMARK  7 active torsions:
REMARK  status: ('A' for Active; 'I' for Inactive)
REMARK    1  A    between atoms: C_1  and  C_2
REMARK    2  A    between atoms: C_18  and  C_33
REMARK    3  A    between atoms: C_20  and  O_31
REMARK    4  A    between atoms: C_23  and  C_30
REMARK    5  A    between atoms: C_24  and  C_26
REMARK    6  A    between atoms: C_26  and  C_28
REMARK    7  A    between atoms: C_28  and  O_29
REMARK                            x       y       z     vdW  Elec       q    Type
REMARK                         _______ _______ _______ _____ _____    ______ ____
ROOT
ATOM      1  C   UNL     1      -0.470   0.709  -0.404  0.00  0.00    +0.008 C 
ATOM      2  C   UNL     1      -1.089   1.334   0.849  0.00  0.00    -0.003 C 
ATOM      3  C   UNL     1      -0.305   0.883   2.111  0.00  0.00    +0.008 C 
ATOM      4  C   UNL     1      -1.119  -0.316   2.610  0.00  0.00    +0.002 C 
ATOM      5  C   UNL     1      -0.957  -0.659   4.080  0.00  0.00    +0.036 C 
ATOM      6  C   UNL     1       0.486  -1.083   4.360  0.00  0.00    +0.048 C 
ATOM      7  C   UNL     1       0.654  -1.384   5.853  0.00  0.00    +0.194 C 
ATOM      8  C   UNL     1      -0.381  -2.423   6.243  0.00  0.00    -0.020 C 
ATOM      9  C   UNL     1       0.015  -3.512   6.888  0.00  0.00    +0.054 C 
ATOM     10  C   UNL     1      -0.950  -4.568   7.233  0.00  0.00    +0.179 C 
ATOM     11  O   UNL     1      -0.596  -5.557   7.846  0.00  0.00    -0.288 OA
ATOM     12  C   UNL     1      -2.357  -4.393   6.834  0.00  0.00    +0.047 C 
ATOM     13  C   UNL     1      -2.733  -3.286   6.212  0.00  0.00    -0.009 C 
ATOM     14  C   UNL     1      -1.813  -2.162   5.881  0.00  0.00    +0.047 C 
ATOM     15  C   UNL     1      -1.908  -1.826   4.389  0.00  0.00    +0.153 C 
ATOM     16  C   UNL     1      -3.353  -1.483   4.041  0.00  0.00    +0.153 C 
ATOM     17  C   UNL     1      -3.489  -1.009   2.585  0.00  0.00    +0.042 C 
ATOM     18  C   UNL     1      -2.574   0.189   2.416  0.00  0.00    -0.017 C 
ATOM     19  C   UNL     1      -2.542   0.831   1.032  0.00  0.00    +0.067 C 
ATOM     20  C   UNL     1      -2.902   1.245   3.473  0.00  0.00    +0.012 C 
ATOM     21  F   UNL     1      -1.524  -2.944   3.640  0.00  0.00    -0.238 F 
ATOM     22  C   UNL     1      -2.276  -0.932   6.664  0.00  0.00    +0.023 C 
ATOM     23  F   UNL     1       1.938  -1.883   6.093  0.00  0.00    -0.241 F 
ENDROOT
BRANCH  19  24
ATOM     24  C   UNL     1      -3.507   1.987   0.968  0.00  0.00    +0.162 C 
ATOM     25  O   UNL     1      -3.132   3.101   1.245  0.00  0.00    -0.295 OA
BRANCH  24  26
ATOM     26  C   UNL     1      -4.938   1.752   0.560  0.00  0.00    +0.230 C 
BRANCH  26  27
ATOM     27  O   UNL     1      -5.648   2.993   0.577  0.00  0.00    -0.388 OA
ATOM     28  H   UNL     1      -6.578   2.917   0.324  0.00  0.00    +0.210 HD
ENDBRANCH  26  27
ENDBRANCH  24  26
ENDBRANCH  19  24
BRANCH  16  29
ATOM     29  O   UNL     1      -3.809  -0.447   4.913  0.00  0.00    -0.389 OA
ATOM     30  H   UNL     1      -4.723  -0.172   4.753  0.00  0.00    +0.210 HD
ENDBRANCH  16  29
TORSDOF 4
