REMARK  Name = ZINC39489697
REMARK  5 active torsions:
REMARK  status: ('A' for Active; 'I' for Inactive)
REMARK    1  A    between atoms: C_1  and  C_2
REMARK    2  A    between atoms: C_2  and  N_3
REMARK    3  A    between atoms: C_4  and  C_30
REMARK    4  A    between atoms: C_5  and  C_10
REMARK    5  A    between atoms: C_6  and  C_9
REMARK                            x       y       z     vdW  Elec       q    Type
REMARK                         _______ _______ _______ _____ _____    ______ ____
ROOT
ATOM      1  C   UNL     1       0.714  -1.583   4.684  0.00  0.00    +0.075 A 
ATOM      2  C   UNL     1      -0.576  -1.436   5.219  0.00  0.00    +0.048 A 
ATOM      3  C   UNL     1      -0.791  -1.815   6.528  0.00  0.00    +0.116 A 
ATOM      4  N   UNL     1       0.218  -2.303   7.237  0.00  0.00    -0.223 NA
ATOM      5  C   UNL     1       1.426  -2.432   6.709  0.00  0.00    +0.219 A 
ATOM      6  N   UNL     1       1.679  -2.086   5.457  0.00  0.00    -0.215 NA
ATOM      7  N   UNL     1       2.450  -2.945   7.486  0.00  0.00    -0.294 N 
ATOM      8  C   UNL     1       2.209  -3.352   8.879  0.00  0.00    +0.113 C 
ATOM      9  C   UNL     1       2.430  -4.864   9.001  0.00  0.00    +0.056 C 
ATOM     10  C   UNL     1       3.700  -5.234   8.279  0.00  0.00    -0.016 A 
ATOM     11  C   UNL     1       4.489  -6.443   8.412  0.00  0.00    +0.003 A 
ATOM     12  C   UNL     1       4.343  -7.587   9.202  0.00  0.00    +0.010 A 
ATOM     13  C   UNL     1       5.303  -8.560   9.067  0.00  0.00    +0.001 A 
ATOM     14  C   UNL     1       6.369  -8.426   8.194  0.00  0.00    +0.002 A 
ATOM     15  C   UNL     1       6.537  -7.305   7.400  0.00  0.00    +0.026 A 
ATOM     16  C   UNL     1       5.579  -6.301   7.515  0.00  0.00    +0.047 A 
ATOM     17  N   UNL     1       5.441  -5.091   6.897  0.00  0.00    -0.356 N 
ATOM     18  C   UNL     1       4.317  -4.460   7.360  0.00  0.00    +0.038 A 
ATOM     19  H   UNL     1       6.047  -4.733   6.230  0.00  0.00    +0.166 HD
ATOM     20  C   UNL     1       3.808  -3.104   6.938  0.00  0.00    +0.161 C 
ENDROOT
BRANCH   1  23
ATOM     21  N   UNL     1       2.093  -0.766   1.391  0.00  0.00    -0.271 N 
ATOM     22  C   UNL     1       2.191  -1.182   2.691  0.00  0.00    +0.026 C 
ATOM     23  C   UNL     1       0.995  -1.194   3.295  0.00  0.00    +0.014 C 
ATOM     24  C   UNL     1      -0.010  -0.727   2.262  0.00  0.00    +0.103 C 
ATOM     25  N   UNL     1       0.804  -0.468   1.058  0.00  0.00    -0.233 NA
ATOM     26  C   UNL     1      -1.047  -1.819   1.992  0.00  0.00    +0.031 C 
ATOM     27  C   UNL     1       3.482  -1.578   3.360  0.00  0.00    +0.062 C 
ATOM     28  H   UNL     1       0.720   0.493   0.762  0.00  0.00    +0.145 HD
BRANCH  21  30
ATOM     29  C   UNL     1       3.422  -1.970  -0.271  0.00  0.00    +0.026 C 
ATOM     30  C   UNL     1       3.231  -0.649   0.475  0.00  0.00    +0.120 C 
ENDBRANCH  21  30
ENDBRANCH   1  23
TORSDOF 2
