REMARK  Name = ZINC57391867
REMARK  5 active torsions:
REMARK  status: ('A' for Active; 'I' for Inactive)
REMARK    1  A    between atoms: C_1  and  N_2
REMARK    2  A    between atoms: N_2  and  C_3
REMARK    3  A    between atoms: N_15  and  C_16
REMARK    4  A    between atoms: C_16  and  C_18
REMARK    5  A    between atoms: C_16  and  C_28
REMARK                            x       y       z     vdW  Elec       q    Type
REMARK                         _______ _______ _______ _____ _____    ______ ____
ROOT
ATOM      1  C   UNL     1      -0.018   1.461   0.010  0.00  0.00    +0.134 C 
ATOM      2  N   UNL     1       0.002  -0.004   0.002  0.00  0.00    -0.282 N 
ATOM      3  C   UNL     1       0.000  -0.672  -1.169  0.00  0.00    +0.303 C 
ATOM      4  O   UNL     1       0.017  -1.887  -1.175  0.00  0.00    -0.253 OA
ATOM      5  N   UNL     1      -0.020   0.009  -2.332  0.00  0.00    -0.292 N 
ATOM      6  H   UNL     1      -0.033   0.978  -2.327  0.00  0.00    +0.151 HD
ENDROOT
BRANCH   2   7
ATOM      7  C   UNL     1       0.024  -0.743   1.267  0.00  0.00    +0.108 C 
ATOM      8  C   UNL     1       1.263  -0.346   2.098  0.00  0.00    +0.032 C 
ATOM      9  C   UNL     1       0.729  -0.419   3.544  0.00  0.00    +0.037 C 
ATOM     10  C   UNL     1      -0.761  -0.173   3.429  0.00  0.00    -0.042 A 
ATOM     11  C   UNL     1      -1.167  -0.361   2.119  0.00  0.00    -0.024 A 
ATOM     12  C   UNL     1      -2.498  -0.191   1.777  0.00  0.00    +0.006 A 
ATOM     13  C   UNL     1      -3.423   0.165   2.739  0.00  0.00    +0.000 A 
ATOM     14  C   UNL     1      -3.019   0.352   4.048  0.00  0.00    +0.000 A 
ATOM     15  C   UNL     1      -1.688   0.186   4.393  0.00  0.00    +0.004 A 
ENDBRANCH   2   7
BRANCH   5  16
ATOM     16  C   UNL     1      -0.022  -0.717  -3.605  0.00  0.00    +0.108 C 
BRANCH  16  17
ATOM     17  C   UNL     1      -0.645   0.144  -4.673  0.00  0.00    -0.023 A 
ATOM     18  C   UNL     1      -0.365   1.498  -4.718  0.00  0.00    +0.009 A 
ATOM     19  C   UNL     1      -0.935   2.291  -5.696  0.00  0.00    +0.050 A 
ATOM     20  C   UNL     1      -1.789   1.732  -6.635  0.00  0.00    +0.162 A 
ATOM     21  C   UNL     1      -2.068   0.371  -6.591  0.00  0.00    +0.162 A 
ATOM     22  C   UNL     1      -1.489  -0.421  -5.610  0.00  0.00    +0.055 A 
ATOM     23  O   UNL     1      -2.897  -0.200  -7.508  0.00  0.00    -0.485 OA
ATOM     24  C   UNL     1      -3.744   0.685  -8.248  0.00  0.00    +0.270 C 
ATOM     25  C   UNL     1      -2.895   1.868  -8.735  0.00  0.00    +0.270 C 
ATOM     26  O   UNL     1      -2.346   2.527  -7.589  0.00  0.00    -0.485 OA
ENDBRANCH  16  17
BRANCH  16  27
ATOM     27  C   UNL     1       1.416  -1.059  -3.999  0.00  0.00    +0.014 C 
ATOM     28  C   UNL     1       1.722  -2.514  -4.361  0.00  0.00    +0.006 C 
ATOM     29  C   UNL     1       2.223  -1.933  -3.037  0.00  0.00    +0.006 C 
ENDBRANCH  16  27
ENDBRANCH   5  16
TORSDOF 4
