REMARK  Name = ZINC11634156
REMARK  2 active torsions:
REMARK  status: ('A' for Active; 'I' for Inactive)
REMARK    1  A    between atoms: C_10  and  C_11
REMARK    2  A    between atoms: N_17  and  N_18
REMARK                            x       y       z     vdW  Elec       q    Type
REMARK                         _______ _______ _______ _____ _____    ______ ____
ROOT
ATOM      1  C   UNL     1      -2.953   2.872   2.777  0.00  0.00    +0.017 A 
ATOM      2  C   UNL     1      -3.591   3.283   3.964  0.00  0.00    +0.004 A 
ATOM      3  C   UNL     1      -3.680   4.640   4.310  0.00  0.00    +0.059 A 
ATOM      4  C   UNL     1      -4.304   5.008   5.469  0.00  0.00    +0.163 A 
ATOM      5  C   UNL     1      -4.862   4.041   6.317  0.00  0.00    +0.164 A 
ATOM      6  C   UNL     1      -4.789   2.712   6.002  0.00  0.00    +0.077 A 
ATOM      7  C   UNL     1      -4.152   2.304   4.820  0.00  0.00    +0.077 A 
ATOM      8  N   UNL     1      -4.070   1.008   4.495  0.00  0.00    -0.231 NA
ATOM      9  C   UNL     1      -3.478   0.618   3.385  0.00  0.00    +0.136 A 
ATOM     10  C   UNL     1      -2.900   1.538   2.500  0.00  0.00    -0.003 A 
ATOM     11  N   UNL     1      -3.421  -0.737   3.087  0.00  0.00    -0.267 N 
ATOM     12  O   UNL     1      -5.488   4.409   7.468  0.00  0.00    -0.485 OA
ATOM     13  C   UNL     1      -5.220   5.729   7.954  0.00  0.00    +0.270 C 
ATOM     14  C   UNL     1      -5.334   6.707   6.777  0.00  0.00    +0.270 C 
ATOM     15  O   UNL     1      -4.371   6.332   5.787  0.00  0.00    -0.485 OA
ATOM     16  H   UNL     1      -2.903  -1.044   2.326  0.00  0.00    +0.167 HD
ENDROOT
BRANCH  10  17
ATOM     17  C   UNL     1      -2.226   1.055   1.241  0.00  0.00    +0.022 C 
ATOM     18  C   UNL     1      -0.797   1.599   1.186  0.00  0.00    +0.008 C 
ATOM     19  C   UNL     1      -0.114   1.109  -0.091  0.00  0.00    +0.001 C 
ATOM     20  C   UNL     1      -0.895   1.603  -1.310  0.00  0.00    +0.000 C 
ATOM     21  C   UNL     1      -2.324   1.059  -1.255  0.00  0.00    +0.001 C 
ATOM     22  C   UNL     1      -3.008   1.549   0.023  0.00  0.00    +0.008 C 
ENDBRANCH  10  17
BRANCH  11  23
ATOM     23  N   UNL     1      -4.094  -1.636   3.864  0.00  0.00    -0.255 NA
ATOM     24  H   UNL     1      -5.075  -1.407   3.914  0.00  0.00    +0.140 HD
ATOM     25  H   UNL     1      -3.959  -2.577   3.526  0.00  0.00    +0.140 HD
ENDBRANCH  11  23
TORSDOF 2
