REMARK  Name = ZINC26847212
REMARK  6 active torsions:
REMARK  status: ('A' for Active; 'I' for Inactive)
REMARK    1  A    between atoms: C_4  and  C_7
REMARK    2  A    between atoms: C_8  and  S_9
REMARK    3  A    between atoms: S_9  and  N_12
REMARK    4  A    between atoms: C_18  and  C_20
REMARK    5  A    between atoms: C_20  and  S_21
REMARK    6  A    between atoms: S_21  and  C_22
REMARK                            x       y       z     vdW  Elec       q    Type
REMARK                         _______ _______ _______ _____ _____    ______ ____
ROOT
ATOM      1  N   UNL     1       0.663  -0.477  -1.441  0.00  0.00    -0.174 NA
ATOM      2  C   UNL     1      -0.190  -0.709  -2.614  0.00  0.00    +0.128 C 
ATOM      3  C   UNL     1       0.326   0.165  -3.770  0.00  0.00    +0.125 C 
ATOM      4  N   UNL     1       1.776  -0.036  -3.898  0.00  0.00    -0.298 N 
ATOM      5  C   UNL     1       2.629   0.191  -2.723  0.00  0.00    +0.125 C 
ATOM      6  C   UNL     1       2.114  -0.678  -1.569  0.00  0.00    +0.128 C 
ATOM      7  C   UNL     1       2.314  -0.420  -5.072  0.00  0.00    +0.226 C 
ATOM      8  O   UNL     1       3.513  -0.583  -5.166  0.00  0.00    -0.275 OA
ENDROOT
BRANCH   1   9
ATOM      9  S   UNL     1       0.002  -0.004   0.002  0.00  0.00    +0.054 S 
ATOM     10  O   UNL     1       0.913  -0.404   1.017  0.00  0.00    -0.153 OA
ATOM     11  O   UNL     1      -1.354  -0.428  -0.014  0.00  0.00    -0.153 OA
BRANCH   9  13
ATOM     12  C   UNL     1      -1.179   2.405   0.021  0.00  0.00    +0.028 C 
ATOM     13  C   UNL     1      -0.022   1.758   0.012  0.00  0.00    +0.153 C 
BRANCH  12  17
ATOM     14  C   UNL     1      -1.236   6.652   0.044  0.00  0.00    +0.000 A 
ATOM     15  C   UNL     1      -2.427   5.947   0.046  0.00  0.00    +0.001 A 
ATOM     16  C   UNL     1      -2.415   4.567   0.038  0.00  0.00    +0.008 A 
ATOM     17  C   UNL     1      -1.199   3.883   0.029  0.00  0.00    -0.024 A 
ATOM     18  C   UNL     1      -0.002   4.600   0.033  0.00  0.00    +0.008 A 
ATOM     19  C   UNL     1      -0.027   5.979   0.035  0.00  0.00    +0.001 A 
ENDBRANCH  12  17
ENDBRANCH   9  13
ENDBRANCH   1   9
BRANCH   7  20
ATOM     20  C   UNL     1       1.427  -0.649  -6.269  0.00  0.00    +0.171 C 
BRANCH  20  21
ATOM     21  S   UNL     1       2.439  -1.154  -7.682  0.00  0.00    -0.097 S 
BRANCH  21  22
ATOM     22  C   UNL     1       1.184  -1.348  -8.903  0.00  0.00    +0.098 A 
ATOM     23  C   UNL     1       1.544  -1.746 -10.200  0.00  0.00    +0.035 A 
ATOM     24  C   UNL     1       0.585  -1.900 -11.153  0.00  0.00    +0.012 A 
ATOM     25  C   UNL     1      -0.757  -1.650 -10.799  0.00  0.00    +0.000 A 
ATOM     26  C   UNL     1      -1.795  -1.790 -11.732  0.00  0.00    +0.010 A 
ATOM     27  C   UNL     1      -3.080  -1.541 -11.354  0.00  0.00    +0.001 A 
ATOM     28  C   UNL     1      -3.377  -1.148 -10.051  0.00  0.00    +0.002 A 
ATOM     29  C   UNL     1      -2.394  -1.002  -9.121  0.00  0.00    +0.028 A 
ATOM     30  C   UNL     1      -1.057  -1.251  -9.474  0.00  0.00    +0.072 A 
ATOM     31  N   UNL     1      -0.072  -1.120  -8.577  0.00  0.00    -0.240 NA
ENDBRANCH  21  22
ENDBRANCH  20  21
ENDBRANCH   7  20
TORSDOF 6
