REMARK  Name = ZINC60357434
REMARK  6 active torsions:
REMARK  status: ('A' for Active; 'I' for Inactive)
REMARK    1  A    between atoms: C_5  and  C_7
REMARK    2  A    between atoms: C_7  and  S_8
REMARK    3  A    between atoms: S_8  and  N_11
REMARK    4  A    between atoms: N_11  and  C_12
REMARK    5  A    between atoms: C_12  and  C_13
REMARK    6  A    between atoms: N_22  and  C_25
REMARK                            x       y       z     vdW  Elec       q    Type
REMARK                         _______ _______ _______ _____ _____    ______ ____
ROOT
ATOM      1  C   UNL     1       2.382  -6.607   1.263  0.00  0.00    -0.027 A 
ATOM      2  C   UNL     1       2.990  -7.109   2.406  0.00  0.00    +0.022 A 
ATOM      3  C   UNL     1       2.928  -8.464   2.665  0.00  0.00    +0.084 A 
ATOM      4  N   UNL     1       2.300  -9.282   1.842  0.00  0.00    -0.350 N 
ATOM      5  C   UNL     1       1.709  -8.842   0.742  0.00  0.00    +0.099 A 
ATOM      6  C   UNL     1       1.727  -7.488   0.422  0.00  0.00    +0.046 A 
ATOM      7  N   UNL     1       1.059  -9.740  -0.097  0.00  0.00    -0.314 N 
ATOM      8  C   UNL     1       0.293  -9.261  -1.256  0.00  0.00    +0.125 C 
ATOM      9  C   UNL     1       0.823  -9.957  -2.515  0.00  0.00    +0.124 C 
ATOM     10  N   UNL     1       0.890 -11.402  -2.260  0.00  0.00    -0.327 N 
ATOM     11  C   UNL     1       1.656 -11.882  -1.101  0.00  0.00    +0.124 C 
ATOM     12  C   UNL     1       1.131 -11.186   0.156  0.00  0.00    +0.125 C 
ATOM     13  H   UNL     1       2.272 -10.230   2.048  0.00  0.00    +0.166 HD
ENDROOT
BRANCH  10  14
ATOM     14  C   UNL     1       0.237 -12.306  -3.104  0.00  0.00    +0.030 A 
ATOM     15  C   UNL     1       0.198 -13.656  -2.781  0.00  0.00    +0.026 A 
ATOM     16  C   UNL     1      -0.449 -14.546  -3.616  0.00  0.00    +0.040 A 
ATOM     17  C   UNL     1      -1.058 -14.093  -4.774  0.00  0.00    +0.124 A 
ATOM     18  C   UNL     1      -1.021 -12.748  -5.098  0.00  0.00    +0.040 A 
ATOM     19  C   UNL     1      -0.380 -11.853  -4.263  0.00  0.00    +0.026 A 
ATOM     20  F   UNL     1      -1.689 -14.966  -5.590  0.00  0.00    -0.205 F 
ENDBRANCH  10  14
BRANCH   1  21
ATOM     21  C   UNL     1       2.429  -5.134   0.949  0.00  0.00    +0.140 C 
BRANCH  21  22
ATOM     22  N   UNL     1       1.276  -4.467   1.559  0.00  0.00    -0.190 NA
ATOM     23  H   UNL     1       0.526  -4.992   1.879  0.00  0.00    +0.148 HD
BRANCH  22  24
ATOM     24  S   UNL     1       1.254  -2.817   1.702  0.00  0.00    +0.034 S 
ATOM     25  O   UNL     1       2.491  -2.490   2.321  0.00  0.00    -0.158 OA
ATOM     26  O   UNL     1       0.022  -2.526   2.347  0.00  0.00    -0.158 OA
BRANCH  24  27
ATOM     27  C   UNL     1       1.226  -2.202  -0.004  0.00  0.00    +0.223 C 
BRANCH  27  32
ATOM     28  C   UNL     1      -0.022   1.361   0.032  0.00  0.00    +0.000 A 
ATOM     29  C   UNL     1       1.164   2.071   0.024  0.00  0.00    +0.003 A 
ATOM     30  C   UNL     1       2.372   1.399   0.006  0.00  0.00    +0.038 A 
ATOM     31  C   UNL     1       2.393   0.015  -0.002  0.00  0.00    +0.128 A 
ATOM     32  C   UNL     1       1.205  -0.695   0.006  0.00  0.00    +0.010 A 
ATOM     33  C   UNL     1      -0.002  -0.021   0.023  0.00  0.00    +0.008 A 
ATOM     34  F   UNL     1       3.573  -0.643  -0.020  0.00  0.00    -0.205 F 
ENDBRANCH  27  32
ENDBRANCH  24  27
ENDBRANCH  22  24
ENDBRANCH  21  22
ENDBRANCH   1  21
TORSDOF 6
