REMARK  Name = ZINC39570942
REMARK  5 active torsions:
REMARK  status: ('A' for Active; 'I' for Inactive)
REMARK    1  A    between atoms: C_1  and  C_2
REMARK    2  A    between atoms: C_5  and  C_25
REMARK    3  A    between atoms: C_6  and  C_8
REMARK    4  A    between atoms: C_20  and  N_24
REMARK    5  A    between atoms: C_21  and  C_22
REMARK                            x       y       z     vdW  Elec       q    Type
REMARK                         _______ _______ _______ _____ _____    ______ ____
ROOT
ATOM      1  C   UNL     1       0.481  -2.502   2.620  0.00  0.00    +0.085 C 
ATOM      2  C   UNL     1      -0.665  -2.098   3.555  0.00  0.00    +0.171 C 
ATOM      3  C   UNL     1      -1.978  -2.248   2.844  0.00  0.00    +0.233 C 
ATOM      4  O   UNL     1      -2.298  -3.336   2.415  0.00  0.00    -0.274 OA
ATOM      5  N   UNL     1      -2.807  -1.206   2.673  0.00  0.00    -0.238 N 
ATOM      6  C   UNL     1      -2.491   0.019   3.123  0.00  0.00    +0.332 C 
ATOM      7  O   UNL     1      -3.283   0.930   2.968  0.00  0.00    -0.250 OA
ATOM      8  N   UNL     1      -1.325   0.263   3.738  0.00  0.00    -0.131 NA
ATOM      9  C   UNL     1      -0.439  -0.662   3.963  0.00  0.00    +0.204 C 
ATOM     10  O   UNL     1       0.736  -0.369   4.564  0.00  0.00    -0.428 OA
ATOM     11  C   UNL     1       1.839  -0.971   4.067  0.00  0.00    +0.200 C 
ATOM     12  C   UNL     1       1.781  -1.977   3.168  0.00  0.00    +0.095 C 
ATOM     13  H   UNL     1      -3.651  -1.341   2.215  0.00  0.00    +0.159 HD
ENDROOT
BRANCH   1  19
ATOM     14  C   UNL     1       0.055   1.478  -0.385  0.00  0.00    +0.044 C 
ATOM     15  C   UNL     1       0.037  -0.016  -0.187  0.00  0.00    -0.050 A 
ATOM     16  C   UNL     1      -0.199  -0.853  -1.262  0.00  0.00    +0.003 A 
ATOM     17  C   UNL     1      -0.215  -2.223  -1.080  0.00  0.00    +0.004 A 
ATOM     18  C   UNL     1       0.005  -2.756   0.176  0.00  0.00    -0.047 A 
ATOM     19  C   UNL     1       0.242  -1.920   1.250  0.00  0.00    -0.035 A 
ATOM     20  C   UNL     1       0.263  -0.550   1.068  0.00  0.00    +0.008 A 
ATOM     21  C   UNL     1      -0.014  -4.250   0.374  0.00  0.00    +0.044 C 
ENDBRANCH   1  19
BRANCH  11  22
ATOM     22  N   UNL     1       3.071  -0.542   4.495  0.00  0.00    -0.328 N 
ATOM     23  H   UNL     1       3.136   0.179   5.140  0.00  0.00    +0.145 HD
ATOM     24  H   UNL     1       3.876  -0.960   4.152  0.00  0.00    +0.145 HD
ENDBRANCH  11  22
BRANCH  12  25
ATOM     25  C   UNL     1       3.005  -2.569   2.718  0.00  0.00    +0.100 C 
ATOM     26  N   UNL     1       3.975  -3.038   2.361  0.00  0.00    -0.191 NA
ENDBRANCH  12  25
TORSDOF 3
