REMARK  Name = ZINC11663976
REMARK  14 active torsions:
REMARK  status: ('A' for Active; 'I' for Inactive)
REMARK    1  A    between atoms: C_1  and  C_2
REMARK    2  A    between atoms: C_3  and  C_9
REMARK    3  A    between atoms: C_4  and  C_8
REMARK    4  A    between atoms: C_9  and  C_11
REMARK    5  A    between atoms: C_9  and  N_61
REMARK    6  A    between atoms: C_12  and  N_61
REMARK    7  A    between atoms: C_13  and  C_14
REMARK    8  A    between atoms: C_13  and  N_61
REMARK    9  A    between atoms: C_17  and  S_27
REMARK   10  A    between atoms: N_18  and  C_19
REMARK   11  A    between atoms: C_19  and  C_20
REMARK   12  A    between atoms: S_27  and  C_30
REMARK   13  A    between atoms: C_30  and  C_31
REMARK   14  A    between atoms: C_30  and  C_32
REMARK                            x       y       z     vdW  Elec       q    Type
REMARK                         _______ _______ _______ _____ _____    ______ ____
ROOT
ATOM      1  C   UNL     1      -2.122   4.080   1.181  0.00  0.00    +0.024 A 
ATOM      2  C   UNL     1      -1.220   4.114   0.182  0.00  0.00    +0.133 A 
ATOM      3  N   UNL     1      -1.134   5.378  -0.258  0.00  0.00    -0.220 NA
ATOM      4  C   UNL     1      -1.948   6.129   0.431  0.00  0.00    +0.252 A 
ATOM      5  N   UNL     1      -2.588   5.358   1.336  0.00  0.00    -0.311 N 
ENDROOT
BRANCH   4   6
ATOM      6  S   UNL     1      -2.181   7.862   0.212  0.00  0.00    +0.032 S 
ATOM      7  O   UNL     1      -2.772   8.305   1.425  0.00  0.00    -0.166 OA
ATOM      8  O   UNL     1      -0.909   8.350  -0.195  0.00  0.00    -0.166 OA
BRANCH   6   9
ATOM      9  C   UNL     1      -3.369   8.004  -1.151  0.00  0.00    +0.133 C 
ATOM     10  C   UNL     1      -3.688   9.480  -1.398  0.00  0.00    +0.032 C 
ATOM     11  C   UNL     1      -2.768   7.393  -2.418  0.00  0.00    +0.032 C 
ENDBRANCH   6   9
ENDBRANCH   4   6
BRANCH   1  12
ATOM     12  C   UNL     1      -2.542   2.868   1.972  0.00  0.00    -0.022 C 
BRANCH  12  14
ATOM     13  C   UNL     1      -1.931   3.926   4.062  0.00  0.00    -0.095 C 
ATOM     14  N   UNL     1      -1.693   2.766   3.178  0.00  0.00    +0.386 N 
ATOM     15  H   UNL     1      -0.707   2.762   2.892  0.00  0.00    -0.081 HD
BRANCH  14  16
ATOM     16  C   UNL     1      -1.990   1.511   3.899  0.00  0.00    -0.037 C 
ATOM     17  C   UNL     1      -1.666   0.326   2.987  0.00  0.00    -0.008 C 
BRANCH  16  20
ATOM     18  C   UNL     1      -2.935   0.644   6.753  0.00  0.00    +0.065 C 
ATOM     19  C   UNL     1      -1.540   1.068   6.370  0.00  0.00    +0.035 A 
ATOM     20  C   UNL     1      -1.131   1.442   5.136  0.00  0.00    -0.018 A 
ATOM     21  C   UNL     1       0.232   1.749   5.209  0.00  0.00    +0.062 A 
ATOM     22  N   UNL     1       0.624   1.574   6.445  0.00  0.00    -0.179 NA
ATOM     23  N   UNL     1      -0.476   1.140   7.196  0.00  0.00    -0.281 N 
ATOM     24  H   UNL     1      -0.473   0.923   8.172  0.00  0.00    +0.189 HD
ATOM     25  C   UNL     1       1.098   2.206   4.063  0.00  0.00    +0.068 C 
ENDBRANCH  16  20
ENDBRANCH  14  16
ENDBRANCH  12  14
ENDBRANCH   1  12
BRANCH   5  26
ATOM     26  C   UNL     1      -3.592   5.805   2.305  0.00  0.00    +0.162 C 
BRANCH  26  27
ATOM     27  C   UNL     1      -4.970   5.612   1.725  0.00  0.00    +0.007 A 
ATOM     28  C   UNL     1      -5.576   4.371   1.779  0.00  0.00    +0.008 A 
ATOM     29  C   UNL     1      -6.839   4.194   1.248  0.00  0.00    +0.000 A 
ATOM     30  C   UNL     1      -7.500   5.258   0.663  0.00  0.00    +0.003 A 
ATOM     31  C   UNL     1      -6.897   6.500   0.608  0.00  0.00    +0.039 A 
ATOM     32  C   UNL     1      -5.632   6.680   1.143  0.00  0.00    +0.128 A 
ATOM     33  F   UNL     1      -5.044   7.895   1.095  0.00  0.00    -0.205 F 
ENDBRANCH  26  27
ENDBRANCH   5  26
TORSDOF 8
