REMARK  Name = ZINC40127274
REMARK  8 active torsions:
REMARK  status: ('A' for Active; 'I' for Inactive)
REMARK    1  A    between atoms: C_1  and  C_2
REMARK    2  A    between atoms: C_5  and  C_8
REMARK    3  A    between atoms: C_8  and  O_9
REMARK    4  A    between atoms: O_9  and  C_10
REMARK    5  A    between atoms: C_13  and  C_16
REMARK    6  A    between atoms: C_16  and  C_18
REMARK    7  A    between atoms: C_23  and  C_25
REMARK    8  A    between atoms: C_28  and  C_31
REMARK                            x       y       z     vdW  Elec       q    Type
REMARK                         _______ _______ _______ _____ _____    ______ ____
ROOT
ATOM      1  C   UNL     1       2.220 -10.337  -0.092  0.00  0.00    +0.195 C 
ATOM      2  O   UNL     1       1.286 -11.108   0.030  0.00  0.00    -0.287 OA
ENDROOT
BRANCH   1   3
ATOM      3  C   UNL     1       3.589 -10.852  -0.191  0.00  0.00    +0.076 C 
ATOM      4  C   UNL     1       4.106 -11.580  -1.208  0.00  0.00    +0.249 C 
ATOM      5  C   UNL     1       5.519 -11.895  -0.911  0.00  0.00    +0.285 C 
ATOM      6  O   UNL     1       6.257 -12.536  -1.633  0.00  0.00    -0.267 OA
ATOM      7  N   UNL     1       5.867 -11.366   0.276  0.00  0.00    -0.298 N 
ATOM      8  C   UNL     1       4.697 -10.667   0.819  0.00  0.00    +0.142 C 
ATOM      9  O   UNL     1       3.435 -11.960  -2.320  0.00  0.00    -0.282 OA
ATOM     10  H   UNL     1       6.739 -11.431   0.696  0.00  0.00    +0.150 HD
BRANCH   8  11
ATOM     11  C   UNL     1       4.301 -11.277   2.139  0.00  0.00    -0.023 A 
ATOM     12  C   UNL     1       4.487 -12.629   2.360  0.00  0.00    +0.006 A 
ATOM     13  C   UNL     1       4.124 -13.188   3.571  0.00  0.00    +0.004 A 
ATOM     14  C   UNL     1       3.575 -12.395   4.562  0.00  0.00    -0.050 A 
ATOM     15  C   UNL     1       3.390 -11.043   4.341  0.00  0.00    +0.004 A 
ATOM     16  C   UNL     1       3.757 -10.483   3.132  0.00  0.00    +0.006 A 
ATOM     17  C   UNL     1       3.178 -13.005   5.881  0.00  0.00    +0.044 C 
ENDBRANCH   8  11
ENDBRANCH   1   3
BRANCH   1  21
ATOM     18  C   UNL     1       1.511  -6.152  -0.229  0.00  0.00    +0.121 A 
ATOM     19  C   UNL     1       0.439  -7.035  -0.171  0.00  0.00    +0.046 A 
ATOM     20  C   UNL     1       0.664  -8.392  -0.127  0.00  0.00    +0.015 A 
ATOM     21  C   UNL     1       1.973  -8.882  -0.140  0.00  0.00    +0.022 A 
ATOM     22  C   UNL     1       3.049  -7.991  -0.199  0.00  0.00    +0.015 A 
ATOM     23  C   UNL     1       2.814  -6.635  -0.248  0.00  0.00    +0.046 A 
BRANCH  18  24
ATOM     24  O   UNL     1       1.284  -4.814  -0.273  0.00  0.00    -0.487 OA
BRANCH  24  25
ATOM     25  C   UNL     1      -0.079  -4.386  -0.250  0.00  0.00    +0.264 C 
BRANCH  25  30
ATOM     26  C   UNL     1      -0.292   1.385  -0.461  0.00  0.00    +0.044 C 
ATOM     27  C   UNL     1      -0.236  -0.120  -0.406  0.00  0.00    -0.050 A 
ATOM     28  C   UNL     1      -0.244  -0.856  -1.577  0.00  0.00    +0.004 A 
ATOM     29  C   UNL     1      -0.193  -2.236  -1.526  0.00  0.00    +0.007 A 
ATOM     30  C   UNL     1      -0.134  -2.881  -0.305  0.00  0.00    -0.010 A 
ATOM     31  C   UNL     1      -0.125  -2.146   0.865  0.00  0.00    +0.007 A 
ATOM     32  C   UNL     1      -0.172  -0.765   0.815  0.00  0.00    +0.004 A 
ENDBRANCH  25  30
ENDBRANCH  24  25
ENDBRANCH  18  24
ENDBRANCH   1  21
TORSDOF 6
