REMARK  Name = ZINC29223475
REMARK  11 active torsions:
REMARK  status: ('A' for Active; 'I' for Inactive)
REMARK    1  A    between atoms: C_1  and  C_2
REMARK    2  A    between atoms: C_2  and  C_3
REMARK    3  A    between atoms: C_3  and  N_4
REMARK    4  A    between atoms: C_5  and  C_7
REMARK    5  A    between atoms: C_7  and  N_8
REMARK    6  A    between atoms: C_11  and  N_14
REMARK    7  A    between atoms: C_15  and  C_17
REMARK    8  A    between atoms: N_20  and  C_25
REMARK    9  A    between atoms: C_21  and  C_22
REMARK   10  A    between atoms: C_22  and  C_23
REMARK   11  A    between atoms: C_22  and  C_24
REMARK                            x       y       z     vdW  Elec       q    Type
REMARK                         _______ _______ _______ _____ _____    ______ ____
ROOT
ATOM      1  N   UNL     1      -1.541   2.475  -0.872  0.00  0.00    -0.309 N 
ATOM      2  C   UNL     1      -0.333   2.829  -0.391  0.00  0.00    +0.248 C 
ATOM      3  O   UNL     1      -0.093   3.996  -0.147  0.00  0.00    -0.270 OA
ATOM      4  H   UNL     1      -1.758   1.420  -1.092  0.00  0.00    +0.149 HD
ENDROOT
BRANCH   1   8
ATOM      5  N   UNL     1      -5.350   4.264  -1.092  0.00  0.00    +0.385 N 
ATOM      6  C   UNL     1      -4.647   4.052  -2.364  0.00  0.00    -0.076 C 
ATOM      7  C   UNL     1      -3.546   3.008  -2.172  0.00  0.00    +0.004 C 
ATOM      8  C   UNL     1      -2.566   3.497  -1.102  0.00  0.00    +0.070 C 
ATOM      9  C   UNL     1      -3.331   3.756   0.199  0.00  0.00    +0.004 C 
ATOM     10  C   UNL     1      -4.439   4.779  -0.061  0.00  0.00    -0.076 C 
ATOM     11  H   UNL     1      -5.726   3.288  -0.750  0.00  0.00    -0.081 HD
BRANCH   5  12
ATOM     12  C   UNL     1      -6.503   5.157  -1.270  0.00  0.00    +0.019 C 
BRANCH  12  14
ATOM     13  N   UNL     1      -8.633   5.151  -2.526  0.00  0.00    -0.317 N 
ATOM     14  C   UNL     1      -7.542   4.473  -2.121  0.00  0.00    +0.196 C 
ATOM     15  O   UNL     1      -7.395   3.312  -2.441  0.00  0.00    -0.278 OA
ATOM     16  H   UNL     1      -8.767   6.203  -2.236  0.00  0.00    +0.149 HD
BRANCH  13  17
ATOM     17  C   UNL     1      -9.643   4.486  -3.354  0.00  0.00    +0.104 C 
BRANCH  17  19
ATOM     18  C   UNL     1     -11.825   4.776  -4.537  0.00  0.00    +0.005 C 
ATOM     19  C   UNL     1     -10.770   5.470  -3.673  0.00  0.00    +0.015 C 
ENDBRANCH  17  19
ENDBRANCH  13  17
ENDBRANCH  12  14
ENDBRANCH   5  12
ENDBRANCH   1   8
BRANCH   2  20
ATOM     20  C   UNL     1       0.698   1.801  -0.160  0.00  0.00    +0.078 A 
ATOM     21  C   UNL     1       0.533   0.404  -0.292  0.00  0.00    +0.148 A 
ATOM     22  N   UNL     1       1.672  -0.166  -0.008  0.00  0.00    -0.174 NA
ATOM     23  N   UNL     1       2.607   0.824   0.315  0.00  0.00    -0.236 N 
ATOM     24  C   UNL     1       2.006   2.024   0.220  0.00  0.00    +0.060 A 
BRANCH  23  25
ATOM     25  C   UNL     1       3.944   0.603   0.675  0.00  0.00    +0.066 A 
ATOM     26  C   UNL     1       4.935   1.470   0.234  0.00  0.00    +0.029 A 
ATOM     27  C   UNL     1       6.250   1.252   0.594  0.00  0.00    +0.022 A 
ATOM     28  C   UNL     1       6.582   0.166   1.384  0.00  0.00    +0.041 A 
ATOM     29  C   UNL     1       5.597  -0.703   1.820  0.00  0.00    +0.022 A 
ATOM     30  C   UNL     1       4.279  -0.487   1.467  0.00  0.00    +0.029 A 
ATOM     31 CL   UNL     1       8.238  -0.109   1.829  0.00  0.00    -0.084 Cl
ENDBRANCH  23  25
BRANCH  24  32
ATOM     32  C   UNL     1       2.644   3.364   0.481  0.00  0.00    +0.032 C 
ATOM     33  C   UNL     1       2.514   4.242  -0.766  0.00  0.00    +0.014 C 
ATOM     34  C   UNL     1       1.942   4.043   1.658  0.00  0.00    +0.014 C 
ENDBRANCH  24  32
ENDBRANCH   2  20
TORSDOF 8
