REMARK  Name = ZINC11976539
REMARK  9 active torsions:
REMARK  status: ('A' for Active; 'I' for Inactive)
REMARK    1  A    between atoms: C_1  and  C_2
REMARK    2  A    between atoms: C_2  and  C_3
REMARK    3  A    between atoms: C_3  and  C_22
REMARK    4  A    between atoms: N_6  and  C_10
REMARK    5  A    between atoms: C_10  and  C_11
REMARK    6  A    between atoms: C_27  and  C_28
REMARK    7  A    between atoms: C_27  and  N_70
REMARK    8  A    between atoms: C_30  and  C_35
REMARK    9  A    between atoms: C_33  and  C_34
REMARK                            x       y       z     vdW  Elec       q    Type
REMARK                         _______ _______ _______ _____ _____    ______ ____
ROOT
ATOM      1  C   UNL     1       0.226   5.626  -1.129  0.00  0.00    +0.115 C 
ATOM      2  C   UNL     1       1.579   6.295  -0.983  0.00  0.00    +0.247 C 
ATOM      3  O   UNL     1       2.501   6.261  -1.770  0.00  0.00    -0.273 OA
ATOM      4  N   UNL     1       1.543   6.933   0.203  0.00  0.00    -0.221 N 
ATOM      5  C   UNL     1       0.369   6.763   0.820  0.00  0.00    +0.309 C 
ATOM      6  O   UNL     1       0.099   7.243   1.904  0.00  0.00    -0.252 OA
ATOM      7  N   UNL     1      -0.481   6.001   0.108  0.00  0.00    -0.285 N 
ATOM      8  H   UNL     1      -1.382   5.747   0.360  0.00  0.00    +0.151 HD
ENDROOT
BRANCH   1   9
ATOM      9  C   UNL     1       0.384   4.107  -1.220  0.00  0.00    +0.018 C 
ATOM     10  C   UNL     1       1.172   3.601  -0.010  0.00  0.00    -0.013 C 
ATOM     11  C   UNL     1       1.275   2.075  -0.076  0.00  0.00    -0.078 C 
ATOM     12  C   UNL     1      -0.833   1.927  -1.262  0.00  0.00    -0.078 C 
ATOM     13  C   UNL     1      -0.999   3.448  -1.231  0.00  0.00    -0.013 C 
ATOM     14  N   UNL     1      -0.087   1.501  -0.058  0.00  0.00    +0.382 N 
ATOM     15  H   UNL     1      -0.580   1.840   0.776  0.00  0.00    -0.081 HD
BRANCH  14  16
ATOM     16  C   UNL     1      -0.012   0.027  -0.006  0.00  0.00    -0.043 C 
BRANCH  16  17
ATOM     17  C   UNL     1      -1.367  -0.512   0.376  0.00  0.00    -0.061 A 
ATOM     18  C   UNL     1      -2.156  -1.134  -0.573  0.00  0.00    +0.005 A 
ATOM     19  C   UNL     1      -3.397  -1.633  -0.222  0.00  0.00    -0.050 A 
ATOM     20  C   UNL     1      -3.852  -1.501   1.077  0.00  0.00    +0.003 A 
ATOM     21  C   UNL     1      -3.064  -0.874   2.025  0.00  0.00    +0.004 A 
ATOM     22  C   UNL     1      -1.822  -0.380   1.674  0.00  0.00    -0.049 A 
ATOM     23  C   UNL     1      -0.964   0.303   2.708  0.00  0.00    +0.044 C 
ATOM     24  C   UNL     1      -4.255  -2.316  -1.255  0.00  0.00    +0.044 C 
ENDBRANCH  16  17
ENDBRANCH  14  16
ENDBRANCH   1   9
BRANCH   1  26
ATOM     25  C   UNL     1      -0.658   7.683  -2.240  0.00  0.00    +0.006 C 
ATOM     26  C   UNL     1      -0.514   6.164  -2.356  0.00  0.00    +0.032 C 
ENDBRANCH   1  26
BRANCH   4  27
ATOM     27  C   UNL     1       2.654   7.716   0.750  0.00  0.00    +0.166 C 
BRANCH  27  28
ATOM     28  C   UNL     1       3.554   6.808   1.590  0.00  0.00    +0.229 C 
ATOM     29  C   UNL     1       4.656   7.643   2.255  0.00  0.00    +0.275 C 
ATOM     30  O   UNL     1       5.486   6.763   3.021  0.00  0.00    -0.485 OA
ATOM     31  C   UNL     1       5.880   5.610   2.413  0.00  0.00    +0.162 A 
ATOM     32  C   UNL     1       6.949   4.897   2.933  0.00  0.00    +0.049 A 
ATOM     33  C   UNL     1       7.359   3.724   2.328  0.00  0.00    +0.004 A 
ATOM     34  C   UNL     1       6.704   3.258   1.203  0.00  0.00    +0.004 A 
ATOM     35  C   UNL     1       5.638   3.964   0.679  0.00  0.00    +0.049 A 
ATOM     36  C   UNL     1       5.223   5.144   1.280  0.00  0.00    +0.163 A 
ATOM     37  O   UNL     1       4.176   5.832   0.748  0.00  0.00    -0.480 OA
ENDBRANCH  27  28
ENDBRANCH   4  27
TORSDOF 6
