REMARK  Name = ZINC39711330
REMARK  12 active torsions:
REMARK  status: ('A' for Active; 'I' for Inactive)
REMARK    1  A    between atoms: C_1  and  C_2
REMARK    2  A    between atoms: C_2  and  C_3
REMARK    3  A    between atoms: C_2  and  C_4
REMARK    4  A    between atoms: C_2  and  N_5
REMARK    5  A    between atoms: C_6  and  C_11
REMARK    6  A    between atoms: C_11  and  C_13
REMARK    7  A    between atoms: C_11  and  N_27
REMARK    8  A    between atoms: C_18  and  O_25
REMARK    9  A    between atoms: O_25  and  C_26
REMARK   10  A    between atoms: N_30  and  C_33
REMARK   11  A    between atoms: C_38  and  O_39
REMARK   12  A    between atoms: O_39  and  C_40
REMARK                            x       y       z     vdW  Elec       q    Type
REMARK                         _______ _______ _______ _____ _____    ______ ____
ROOT
ATOM      1  C   UNL     1      -1.541   0.179  -1.936  0.00  0.00    -0.009 C 
ENDROOT
BRANCH   1   2
ATOM      2  C   UNL     1      -0.626   1.396  -2.086  0.00  0.00    +0.088 C 
ATOM      3  C   UNL     1      -1.390   2.615  -1.607  0.00  0.00    -0.006 C 
ATOM      4  C   UNL     1      -1.554   3.638  -2.493  0.00  0.00    -0.004 A 
ATOM      5  C   UNL     1      -2.279   4.850  -2.113  0.00  0.00    +0.055 A 
ATOM      6  C   UNL     1      -2.418   5.847  -3.031  0.00  0.00    +0.121 A 
ATOM      7  C   UNL     1      -1.882   5.729  -4.319  0.00  0.00    +0.047 A 
ATOM      8  C   UNL     1      -1.199   4.629  -4.729  0.00  0.00    +0.027 A 
ATOM      9  C   UNL     1      -1.001   3.543  -3.856  0.00  0.00    +0.041 A 
ATOM     10  N   UNL     1      -0.329   2.469  -4.272  0.00  0.00    -0.285 N 
ATOM     11  C   UNL     1      -0.107   1.415  -3.506  0.00  0.00    +0.223 C 
ATOM     12  O   UNL     1       0.513   0.464  -3.942  0.00  0.00    -0.275 OA
ATOM     13  H   UNL     1       0.013   2.461  -5.180  0.00  0.00    +0.155 HD
BRANCH   6  14
ATOM     14  O   UNL     1      -3.090   6.978  -2.690  0.00  0.00    -0.495 OA
ATOM     15  C   UNL     1      -3.206   7.991  -3.692  0.00  0.00    +0.277 C 
ENDBRANCH   6  14
ENDBRANCH   1   2
BRANCH   1  16
ATOM     16  N   UNL     1      -2.422   0.082  -3.108  0.00  0.00    +0.387 N 
ATOM     17  C   UNL     1      -3.195  -1.164  -3.035  0.00  0.00    -0.059 C 
ATOM     18  C   UNL     1      -4.028  -1.322  -4.311  0.00  0.00    +0.086 C 
ATOM     19  N   UNL     1      -4.845  -0.111  -4.488  0.00  0.00    -0.331 N 
ATOM     20  C   UNL     1      -4.173   1.195  -4.411  0.00  0.00    +0.086 C 
ATOM     21  C   UNL     1      -3.332   1.234  -3.130  0.00  0.00    -0.059 C 
ATOM     22  H   UNL     1      -1.863   0.080  -3.948  0.00  0.00    -0.081 HD
BRANCH  19  23
ATOM     23  C   UNL     1      -6.222  -0.200  -4.723  0.00  0.00    +0.072 A 
ATOM     24  C   UNL     1      -7.110  -0.203  -3.658  0.00  0.00    +0.027 A 
ATOM     25  C   UNL     1      -8.470  -0.290  -3.893  0.00  0.00    +0.002 A 
ATOM     26  C   UNL     1      -8.947  -0.373  -5.187  0.00  0.00    +0.004 A 
ATOM     27  C   UNL     1      -8.067  -0.371  -6.254  0.00  0.00    +0.047 A 
ATOM     28  C   UNL     1      -6.704  -0.279  -6.028  0.00  0.00    +0.141 A 
BRANCH  28  29
ATOM     29  O   UNL     1      -5.838  -0.271  -7.076  0.00  0.00    -0.493 OA
ATOM     30  C   UNL     1      -6.403  -0.355  -8.386  0.00  0.00    +0.277 C 
ENDBRANCH  28  29
ENDBRANCH  19  23
ENDBRANCH   1  16
BRANCH   1  32
ATOM     31  N   UNL     1       0.145  -1.049  -0.613  0.00  0.00    -0.183 NA
ATOM     32  C   UNL     1      -0.691  -1.089  -1.831  0.00  0.00    +0.205 C 
ATOM     33  N   UNL     1       0.273  -1.156  -2.938  0.00  0.00    -0.152 NA
ATOM     34  N   UNL     1       1.415  -1.156  -2.473  0.00  0.00    -0.070 NA
ATOM     35  N   UNL     1       1.433  -1.094  -1.080  0.00  0.00    -0.179 N 
ATOM     36  H   UNL     1       2.231  -1.083  -0.528  0.00  0.00    +0.191 HD
BRANCH  31  38
ATOM     37  C   UNL     1       0.924   1.246  -0.260  0.00  0.00    +0.029 C 
ATOM     38  C   UNL     1      -0.096   0.182   0.151  0.00  0.00    +0.035 C 
ATOM     39  C   UNL     1       0.047  -0.110   1.646  0.00  0.00    +0.029 C 
ATOM     40  C   UNL     1      -1.509   0.692  -0.136  0.00  0.00    +0.029 C 
ENDBRANCH  31  38
ENDBRANCH   1  32
TORSDOF 7
