REMARK  Name = ZINC36309249
REMARK  16 active torsions:
REMARK  status: ('A' for Active; 'I' for Inactive)
REMARK    1  A    between atoms: C_1  and  C_2
REMARK    2  A    between atoms: C_2  and  C_3
REMARK    3  A    between atoms: C_2  and  C_4
REMARK    4  A    between atoms: C_7  and  O_10
REMARK    5  A    between atoms: O_10  and  C_11
REMARK    6  A    between atoms: C_11  and  C_12
REMARK    7  A    between atoms: C_22  and  C_24
REMARK    8  A    between atoms: C_24  and  N_25
REMARK    9  A    between atoms: N_25  and  C_26
REMARK   10  A    between atoms: N_25  and  C_30
REMARK   11  A    between atoms: C_26  and  C_27
REMARK   12  A    between atoms: C_30  and  C_31
REMARK   13  A    between atoms: C_31  and  C_33
REMARK   14  A    between atoms: C_31  and  O_37
REMARK   15  A    between atoms: C_33  and  C_34
REMARK   16  A    between atoms: C_34  and  C_35
REMARK                            x       y       z     vdW  Elec       q    Type
REMARK                         _______ _______ _______ _____ _____    ______ ____
ROOT
ATOM      1  C   UNL     1      -7.386  -3.403  -1.750  0.00  0.00    +0.144 C 
ATOM      2  C   UNL     1      -8.462  -2.358  -2.043  0.00  0.00    -0.014 A 
ATOM      3  C   UNL     1      -8.543  -1.664  -3.249  0.00  0.00    +0.013 A 
ATOM      4  C   UNL     1      -9.521  -0.749  -3.438  0.00  0.00    +0.046 A 
ATOM      5  S   UNL     1     -10.400  -0.824  -1.885  0.00  0.00    -0.101 S 
ATOM      6  C   UNL     1      -9.403  -2.066  -1.105  0.00  0.00    -0.004 A 
ATOM      7  C   UNL     1      -9.557  -2.660   0.257  0.00  0.00    +0.061 C 
ATOM      8  C   UNL     1      -8.253  -3.380   0.631  0.00  0.00    +0.113 C 
ATOM      9  N   UNL     1      -7.789  -4.137  -0.542  0.00  0.00    -0.292 N 
ATOM     10  C   UNL     1      -7.735  -5.483  -0.512  0.00  0.00    +0.200 C 
ATOM     11  O   UNL     1      -7.353  -6.097  -1.485  0.00  0.00    -0.278 OA
ENDROOT
BRANCH   1  12
ATOM     12  C   UNL     1      -6.043  -2.710  -1.511  0.00  0.00    +0.256 C 
BRANCH  12  13
ATOM     13  O   UNL     1      -6.191  -1.725  -0.486  0.00  0.00    -0.490 OA
BRANCH  13  17
ATOM     14  C   UNL     1      -2.827   0.435   0.534  0.00  0.00    -0.045 A 
ATOM     15  C   UNL     1      -4.026   0.681   1.176  0.00  0.00    +0.007 A 
ATOM     16  C   UNL     1      -5.154  -0.041   0.837  0.00  0.00    +0.046 A 
ATOM     17  C   UNL     1      -5.083  -1.013  -0.150  0.00  0.00    +0.121 A 
ATOM     18  C   UNL     1      -3.878  -1.258  -0.794  0.00  0.00    +0.046 A 
ATOM     19  C   UNL     1      -2.754  -0.529  -0.454  0.00  0.00    +0.007 A 
BRANCH  14  21
ATOM     20  C   UNL     1      -1.855   2.713   0.665  0.00  0.00    +0.012 C 
ATOM     21  C   UNL     1      -1.598   1.224   0.907  0.00  0.00    +0.013 C 
ATOM     22  C   UNL     1      -1.275   0.995   2.385  0.00  0.00    +0.012 C 
ENDBRANCH  14  21
ENDBRANCH  13  17
ENDBRANCH  12  13
ENDBRANCH   1  12
BRANCH  10  23
ATOM     23  C   UNL     1      -8.151  -6.225   0.732  0.00  0.00    +0.019 C 
BRANCH  23  24
ATOM     24  N   UNL     1      -8.070  -7.672   0.489  0.00  0.00    +0.387 N 
ATOM     25  H   UNL     1      -8.586  -7.902  -0.347  0.00  0.00    -0.081 HD
BRANCH  24  26
ATOM     26  C   UNL     1      -8.644  -8.393   1.633  0.00  0.00    -0.075 C 
BRANCH  26  27
ATOM     27  C   UNL     1     -10.119  -8.018   1.784  0.00  0.00    -0.028 C 
ATOM     28  C   UNL     1     -10.525  -7.239   3.037  0.00  0.00    +0.002 C 
ATOM     29  C   UNL     1     -10.914  -8.711   2.893  0.00  0.00    +0.002 C 
ENDBRANCH  26  27
ENDBRANCH  24  26
BRANCH  24  30
ATOM     30  C   UNL     1      -6.664  -8.062   0.320  0.00  0.00    -0.046 C 
BRANCH  30  31
ATOM     31  C   UNL     1      -6.590  -9.528  -0.111  0.00  0.00    +0.098 C 
BRANCH  31  32
ATOM     32  O   UNL     1      -7.004 -10.364   0.971  0.00  0.00    -0.394 OA
ATOM     33  H   UNL     1      -6.463 -10.273   1.768  0.00  0.00    +0.210 HD
ENDBRANCH  31  32
BRANCH  31  34
ATOM     34  C   UNL     1      -5.151  -9.873  -0.500  0.00  0.00    +0.033 C 
BRANCH  34  35
ATOM     35  C   UNL     1      -5.100 -11.301  -1.049  0.00  0.00    +0.029 C 
BRANCH  35  36
ATOM     36  C   UNL     1      -3.683 -11.641  -1.432  0.00  0.00    -0.034 C 
ATOM     37  C   UNL     1      -3.105 -12.705  -0.930  0.00  0.00    +0.004 C 
ENDBRANCH  35  36
ENDBRANCH  34  35
ENDBRANCH  31  34
ENDBRANCH  30  31
ENDBRANCH  24  30
ENDBRANCH  23  24
ENDBRANCH  10  23
TORSDOF 14
