REMARK  Name = ZINC27796102
REMARK  13 active torsions:
REMARK  status: ('A' for Active; 'I' for Inactive)
REMARK    1  A    between atoms: C_1  and  C_2
REMARK    2  A    between atoms: C_5  and  C_17
REMARK    3  A    between atoms: N_8  and  C_10
REMARK    4  A    between atoms: C_17  and  O_19
REMARK    5  A    between atoms: O_19  and  C_20
REMARK    6  A    between atoms: C_20  and  C_21
REMARK    7  A    between atoms: N_23  and  C_24
REMARK    8  A    between atoms: N_23  and  C_25
REMARK    9  A    between atoms: C_25  and  C_26
REMARK   10  A    between atoms: N_28  and  C_29
REMARK   11  A    between atoms: C_29  and  C_30
REMARK   12  A    between atoms: C_29  and  C_31
REMARK   13  A    between atoms: C_29  and  C_32
REMARK                            x       y       z     vdW  Elec       q    Type
REMARK                         _______ _______ _______ _____ _____    ______ ____
ROOT
ATOM      1  C   UNL     1       7.136   2.412  -2.461  0.00  0.00    +0.346 C 
ATOM      2  O   UNL     1       8.159   1.756  -2.421  0.00  0.00    -0.244 OA
ENDROOT
BRANCH   1   7
ATOM      3  C   UNL     1       4.584  -1.694   0.919  0.00  0.00    +0.068 C 
ATOM      4  C   UNL     1       3.911  -0.450   0.400  0.00  0.00    +0.069 A 
ATOM      5  C   UNL     1       4.530   0.548  -0.422  0.00  0.00    +0.031 A 
ATOM      6  C   UNL     1       5.773   0.813  -1.016  0.00  0.00    +0.034 A 
ATOM      7  C   UNL     1       5.938   1.945  -1.760  0.00  0.00    +0.099 A 
ATOM      8  S   UNL     1       4.331   2.714  -1.664  0.00  0.00    -0.062 S 
ATOM      9  C   UNL     1       3.525   1.499  -0.653  0.00  0.00    +0.113 A 
ATOM     10  N   UNL     1       2.404   1.105  -0.015  0.00  0.00    -0.225 N 
ATOM     11  N   UNL     1       2.678  -0.110   0.626  0.00  0.00    -0.170 NA
BRANCH  10  12
ATOM     12  C   UNL     1       1.180   1.787   0.000  0.00  0.00    +0.067 A 
ATOM     13  C   UNL     1      -0.013   1.076   0.008  0.00  0.00    +0.029 A 
ATOM     14  C   UNL     1      -1.218   1.751   0.017  0.00  0.00    +0.022 A 
ATOM     15  C   UNL     1      -1.237   3.134   0.030  0.00  0.00    +0.041 A 
ATOM     16  C   UNL     1      -0.050   3.845   0.023  0.00  0.00    +0.022 A 
ATOM     17  C   UNL     1       1.158   3.175   0.008  0.00  0.00    +0.029 A 
ATOM     18 CL   UNL     1      -2.753   3.979   0.049  0.00  0.00    -0.084 Cl
ENDBRANCH  10  12
ENDBRANCH   1   7
BRANCH   1  19
ATOM     19  O   UNL     1       7.104   3.570  -3.152  0.00  0.00    -0.451 OA
BRANCH  19  20
ATOM     20  C   UNL     1       8.328   3.972  -3.822  0.00  0.00    +0.328 C 
BRANCH  20  21
ATOM     21  C   UNL     1       8.103   5.280  -4.536  0.00  0.00    +0.253 C 
ATOM     22  O   UNL     1       7.019   5.820  -4.485  0.00  0.00    -0.272 OA
ATOM     23  N   UNL     1       9.108   5.849  -5.232  0.00  0.00    -0.293 N 
ATOM     24  C   UNL     1      10.418   5.196  -5.294  0.00  0.00    +0.132 C 
BRANCH  23  25
ATOM     25  C   UNL     1       8.890   7.120  -5.926  0.00  0.00    +0.203 C 
BRANCH  25  26
ATOM     26  C   UNL     1       9.222   8.261  -5.000  0.00  0.00    +0.231 C 
ATOM     27  O   UNL     1       9.603   8.035  -3.871  0.00  0.00    -0.274 OA
ATOM     28  N   UNL     1       9.095   9.534  -5.426  0.00  0.00    -0.309 N 
ATOM     29  H   UNL     1       8.749   9.739  -6.449  0.00  0.00    +0.149 HD
BRANCH  28  30
ATOM     30  C   UNL     1       9.418  10.643  -4.525  0.00  0.00    +0.026 C 
ATOM     31  C   UNL     1      10.882  10.542  -4.095  0.00  0.00    +0.031 C 
ATOM     32  C   UNL     1       9.190  11.971  -5.250  0.00  0.00    +0.031 C 
ATOM     33  C   UNL     1       8.518  10.576  -3.290  0.00  0.00    +0.031 C 
ENDBRANCH  28  30
ENDBRANCH  25  26
ENDBRANCH  23  25
ENDBRANCH  20  21
ENDBRANCH  19  20
ENDBRANCH   1  19
TORSDOF 8
