REMARK  Name = ZINC49115017
REMARK  10 active torsions:
REMARK  status: ('A' for Active; 'I' for Inactive)
REMARK    1  A    between atoms: C_1  and  C_2
REMARK    2  A    between atoms: C_7  and  C_17
REMARK    3  A    between atoms: C_9  and  C_10
REMARK    4  A    between atoms: C_9  and  O_16
REMARK    5  A    between atoms: C_18  and  C_20
REMARK    6  A    between atoms: N_23  and  C_35
REMARK    7  A    between atoms: C_25  and  C_27
REMARK    8  A    between atoms: C_35  and  C_36
REMARK    9  A    between atoms: C_35  and  C_37
REMARK   10  A    between atoms: C_35  and  C_38
REMARK                            x       y       z     vdW  Elec       q    Type
REMARK                         _______ _______ _______ _____ _____    ______ ____
ROOT
ATOM      1  C   UNL     1       0.783   0.490   0.153  0.00  0.00    +0.012 C 
ATOM      2  C   UNL     1       0.584  -1.024   0.086  0.00  0.00    +0.041 C 
ATOM      3  C   UNL     1      -0.897  -1.375   0.182  0.00  0.00    +0.114 C 
ATOM      4  N   UNL     1      -1.339  -1.280   1.578  0.00  0.00    -0.301 N 
ATOM      5  C   UNL     1      -0.620  -2.075   2.580  0.00  0.00    +0.114 C 
ATOM      6  C   UNL     1       0.867  -1.745   2.533  0.00  0.00    +0.041 C 
ATOM      7  C   UNL     1       1.428  -1.748   1.121  0.00  0.00    +0.116 C 
ATOM      8  C   UNL     1       1.149  -0.425   3.249  0.00  0.00    +0.012 C 
ATOM      9  C   UNL     1      -2.379  -0.497   1.926  0.00  0.00    +0.217 C 
ATOM     10  O   UNL     1      -2.966   0.142   1.079  0.00  0.00    -0.275 OA
ENDROOT
BRANCH   7  11
ATOM     11  C   UNL     1       2.798  -1.121   1.147  0.00  0.00    +0.073 A 
ATOM     12  C   UNL     1       3.913  -1.905   0.916  0.00  0.00    +0.026 A 
ATOM     13  C   UNL     1       5.168  -1.318   0.943  0.00  0.00    +0.003 A 
ATOM     14  C   UNL     1       5.256   0.042   1.201  0.00  0.00    +0.020 A 
ATOM     15  C   UNL     1       4.097   0.761   1.423  0.00  0.00    +0.111 A 
ATOM     16  N   UNL     1       2.919   0.171   1.385  0.00  0.00    -0.257 NA
ENDBRANCH   7  11
BRANCH   9  17
ATOM     17  C   UNL     1      -2.812  -0.417   3.367  0.00  0.00    +0.064 C 
ATOM     18  C   UNL     1      -3.292  -1.799   3.860  0.00  0.00    -0.065 C 
ATOM     19  N   UNL     1      -4.766  -1.772   3.675  0.00  0.00    +0.384 N 
ATOM     20  C   UNL     1      -5.158  -0.395   4.073  0.00  0.00    -0.069 C 
ATOM     21  C   UNL     1      -4.038   0.509   3.507  0.00  0.00    +0.015 C 
ATOM     22  H   UNL     1      -5.004  -1.941   2.710  0.00  0.00    -0.081 HD
BRANCH  21  23
ATOM     23  C   UNL     1      -3.737   1.634   4.464  0.00  0.00    -0.010 A 
ATOM     24  C   UNL     1      -3.389   1.354   5.772  0.00  0.00    +0.009 A 
ATOM     25  C   UNL     1      -3.112   2.385   6.650  0.00  0.00    +0.039 A 
ATOM     26  C   UNL     1      -3.184   3.699   6.220  0.00  0.00    +0.126 A 
ATOM     27  C   UNL     1      -3.533   3.981   4.911  0.00  0.00    +0.077 A 
ATOM     28  C   UNL     1      -3.804   2.947   4.031  0.00  0.00    +0.129 A 
ATOM     29  F   UNL     1      -4.140   3.220   2.751  0.00  0.00    -0.205 F 
ATOM     30  F   UNL     1      -2.915   4.707   7.079  0.00  0.00    -0.205 F 
ENDBRANCH  21  23
BRANCH  19  31
ATOM     31  C   UNL     1      -5.412  -2.761   4.548  0.00  0.00    -0.074 C 
ATOM     32  C   UNL     1      -5.129  -2.414   6.011  0.00  0.00    -0.010 C 
ATOM     33  C   UNL     1      -6.922  -2.748   4.303  0.00  0.00    -0.010 C 
ATOM     34  C   UNL     1      -4.857  -4.153   4.237  0.00  0.00    -0.010 C 
ENDBRANCH  19  31
ENDBRANCH   9  17
BRANCH   7  35
ATOM     35  O   UNL     1       1.591  -3.116   0.699  0.00  0.00    -0.382 OA
ATOM     36  H   UNL     1       2.119  -3.654   1.304  0.00  0.00    +0.211 HD
ENDBRANCH   7  35
TORSDOF 5
