REMARK  Name = ZINC25247621
REMARK  11 active torsions:
REMARK  status: ('A' for Active; 'I' for Inactive)
REMARK    1  A    between atoms: C_1  and  C_2
REMARK    2  A    between atoms: C_2  and  C_3
REMARK    3  A    between atoms: C_3  and  C_4
REMARK    4  A    between atoms: C_4  and  N_5
REMARK    5  A    between atoms: C_6  and  O_30
REMARK    6  A    between atoms: N_7  and  S_8
REMARK    7  A    between atoms: S_8  and  C_11
REMARK    8  A    between atoms: C_14  and  N_17
REMARK    9  A    between atoms: N_17  and  S_18
REMARK   10  A    between atoms: S_18  and  C_21
REMARK   11  A    between atoms: C_25  and  C_27
REMARK                            x       y       z     vdW  Elec       q    Type
REMARK                         _______ _______ _______ _____ _____    ______ ____
ROOT
ATOM      1  C   UNL     1       3.268  -6.148  -5.527  0.00  0.00    +0.113 A 
ATOM      2  C   UNL     1       2.542  -6.272  -6.698  0.00  0.00    +0.031 A 
ATOM      3  C   UNL     1       3.195  -6.393  -7.908  0.00  0.00    +0.026 A 
ATOM      4  C   UNL     1       4.584  -6.390  -7.949  0.00  0.00    +0.048 A 
ATOM      5  C   UNL     1       5.310  -6.265  -6.772  0.00  0.00    +0.026 A 
ATOM      6  C   UNL     1       4.650  -6.138  -5.565  0.00  0.00    +0.031 A 
ENDROOT
BRANCH   1   7
ATOM      7  S   UNL     1       2.429  -5.994  -3.985  0.00  0.00    +0.103 S 
ATOM      8  O   UNL     1       3.337  -6.434  -2.984  0.00  0.00    -0.146 OA
ATOM      9  O   UNL     1       1.146  -6.578  -4.160  0.00  0.00    -0.146 OA
BRANCH   7  12
ATOM     10  N   UNL     1       1.369  -2.640  -2.424  0.00  0.00    -0.298 N 
ATOM     11  C   UNL     1       1.575  -3.980  -2.642  0.00  0.00    +0.298 C 
ATOM     12  N   UNL     1       2.181  -4.378  -3.722  0.00  0.00    -0.076 NA
ATOM     13  H   UNL     1       1.676  -1.990  -3.075  0.00  0.00    +0.150 HD
BRANCH  11  14
ATOM     14  O   UNL     1       1.148  -4.885  -1.735  0.00  0.00    -0.481 OA
ATOM     15  H   UNL     1       1.337  -5.803  -1.975  0.00  0.00    +0.295 HD
ENDBRANCH  11  14
BRANCH  10  16
ATOM     16  C   UNL     1       0.686  -2.192  -1.208  0.00  0.00    +0.106 C 
BRANCH  16  17
ATOM     17  C   UNL     1       0.587  -0.665  -1.211  0.00  0.00    +0.018 C 
BRANCH  17  19
ATOM     18  C   UNL     1      -0.225   1.329   0.056  0.00  0.00    +0.004 C 
ATOM     19  C   UNL     1      -0.126  -0.198   0.059  0.00  0.00    -0.002 C 
ENDBRANCH  17  19
ENDBRANCH  16  17
ENDBRANCH  10  16
ENDBRANCH   7  12
ENDBRANCH   1   7
BRANCH   4  20
ATOM     20  N   UNL     1       5.248  -6.513  -9.172  0.00  0.00    -0.216 N 
ATOM     21  H   UNL     1       4.971  -7.189  -9.809  0.00  0.00    +0.174 HD
BRANCH  20  22
ATOM     22  S   UNL     1       6.510  -5.503  -9.534  0.00  0.00    +0.072 S 
ATOM     23  O   UNL     1       7.415  -5.575  -8.440  0.00  0.00    -0.150 OA
ATOM     24  O   UNL     1       6.900  -5.802 -10.867  0.00  0.00    -0.150 OA
BRANCH  22  25
ATOM     25  C   UNL     1       5.873  -3.860  -9.552  0.00  0.00    +0.109 A 
ATOM     26  C   UNL     1       5.274  -3.365 -10.697  0.00  0.00    +0.029 A 
ATOM     27  C   UNL     1       4.771  -2.076 -10.722  0.00  0.00    +0.003 A 
ATOM     28  C   UNL     1       4.864  -1.275  -9.602  0.00  0.00    +0.015 A 
ATOM     29  C   UNL     1       5.467  -1.768  -8.443  0.00  0.00    +0.065 A 
ATOM     30  C   UNL     1       5.967  -3.072  -8.424  0.00  0.00    +0.044 A 
BRANCH  29  31
ATOM     31  C   UNL     1       5.570  -0.917  -7.242  0.00  0.00    +0.387 C 
ATOM     32  O   UNL     1       5.127   0.223  -7.260  0.00  0.00    -0.241 OA
ATOM     33  O   UNL     1       6.099  -1.351  -6.228  0.00  0.00    -0.241 OA
ENDBRANCH  29  31
ENDBRANCH  22  25
ENDBRANCH  20  22
ENDBRANCH   4  20
TORSDOF 10
