REMARK  Name = ZINC13075507
REMARK  11 active torsions:
REMARK  status: ('A' for Active; 'I' for Inactive)
REMARK    1  A    between atoms: C_1  and  C_2
REMARK    2  A    between atoms: C_7  and  C_8
REMARK    3  A    between atoms: C_8  and  C_10
REMARK    4  A    between atoms: C_8  and  N_11
REMARK    5  A    between atoms: C_12  and  C_14
REMARK    6  A    between atoms: C_14  and  S_15
REMARK    7  A    between atoms: S_15  and  C_16
REMARK    8  A    between atoms: C_19  and  C_28
REMARK    9  A    between atoms: N_20  and  C_21
REMARK   10  A    between atoms: C_28  and  C_30
REMARK   11  A    between atoms: C_28  and  N_66
REMARK                            x       y       z     vdW  Elec       q    Type
REMARK                         _______ _______ _______ _____ _____    ______ ____
ROOT
ATOM      1  C   UNL     1      -0.945   0.420   5.447  0.00  0.00    +0.197 A 
ATOM      2  N   UNL     1      -1.636   0.513   4.334  0.00  0.00    -0.122 NA
ATOM      3  N   UNL     1      -1.201  -0.339   3.476  0.00  0.00    -0.135 NA
ATOM      4  C   UNL     1      -0.213  -1.022   3.983  0.00  0.00    +0.125 A 
ATOM      5  N   UNL     1      -0.017  -0.568   5.260  0.00  0.00    -0.275 N 
ENDROOT
BRANCH   5   6
ATOM      6  C   UNL     1       0.939  -1.019   6.183  0.00  0.00    +0.050 A 
ATOM      7  C   UNL     1       0.871  -2.314   6.676  0.00  0.00    +0.029 A 
ATOM      8  C   UNL     1       1.815  -2.758   7.581  0.00  0.00    +0.040 A 
ATOM      9  C   UNL     1       2.823  -1.908   8.005  0.00  0.00    +0.124 A 
ATOM     10  C   UNL     1       2.889  -0.613   7.518  0.00  0.00    +0.040 A 
ATOM     11  C   UNL     1       1.949  -0.168   6.609  0.00  0.00    +0.029 A 
ATOM     12  F   UNL     1       3.742  -2.342   8.895  0.00  0.00    -0.205 F 
ENDBRANCH   5   6
BRANCH   4  13
ATOM     13  C   UNL     1       0.564  -2.114   3.295  0.00  0.00    -0.002 C 
ATOM     14  C   UNL     1       1.520  -1.494   2.274  0.00  0.00    -0.005 C 
BRANCH  13  20
ATOM     15  C   UNL     1      -1.364  -3.557   3.541  0.00  0.00    -0.078 C 
ATOM     16  C   UNL     1      -2.400  -4.376   2.767  0.00  0.00    -0.019 C 
ATOM     17  C   UNL     1      -1.694  -5.518   2.030  0.00  0.00    -0.004 C 
ATOM     18  C   UNL     1      -0.628  -4.933   1.101  0.00  0.00    -0.019 C 
ATOM     19  C   UNL     1       0.357  -4.098   1.923  0.00  0.00    -0.078 C 
ATOM     20  N   UNL     1      -0.381  -3.002   2.586  0.00  0.00    +0.386 N 
ATOM     21  H   UNL     1      -0.880  -2.457   1.873  0.00  0.00    -0.081 HD
ENDBRANCH  13  20
ENDBRANCH   4  13
BRANCH   1  22
ATOM     22  S   UNL     1      -1.173   1.382   6.905  0.00  0.00    -0.076 S 
BRANCH  22  23
ATOM     23  C   UNL     1      -2.552   2.429   6.379  0.00  0.00    +0.173 C 
BRANCH  23  25
ATOM     24  N   UNL     1      -3.941   4.239   7.335  0.00  0.00    -0.308 N 
ATOM     25  C   UNL     1      -2.931   3.362   7.501  0.00  0.00    +0.224 C 
ATOM     26  O   UNL     1      -2.328   3.323   8.552  0.00  0.00    -0.275 OA
ATOM     27  H   UNL     1      -4.423   4.270   6.495  0.00  0.00    +0.149 HD
BRANCH  24  28
ATOM     28  C   UNL     1      -4.309   5.146   8.425  0.00  0.00    +0.100 C 
ATOM     29  C   UNL     1      -4.978   6.394   7.846  0.00  0.00    +0.033 C 
BRANCH  28  36
ATOM     30  C   UNL     1      -4.563   6.032  11.163  0.00  0.00    +0.044 C 
ATOM     31  C   UNL     1      -5.388   4.873  10.667  0.00  0.00    -0.046 A 
ATOM     32  C   UNL     1      -6.267   4.234  11.522  0.00  0.00    +0.004 A 
ATOM     33  C   UNL     1      -7.024   3.171  11.066  0.00  0.00    +0.000 A 
ATOM     34  C   UNL     1      -6.902   2.747   9.756  0.00  0.00    +0.000 A 
ATOM     35  C   UNL     1      -6.027   3.389   8.900  0.00  0.00    +0.006 A 
ATOM     36  C   UNL     1      -5.266   4.449   9.357  0.00  0.00    -0.025 A 
ENDBRANCH  28  36
ENDBRANCH  24  28
ENDBRANCH  23  25
ENDBRANCH  22  23
ENDBRANCH   1  22
TORSDOF 8
