REMARK  Name = ZINC39944613
REMARK  10 active torsions:
REMARK  status: ('A' for Active; 'I' for Inactive)
REMARK    1  A    between atoms: C_2  and  C_3
REMARK    2  A    between atoms: C_3  and  N_4
REMARK    3  A    between atoms: C_5  and  C_29
REMARK    4  A    between atoms: C_8  and  S_9
REMARK    5  A    between atoms: S_9  and  C_10
REMARK    6  A    between atoms: C_10  and  C_11
REMARK    7  A    between atoms: C_11  and  C_13
REMARK    8  A    between atoms: C_21  and  C_23
REMARK    9  A    between atoms: C_29  and  O_30
REMARK   10  A    between atoms: O_30  and  C_31
REMARK                            x       y       z     vdW  Elec       q    Type
REMARK                         _______ _______ _______ _____ _____    ______ ____
ROOT
ATOM      1  C   UNL     1       0.221  -5.506  -0.503  0.00  0.00    +0.156 C 
ENDROOT
BRANCH   1   2
ATOM      2  C   UNL     1       0.854  -6.372   0.555  0.00  0.00    +0.172 C 
ATOM      3  O   UNL     1       1.042  -5.929   1.670  0.00  0.00    -0.291 OA
BRANCH   2   4
ATOM      4  C   UNL     1       1.229  -7.698   0.250  0.00  0.00    +0.031 C 
ATOM      5  C   UNL     1       1.091  -8.349  -0.962  0.00  0.00    +0.007 A 
ATOM      6  C   UNL     1       0.569  -7.949  -2.215  0.00  0.00    +0.010 A 
ATOM      7  C   UNL     1       0.557  -8.812  -3.256  0.00  0.00    +0.001 A 
ATOM      8  C   UNL     1       1.050 -10.123  -3.153  0.00  0.00    +0.002 A 
ATOM      9  C   UNL     1       1.569 -10.603  -2.002  0.00  0.00    +0.026 A 
ATOM     10  C   UNL     1       1.620  -9.727  -0.820  0.00  0.00    +0.044 A 
ATOM     11  N   UNL     1       2.057  -9.926   0.391  0.00  0.00    -0.373 N 
ATOM     12  C   UNL     1       1.872  -8.704   1.180  0.00  0.00    +0.144 C 
ATOM     13  H   UNL     1       2.447 -10.751   0.718  0.00  0.00    +0.161 HD
BRANCH  12  14
ATOM     14  C   UNL     1       3.204  -8.188   1.661  0.00  0.00    -0.021 A 
ATOM     15  C   UNL     1       4.317  -8.283   0.848  0.00  0.00    +0.006 A 
ATOM     16  C   UNL     1       5.538  -7.810   1.290  0.00  0.00    +0.000 A 
ATOM     17  C   UNL     1       5.646  -7.240   2.545  0.00  0.00    +0.000 A 
ATOM     18  C   UNL     1       4.532  -7.143   3.358  0.00  0.00    +0.000 A 
ATOM     19  C   UNL     1       3.310  -7.613   2.914  0.00  0.00    +0.006 A 
ENDBRANCH  12  14
ENDBRANCH   2   4
ENDBRANCH   1   2
BRANCH   1  20
ATOM     20  S   UNL     1      -0.142  -3.870   0.192  0.00  0.00    -0.078 S 
BRANCH  20  25
ATOM     21  N   UNL     1      -1.318  -1.700  -1.126  0.00  0.00    -0.299 N 
ATOM     22  C   UNL     1      -1.790  -1.448  -2.385  0.00  0.00    +0.172 A 
ATOM     23  N   UNL     1      -1.624  -2.535  -3.085  0.00  0.00    -0.130 NA
ATOM     24  N   UNL     1      -1.084  -3.449  -2.361  0.00  0.00    -0.122 NA
ATOM     25  C   UNL     1      -0.869  -2.989  -1.150  0.00  0.00    +0.192 A 
BRANCH  21  26
ATOM     26  C   UNL     1      -1.293  -0.775   0.010  0.00  0.00    +0.152 C 
BRANCH  26  28
ATOM     27  C   UNL     1      -0.016   1.306   0.009  0.00  0.00    +0.005 C 
ATOM     28  C   UNL     1       0.002  -0.004   0.002  0.00  0.00    -0.013 C 
ENDBRANCH  26  28
ENDBRANCH  21  26
BRANCH  22  29
ATOM     29  C   UNL     1      -2.390  -0.155  -2.872  0.00  0.00    +0.305 C 
BRANCH  29  30
ATOM     30  O   UNL     1      -1.358   0.681  -3.398  0.00  0.00    -0.484 OA
BRANCH  30  31
ATOM     31  C   UNL     1      -1.733   1.894  -3.883  0.00  0.00    +0.121 A 
ATOM     32  C   UNL     1      -3.067   2.274  -3.847  0.00  0.00    +0.047 A 
ATOM     33  C   UNL     1      -3.447   3.507  -4.340  0.00  0.00    +0.023 A 
ATOM     34  C   UNL     1      -2.498   4.363  -4.870  0.00  0.00    +0.041 A 
ATOM     35  C   UNL     1      -1.167   3.986  -4.908  0.00  0.00    +0.023 A 
ATOM     36  C   UNL     1      -0.783   2.756  -4.409  0.00  0.00    +0.047 A 
ATOM     37 CL   UNL     1      -2.978   5.912  -5.490  0.00  0.00    -0.084 Cl
ENDBRANCH  30  31
ENDBRANCH  29  30
ENDBRANCH  22  29
ENDBRANCH  20  25
ENDBRANCH   1  20
TORSDOF 10
