REMARK  Name = ZINC28056195
REMARK  2 active torsions:
REMARK  status: ('A' for Active; 'I' for Inactive)
REMARK    1  A    between atoms: C_4  and  C_7
REMARK    2  A    between atoms: C_24  and  C_26
REMARK                            x       y       z     vdW  Elec       q    Type
REMARK                         _______ _______ _______ _____ _____    ______ ____
ROOT
ATOM      1  C   UNL     1      -1.650  -0.952  -2.554  0.00  0.00    +0.234 C 
ATOM      2  C   UNL     1      -1.354  -1.827  -1.354  0.00  0.00    +0.025 C 
ATOM      3  C   UNL     1      -1.168  -3.133  -1.534  0.00  0.00    +0.050 C 
ATOM      4  C   UNL     1      -1.213  -3.670  -2.915  0.00  0.00    +0.038 A 
ATOM      5  C   UNL     1      -1.353  -5.030  -3.160  0.00  0.00    +0.013 A 
ATOM      6  C   UNL     1      -1.390  -5.487  -4.464  0.00  0.00    +0.001 A 
ATOM      7  C   UNL     1      -1.287  -4.597  -5.519  0.00  0.00    +0.004 A 
ATOM      8  C   UNL     1      -1.148  -3.241  -5.283  0.00  0.00    +0.046 A 
ATOM      9  C   UNL     1      -1.110  -2.770  -3.984  0.00  0.00    +0.131 A 
ATOM     10  O   UNL     1      -0.978  -1.447  -3.712  0.00  0.00    -0.479 OA
ATOM     11  N   UNL     1      -0.922  -4.006  -0.467  0.00  0.00    -0.282 N 
ATOM     12  C   UNL     1      -1.141  -3.523   0.812  0.00  0.00    +0.240 A 
ATOM     13  N   UNL     1      -1.224  -4.135   1.958  0.00  0.00    -0.092 NA
ATOM     14  N   UNL     1      -1.453  -3.287   2.902  0.00  0.00    -0.021 NA
ATOM     15  N   UNL     1      -1.529  -2.088   2.421  0.00  0.00    -0.042 NA
ATOM     16  N   UNL     1      -1.325  -2.197   1.046  0.00  0.00    -0.201 N 
ATOM     17  C   UNL     1      -1.295  -1.178   0.007  0.00  0.00    +0.174 C 
ATOM     18  H   UNL     1      -0.568  -5.029  -0.664  0.00  0.00    +0.155 HD
ENDROOT
BRANCH  17  19
ATOM     19  C   UNL     1      -0.022  -0.381   0.126  0.00  0.00    -0.016 A 
ATOM     20  C   UNL     1      -0.079   0.982   0.355  0.00  0.00    +0.006 A 
ATOM     21  C   UNL     1       1.088   1.714   0.465  0.00  0.00    +0.003 A 
ATOM     22  C   UNL     1       2.313   1.085   0.346  0.00  0.00    +0.038 A 
ATOM     23  C   UNL     1       2.371  -0.279   0.117  0.00  0.00    +0.124 A 
ATOM     24  C   UNL     1       1.202  -1.012   0.007  0.00  0.00    +0.044 A 
ATOM     25  F   UNL     1       3.568  -0.894   0.001  0.00  0.00    -0.205 F 
ENDBRANCH  17  19
BRANCH   1  29
ATOM     26  C   UNL     1      -5.860  -0.920  -3.275  0.00  0.00    +0.000 A 
ATOM     27  C   UNL     1      -5.254   0.167  -2.672  0.00  0.00    +0.000 A 
ATOM     28  C   UNL     1      -3.891   0.156  -2.439  0.00  0.00    +0.007 A 
ATOM     29  C   UNL     1      -3.135  -0.941  -2.808  0.00  0.00    -0.003 A 
ATOM     30  C   UNL     1      -3.741  -2.025  -3.415  0.00  0.00    +0.007 A 
ATOM     31  C   UNL     1      -5.104  -2.017  -3.644  0.00  0.00    +0.000 A 
ENDBRANCH   1  29
TORSDOF 2
