REMARK  Name = ZINC41593513
REMARK  10 active torsions:
REMARK  status: ('A' for Active; 'I' for Inactive)
REMARK    1  A    between atoms: C_1  and  C_2
REMARK    2  A    between atoms: N_5  and  C_8
REMARK    3  A    between atoms: C_8  and  C_10
REMARK    4  A    between atoms: C_8  and  C_28
REMARK    5  A    between atoms: C_10  and  N_11
REMARK    6  A    between atoms: C_12  and  C_14
REMARK    7  A    between atoms: N_16  and  C_17
REMARK    8  A    between atoms: C_22  and  N_23
REMARK    9  A    between atoms: C_28  and  C_29
REMARK   10  A    between atoms: C_28  and  C_30
REMARK                            x       y       z     vdW  Elec       q    Type
REMARK                         _______ _______ _______ _____ _____    ______ ____
ROOT
ATOM      1  N   UNL     1       1.710  -4.295   2.421  0.00  0.00    -0.309 N 
ATOM      2  C   UNL     1       2.349  -4.480   3.594  0.00  0.00    +0.299 C 
ATOM      3  O   UNL     1       3.465  -4.958   3.608  0.00  0.00    -0.265 OA
ATOM      4  H   UNL     1       0.819  -3.913   2.410  0.00  0.00    +0.149 HD
ENDROOT
BRANCH   2   5
ATOM      5  C   UNL     1       1.685  -4.096   4.875  0.00  0.00    +0.303 C 
ATOM      6  O   UNL     1       0.570  -3.617   4.860  0.00  0.00    -0.265 OA
ATOM      7  N   UNL     1       2.324  -4.280   6.047  0.00  0.00    -0.276 N 
ATOM      8  H   UNL     1       3.239  -4.603   6.055  0.00  0.00    +0.155 HD
BRANCH   7   9
ATOM      9  C   UNL     1       1.669  -4.007   7.250  0.00  0.00    +0.059 A 
ATOM     10  C   UNL     1       0.772  -2.950   7.331  0.00  0.00    +0.025 A 
ATOM     11  C   UNL     1       0.126  -2.681   8.521  0.00  0.00    +0.002 A 
ATOM     12  C   UNL     1       0.369  -3.463   9.637  0.00  0.00    +0.002 A 
ATOM     13  C   UNL     1       1.259  -4.517   9.566  0.00  0.00    +0.029 A 
ATOM     14  C   UNL     1       1.909  -4.798   8.373  0.00  0.00    +0.086 A 
BRANCH  14  15
ATOM     15  N   UNL     1       2.808  -5.871   8.298  0.00  0.00    -0.238 N 
ATOM     16  C   UNL     1       3.066  -6.764   9.281  0.00  0.00    +0.114 A 
ATOM     17  C   UNL     1       3.988  -7.637   8.812  0.00  0.00    +0.041 A 
ATOM     18  C   UNL     1       4.304  -7.267   7.501  0.00  0.00    +0.135 A 
ATOM     19  N   UNL     1       3.594  -6.212   7.190  0.00  0.00    -0.175 NA
ENDBRANCH  14  15
ENDBRANCH   7   9
ENDBRANCH   2   5
BRANCH   1  20
ATOM     20  C   UNL     1       2.362  -4.672   1.165  0.00  0.00    +0.089 C 
BRANCH  20  21
ATOM     21  C   UNL     1       1.507  -4.203  -0.014  0.00  0.00    -0.049 C 
BRANCH  21  26
ATOM     22  C   UNL     1       2.279   1.407   0.661  0.00  0.00    +0.007 C 
ATOM     23  C   UNL     1       2.303  -0.110   0.863  0.00  0.00    -0.018 C 
ATOM     24  C   UNL     1       0.868  -0.636   0.962  0.00  0.00    -0.016 C 
ATOM     25  C   UNL     1       0.898  -2.161   1.083  0.00  0.00    -0.078 C 
ATOM     26  N   UNL     1       1.551  -2.737  -0.098  0.00  0.00    +0.383 N 
ATOM     27  C   UNL     1       2.948  -2.293  -0.161  0.00  0.00    -0.078 C 
ATOM     28  C   UNL     1       2.998  -0.773  -0.330  0.00  0.00    -0.016 C 
ATOM     29  H   UNL     1       1.065  -2.435  -0.930  0.00  0.00    -0.081 HD
ENDBRANCH  21  26
BRANCH  21  30
ATOM     30  C   UNL     1       2.052  -4.805  -1.311  0.00  0.00    -0.029 C 
ATOM     31  C   UNL     1       1.894  -6.326  -1.274  0.00  0.00    +0.005 C 
ATOM     32  C   UNL     1       1.274  -4.240  -2.502  0.00  0.00    +0.005 C 
ENDBRANCH  21  30
ENDBRANCH  20  21
ENDBRANCH   1  20
TORSDOF 7
