REMARK  Name = ZINC19084117
REMARK  7 active torsions:
REMARK  status: ('A' for Active; 'I' for Inactive)
REMARK    1  A    between atoms: C_1  and  C_2
REMARK    2  A    between atoms: C_2  and  C_3
REMARK    3  A    between atoms: C_2  and  C_4
REMARK    4  A    between atoms: C_2  and  C_5
REMARK    5  A    between atoms: C_10  and  C_29
REMARK    6  A    between atoms: C_13  and  C_16
REMARK    7  A    between atoms: C_22  and  C_24
REMARK                            x       y       z     vdW  Elec       q    Type
REMARK                         _______ _______ _______ _____ _____    ______ ____
ROOT
ATOM      1  C   UNL     1      -0.213   4.777 -11.621  0.00  0.00    +0.070 A 
ATOM      2  C   UNL     1       0.135   3.677 -10.826  0.00  0.00    +0.068 A 
ATOM      3  C   UNL     1      -0.398   3.875  -9.600  0.00  0.00    +0.118 A 
ATOM      4  N   UNL     1      -1.062   5.060  -9.618  0.00  0.00    -0.242 N 
ATOM      5  N   UNL     1      -0.929   5.603 -10.895  0.00  0.00    -0.174 NA
ATOM      6  C   UNL     1      -1.776   5.611  -8.463  0.00  0.00    +0.177 C 
ATOM      7  C   UNL     1      -2.057   4.481  -7.467  0.00  0.00    +0.055 C 
ATOM      8  C   UNL     1      -0.772   3.691  -7.198  0.00  0.00    +0.077 C 
ATOM      9  N   UNL     1      -0.331   3.068  -8.461  0.00  0.00    -0.326 N 
ATOM     10  H   UNL     1      -0.013   2.152  -8.499  0.00  0.00    +0.148 HD
ENDROOT
BRANCH   8  11
ATOM     11  C   UNL     1      -1.045   2.603  -6.157  0.00  0.00    +0.012 C 
ATOM     12  C   UNL     1       0.235   1.802  -5.909  0.00  0.00    +0.024 C 
ATOM     13  C   UNL     1      -0.051   0.692  -4.892  0.00  0.00    +0.108 C 
ATOM     14  N   UNL     1      -0.629   1.296  -3.683  0.00  0.00    -0.301 N 
ATOM     15  C   UNL     1      -1.812   2.155  -3.820  0.00  0.00    +0.108 C 
ATOM     16  C   UNL     1      -1.503   3.253  -4.849  0.00  0.00    +0.024 C 
ATOM     17  C   UNL     1      -0.086   1.061  -2.472  0.00  0.00    +0.219 C 
ATOM     18  O   UNL     1       0.933   0.410  -2.380  0.00  0.00    -0.275 OA
BRANCH  17  19
ATOM     19  C   UNL     1      -0.747   1.606  -1.232  0.00  0.00    +0.072 C 
ATOM     20  C   UNL     1       0.282   1.697  -0.102  0.00  0.00    -0.007 C 
ATOM     21  C   UNL     1      -0.407   2.194   1.171  0.00  0.00    -0.082 C 
ATOM     22  C   UNL     1      -2.509   1.198   0.489  0.00  0.00    -0.082 C 
ATOM     23  C   UNL     1      -1.882   0.672  -0.804  0.00  0.00    -0.007 C 
ATOM     24  N   UNL     1      -1.485   1.260   1.549  0.00  0.00    +0.379 N 
ATOM     25  H   UNL     1      -1.921   1.582   2.422  0.00  0.00    -0.086 HD
ATOM     26  H   UNL     1      -1.088   0.324   1.690  0.00  0.00    -0.086 HD
ENDBRANCH  17  19
ENDBRANCH   8  11
BRANCH   1  28
ATOM     27  C   UNL     1      -0.679   4.064 -13.950  0.00  0.00    +0.017 C 
ATOM     28  C   UNL     1       0.170   4.978 -13.064  0.00  0.00    +0.006 C 
ATOM     29  C   UNL     1      -0.071   6.437 -13.458  0.00  0.00    +0.017 C 
ATOM     30  C   UNL     1       1.650   4.637 -13.251  0.00  0.00    +0.017 C 
ENDBRANCH   1  28
BRANCH   6  31
ATOM     31  C   UNL     1      -3.096   6.232  -8.925  0.00  0.00    +0.365 C 
ATOM     32  F   UNL     1      -2.834   7.255  -9.842  0.00  0.00    -0.207 F 
ATOM     33  F   UNL     1      -3.885   5.250  -9.533  0.00  0.00    -0.207 F 
ENDBRANCH   6  31
TORSDOF 4
