REMARK  Name = ZINC35034581
REMARK  10 active torsions:
REMARK  status: ('A' for Active; 'I' for Inactive)
REMARK    1  A    between atoms: C_1  and  C_2
REMARK    2  A    between atoms: C_2  and  C_4
REMARK    3  A    between atoms: C_2  and  N_10
REMARK    4  A    between atoms: N_10  and  C_11
REMARK    5  A    between atoms: C_11  and  C_13
REMARK    6  A    between atoms: C_11  and  C_14
REMARK    7  A    between atoms: N_24  and  C_25
REMARK    8  A    between atoms: N_28  and  C_29
REMARK    9  A    between atoms: C_32  and  S_35
REMARK   10  A    between atoms: S_35  and  C_36
REMARK                            x       y       z     vdW  Elec       q    Type
REMARK                         _______ _______ _______ _____ _____    ______ ____
ROOT
ATOM      1  N   UNL     1      -1.634   0.657  -0.016  0.00  0.00    -0.269 N 
ATOM      2  C   UNL     1      -2.049   1.585   0.868  0.00  0.00    +0.308 C 
ATOM      3  O   UNL     1      -3.099   2.171   0.687  0.00  0.00    -0.252 OA
ATOM      4  N   UNL     1      -1.300   1.865   1.953  0.00  0.00    -0.269 N 
ATOM      5  H   UNL     1      -0.422   1.464   2.053  0.00  0.00    +0.156 HD
ENDROOT
BRANCH   4   6
ATOM      6  C   UNL     1      -1.790   2.734   2.938  0.00  0.00    +0.035 A 
ATOM      7  C   UNL     1      -3.148   2.765   3.223  0.00  0.00    +0.024 A 
ATOM      8  C   UNL     1      -3.631   3.620   4.193  0.00  0.00    +0.016 A 
ATOM      9  C   UNL     1      -2.757   4.450   4.885  0.00  0.00    +0.008 A 
ATOM     10  C   UNL     1      -1.398   4.418   4.600  0.00  0.00    +0.016 A 
ATOM     11  C   UNL     1      -0.915   3.559   3.633  0.00  0.00    +0.024 A 
BRANCH   9  12
ATOM     12  S   UNL     1      -3.373   5.542   6.123  0.00  0.00    -0.129 S 
ATOM     13  C   UNL     1      -1.892   6.397   6.729  0.00  0.00    +0.090 C 
ENDBRANCH   9  12
ENDBRANCH   4   6
BRANCH   1  15
ATOM     14  C   UNL     1       0.775   1.054   0.115  0.00  0.00    +0.033 C 
ATOM     15  C   UNL     1      -0.336   0.003   0.163  0.00  0.00    +0.105 C 
BRANCH  15  16
ATOM     16  C   UNL     1      -0.306  -0.698   1.497  0.00  0.00    -0.027 A 
ATOM     17  C   UNL     1      -1.330  -0.501   2.404  0.00  0.00    +0.005 A 
ATOM     18  C   UNL     1      -1.303  -1.144   3.627  0.00  0.00    +0.000 A 
ATOM     19  C   UNL     1      -0.252  -1.985   3.943  0.00  0.00    +0.000 A 
ATOM     20  C   UNL     1       0.772  -2.183   3.035  0.00  0.00    +0.000 A 
ATOM     21  C   UNL     1       0.743  -1.543   1.810  0.00  0.00    +0.005 A 
ENDBRANCH  15  16
ENDBRANCH   1  15
BRANCH   1  22
ATOM     22  C   UNL     1      -2.482   0.301  -1.157  0.00  0.00    +0.141 C 
ATOM     23  C   UNL     1      -2.824  -1.189  -1.093  0.00  0.00    +0.036 C 
BRANCH  22  24
ATOM     24  C   UNL     1      -1.748   0.593  -2.439  0.00  0.00    +0.133 A 
ATOM     25  N   UNL     1      -0.463   0.410  -2.469  0.00  0.00    -0.232 NA
ATOM     26  C   UNL     1       0.265   0.652  -3.588  0.00  0.00    +0.078 A 
ATOM     27  C   UNL     1       1.647   0.455  -3.620  0.00  0.00    +0.028 A 
ATOM     28  C   UNL     1       2.346   0.713  -4.778  0.00  0.00    +0.002 A 
ATOM     29  C   UNL     1       1.693   1.167  -5.916  0.00  0.00    +0.001 A 
ATOM     30  C   UNL     1       0.331   1.370  -5.909  0.00  0.00    +0.015 A 
ATOM     31  C   UNL     1      -0.395   1.114  -4.747  0.00  0.00    +0.065 A 
ATOM     32  C   UNL     1      -1.851   1.312  -4.681  0.00  0.00    +0.262 A 
ATOM     33  O   UNL     1      -2.480   1.708  -5.644  0.00  0.00    -0.267 OA
ATOM     34  N   UNL     1      -2.465   1.030  -3.508  0.00  0.00    -0.298 N 
ATOM     35  C   UNL     1      -3.914   1.202  -3.387  0.00  0.00    +0.154 C 
ENDBRANCH  22  24
ENDBRANCH   1  22
TORSDOF 6
