REMARK  Name = ZINC01819272
REMARK  13 active torsions:
REMARK  status: ('A' for Active; 'I' for Inactive)
REMARK    1  A    between atoms: C_1  and  C_2
REMARK    2  A    between atoms: C_2  and  C_3
REMARK    3  A    between atoms: C_3  and  N_4
REMARK    4  A    between atoms: N_4  and  C_5
REMARK    5  A    between atoms: N_4  and  C_8
REMARK    6  A    between atoms: C_5  and  C_6
REMARK    7  A    between atoms: C_6  and  C_7
REMARK    8  A    between atoms: C_9  and  C_32
REMARK    9  A    between atoms: N_10  and  C_20
REMARK   10  A    between atoms: C_20  and  C_21
REMARK   11  A    between atoms: C_21  and  C_23
REMARK   12  A    between atoms: C_26  and  N_29
REMARK   13  A    between atoms: C_32  and  C_34
REMARK                            x       y       z     vdW  Elec       q    Type
REMARK                         _______ _______ _______ _____ _____    ______ ____
ROOT
ATOM      1  C   UNL     1       3.026   4.479  -1.202  0.00  0.00    +0.066 C 
ATOM      2  C   UNL     1       4.113   4.571  -0.375  0.00  0.00    +0.120 C 
ATOM      3  N   UNL     1       4.031   5.146   0.908  0.00  0.00    -0.190 N 
ATOM      4  S   UNL     1       2.909   6.356   1.141  0.00  0.00    +0.076 S 
ATOM      5  O   UNL     1       2.549   6.329   2.515  0.00  0.00    -0.150 OA
ATOM      6  O   UNL     1       3.412   7.519   0.499  0.00  0.00    -0.150 OA
ATOM      7  C   UNL     1       1.491   5.831   0.226  0.00  0.00    +0.118 A 
ATOM      8  C   UNL     1       1.681   4.953  -0.849  0.00  0.00    +0.025 A 
ATOM      9  C   UNL     1       0.569   4.530  -1.584  0.00  0.00    +0.012 A 
ATOM     10  C   UNL     1      -0.690   4.980  -1.243  0.00  0.00    +0.001 A 
ATOM     11  C   UNL     1      -0.861   5.851  -0.182  0.00  0.00    +0.002 A 
ATOM     12  C   UNL     1       0.234   6.271   0.557  0.00  0.00    +0.029 A 
ENDROOT
BRANCH   2  13
ATOM     13  C   UNL     1       5.356   4.073  -0.822  0.00  0.00    +0.210 C 
ATOM     14  O   UNL     1       6.287   4.837  -1.010  0.00  0.00    -0.285 OA
BRANCH  13  15
ATOM     15  C   UNL     1       5.529   2.623  -1.062  0.00  0.00    +0.024 A 
ATOM     16  C   UNL     1       4.495   1.735  -0.763  0.00  0.00    +0.012 A 
ATOM     17  C   UNL     1       4.660   0.385  -0.995  0.00  0.00    +0.001 A 
ATOM     18  C   UNL     1       5.853  -0.090  -1.511  0.00  0.00    +0.000 A 
ATOM     19  C   UNL     1       6.884   0.785  -1.804  0.00  0.00    +0.001 A 
ATOM     20  C   UNL     1       6.729   2.138  -1.582  0.00  0.00    +0.012 A 
ENDBRANCH  13  15
ENDBRANCH   2  13
BRANCH   1  21
ATOM     21  N   UNL     1       3.204   3.905  -2.445  0.00  0.00    -0.328 N 
BRANCH  21  22
ATOM     22  C   UNL     1       2.923   2.481  -2.641  0.00  0.00    +0.105 C 
BRANCH  22  24
ATOM     23  C   UNL     1       1.972   0.794  -4.220  0.00  0.00    +0.005 C 
ATOM     24  C   UNL     1       2.146   2.289  -3.945  0.00  0.00    +0.015 C 
ENDBRANCH  22  24
ENDBRANCH  21  22
BRANCH  21  25
ATOM     25  C   UNL     1       3.675   4.720  -3.567  0.00  0.00    +0.105 C 
BRANCH  25  26
ATOM     26  C   UNL     1       5.202   4.655  -3.639  0.00  0.00    +0.015 C 
ATOM     27  C   UNL     1       5.689   5.435  -4.862  0.00  0.00    +0.005 C 
ENDBRANCH  25  26
ENDBRANCH  21  25
ENDBRANCH   1  21
BRANCH   3  28
ATOM     28  C   UNL     1       4.902   4.698   1.997  0.00  0.00    +0.211 C 
BRANCH  28  29
ATOM     29  C   UNL     1       6.217   5.430   1.922  0.00  0.00    +0.182 C 
ATOM     30  O   UNL     1       6.409   6.245   1.045  0.00  0.00    -0.290 OA
BRANCH  29  31
ATOM     31  C   UNL     1       7.269   5.155   2.914  0.00  0.00    +0.019 A 
ATOM     32  C   UNL     1       7.051   4.220   3.930  0.00  0.00    +0.013 A 
ATOM     33  C   UNL     1       8.043   3.965   4.853  0.00  0.00    +0.033 A 
ATOM     34  C   UNL     1       9.250   4.639   4.781  0.00  0.00    +0.126 A 
ATOM     35  C   UNL     1       9.472   5.569   3.780  0.00  0.00    +0.033 A 
ATOM     36  C   UNL     1       8.492   5.832   2.848  0.00  0.00    +0.013 A 
BRANCH  34  37
ATOM     37  N   UNL     1      10.308   4.363   5.778  0.00  0.00    +0.056 N 
ATOM     38  O   UNL     1      11.371   4.954   5.718  0.00  0.00    -0.126 OA
ATOM     39  O   UNL     1      10.115   3.545   6.660  0.00  0.00    -0.126 OA
ENDBRANCH  34  37
ENDBRANCH  29  31
ENDBRANCH  28  29
ENDBRANCH   3  28
TORSDOF 11
