REMARK  Name = ZINC15006461
REMARK  9 active torsions:
REMARK  status: ('A' for Active; 'I' for Inactive)
REMARK    1  A    between atoms: C_1  and  C_2
REMARK    2  A    between atoms: C_5  and  C_7
REMARK    3  A    between atoms: C_7  and  C_9
REMARK    4  A    between atoms: C_7  and  C_10
REMARK    5  A    between atoms: C_10  and  C_11
REMARK    6  A    between atoms: C_11  and  N_70
REMARK    7  A    between atoms: C_14  and  C_17
REMARK    8  A    between atoms: C_14  and  O_34
REMARK    9  A    between atoms: C_24  and  C_26
REMARK                            x       y       z     vdW  Elec       q    Type
REMARK                         _______ _______ _______ _____ _____    ______ ____
ROOT
ATOM      1  C   UNL     1       1.179  -0.466   0.970  0.00  0.00    -0.076 C 
ATOM      2  C   UNL     1       1.035  -1.982   1.121  0.00  0.00    +0.021 C 
ATOM      3  C   UNL     1       1.189  -2.644  -0.252  0.00  0.00    +0.088 C 
ATOM      4  C   UNL     1       0.141  -2.069  -1.207  0.00  0.00    +0.021 C 
ATOM      5  C   UNL     1       0.311  -0.550  -1.290  0.00  0.00    -0.076 C 
ATOM      6  N   UNL     1       0.127   0.028   0.058  0.00  0.00    +0.380 N 
ATOM      7  H   UNL     1      -0.790  -0.259   0.421  0.00  0.00    -0.082 HD
ENDROOT
BRANCH   3   8
ATOM      8  C   UNL     1       0.989  -4.131  -0.119  0.00  0.00    -0.015 A 
ATOM      9  C   UNL     1      -0.284  -4.670  -0.253  0.00  0.00    +0.010 A 
ATOM     10  C   UNL     1      -0.490  -6.027  -0.135  0.00  0.00    +0.047 A 
ATOM     11  C   UNL     1       0.584  -6.871   0.120  0.00  0.00    +0.136 A 
ATOM     12  C   UNL     1       1.872  -6.320   0.254  0.00  0.00    +0.021 A 
ATOM     13  C   UNL     1       2.061  -4.942   0.126  0.00  0.00    +0.018 A 
ATOM     14  C   UNL     1       2.763  -7.451   0.513  0.00  0.00    +0.063 A 
ATOM     15  C   UNL     1       1.974  -8.557   0.515  0.00  0.00    +0.191 A 
ATOM     16  O   UNL     1       0.693  -8.204   0.283  0.00  0.00    -0.450 OA
BRANCH  15  17
ATOM     17  C   UNL     1       2.446  -9.931   0.738  0.00  0.00    +0.282 C 
ATOM     18  O   UNL     1       3.600 -10.132   1.066  0.00  0.00    -0.267 OA
ATOM     19  N   UNL     1       1.600 -10.968   0.580  0.00  0.00    -0.295 N 
ATOM     20  C   UNL     1       2.014 -12.333   0.934  0.00  0.00    +0.108 C 
ATOM     21  C   UNL     1       0.976 -12.923   1.900  0.00  0.00    +0.019 C 
ATOM     22  C   UNL     1      -0.414 -12.833   1.265  0.00  0.00    +0.003 C 
ATOM     23  C   UNL     1      -0.768 -11.365   1.015  0.00  0.00    +0.019 C 
ATOM     24  C   UNL     1       0.248 -10.756   0.044  0.00  0.00    +0.108 C 
ENDBRANCH  15  17
ENDBRANCH   3   8
BRANCH   3  25
ATOM     25  O   UNL     1       2.497  -2.382  -0.764  0.00  0.00    -0.384 OA
ATOM     26  H   UNL     1       3.213  -2.719  -0.208  0.00  0.00    +0.211 HD
ENDBRANCH   3  25
BRANCH   6  27
ATOM     27  C   UNL     1       0.173   1.503  -0.015  0.00  0.00    -0.078 C 
BRANCH  27  28
ATOM     28  C   UNL     1      -0.239   2.076   1.342  0.00  0.00    -0.008 C 
BRANCH  28  29
ATOM     29  C   UNL     1      -0.219   3.605   1.278  0.00  0.00    +0.050 C 
ATOM     30  C   UNL     1       1.216   4.087   1.054  0.00  0.00    +0.015 C 
BRANCH  29  35
ATOM     31  C   UNL     1      -0.669   4.639   6.194  0.00  0.00    +0.086 C 
ATOM     32  C   UNL     1      -0.937   4.619   4.711  0.00  0.00    +0.102 A 
ATOM     33  C   UNL     1      -1.943   5.257   4.085  0.00  0.00    +0.044 A 
ATOM     34  C   UNL     1      -1.813   4.971   2.706  0.00  0.00    +0.045 A 
ATOM     35  C   UNL     1      -0.742   4.169   2.573  0.00  0.00    +0.108 A 
ATOM     36  O   UNL     1      -0.213   3.962   3.790  0.00  0.00    -0.465 OA
ENDBRANCH  29  35
ENDBRANCH  28  29
ENDBRANCH  27  28
ENDBRANCH   6  27
TORSDOF 7
