REMARK  Name = ZINC02328813
REMARK  7 active torsions:
REMARK  status: ('A' for Active; 'I' for Inactive)
REMARK    1  A    between atoms: C_1  and  C_2
REMARK    2  A    between atoms: C_5  and  C_9
REMARK    3  A    between atoms: C_6  and  C_8
REMARK    4  A    between atoms: C_9  and  N_67
REMARK    5  A    between atoms: N_12  and  C_15
REMARK    6  A    between atoms: C_22  and  C_30
REMARK    7  A    between atoms: C_23  and  C_24
REMARK                            x       y       z     vdW  Elec       q    Type
REMARK                         _______ _______ _______ _____ _____    ______ ____
ROOT
ATOM      1  C   UNL     1      -3.008   2.245  -1.518  0.00  0.00    +0.130 A 
ATOM      2  C   UNL     1      -2.167   1.751  -0.542  0.00  0.00    +0.014 A 
ATOM      3  C   UNL     1      -0.904   1.283  -0.901  0.00  0.00    +0.050 A 
ATOM      4  N   UNL     1      -0.523   1.316  -2.163  0.00  0.00    -0.232 NA
ATOM      5  C   UNL     1      -1.325   1.792  -3.120  0.00  0.00    +0.166 A 
ATOM      6  N   UNL     1      -2.575   2.263  -2.817  0.00  0.00    -0.199 N 
ATOM      7  N   UNL     1      -3.176   2.690  -4.006  0.00  0.00    -0.168 NA
ATOM      8  C   UNL     1      -2.346   2.499  -5.002  0.00  0.00    +0.070 A 
ATOM      9  C   UNL     1      -1.164   1.937  -4.504  0.00  0.00    +0.049 A 
ATOM     10  C   UNL     1      -2.618   2.832  -6.447  0.00  0.00    +0.068 C 
ATOM     11  C   UNL     1      -0.177   0.795   0.334  0.00  0.00    +0.056 C 
ATOM     12  C   UNL     1      -0.937   1.413   1.526  0.00  0.00    +0.011 C 
ATOM     13  C   UNL     1      -2.359   1.607   0.951  0.00  0.00    +0.041 C 
ENDROOT
BRANCH   1  16
ATOM     14  C   UNL     1      -5.782   4.630  -1.111  0.00  0.00    -0.059 C 
ATOM     15  C   UNL     1      -4.409   4.128  -1.562  0.00  0.00    +0.088 C 
ATOM     16  N   UNL     1      -4.262   2.713  -1.191  0.00  0.00    -0.318 N 
ATOM     17  C   UNL     1      -5.309   1.896  -1.818  0.00  0.00    +0.088 C 
ATOM     18  C   UNL     1      -6.683   2.398  -1.368  0.00  0.00    -0.059 C 
ATOM     19  N   UNL     1      -6.827   3.815  -1.766  0.00  0.00    +0.384 N 
ATOM     20  H   UNL     1      -6.717   3.888  -2.784  0.00  0.00    -0.081 HD
BRANCH  19  21
ATOM     21  C   UNL     1      -8.167   4.312  -1.389  0.00  0.00    -0.043 C 
BRANCH  21  26
ATOM     22  C   UNL     1     -12.073   2.042  -4.992  0.00  0.00    +0.044 C 
ATOM     23  C   UNL     1     -11.054   2.633  -4.053  0.00  0.00    -0.050 A 
ATOM     24  C   UNL     1     -10.970   2.179  -2.749  0.00  0.00    +0.003 A 
ATOM     25  C   UNL     1     -10.035   2.722  -1.888  0.00  0.00    +0.002 A 
ATOM     26  C   UNL     1      -9.185   3.720  -2.329  0.00  0.00    -0.061 A 
ATOM     27  C   UNL     1      -9.274   4.177  -3.630  0.00  0.00    -0.049 A 
ATOM     28  C   UNL     1     -10.205   3.630  -4.494  0.00  0.00    +0.007 A 
ATOM     29  C   UNL     1      -8.352   5.269  -4.109  0.00  0.00    +0.044 C 
ENDBRANCH  21  26
ENDBRANCH  19  21
ENDBRANCH   1  16
BRANCH   9  30
ATOM     30  C   UNL     1       0.033   1.565  -5.293  0.00  0.00    -0.013 A 
ATOM     31  C   UNL     1       1.240   2.234  -5.092  0.00  0.00    +0.009 A 
ATOM     32  C   UNL     1       2.353   1.879  -5.826  0.00  0.00    +0.001 A 
ATOM     33  C   UNL     1       2.271   0.869  -6.768  0.00  0.00    +0.000 A 
ATOM     34  C   UNL     1       1.075   0.205  -6.976  0.00  0.00    +0.001 A 
ATOM     35  C   UNL     1      -0.044   0.547  -6.244  0.00  0.00    +0.009 A 
ENDBRANCH   9  30
TORSDOF 4
