REMARK  Name = ZINC38666689
REMARK  14 active torsions:
REMARK  status: ('A' for Active; 'I' for Inactive)
REMARK    1  A    between atoms: C_1  and  C_2
REMARK    2  A    between atoms: C_3  and  C_36
REMARK    3  A    between atoms: C_4  and  C_35
REMARK    4  A    between atoms: C_5  and  S_10
REMARK    5  A    between atoms: C_6  and  C_9
REMARK    6  A    between atoms: C_7  and  C_8
REMARK    7  A    between atoms: S_10  and  N_13
REMARK    8  A    between atoms: N_13  and  C_14
REMARK    9  A    between atoms: C_14  and  C_15
REMARK   10  A    between atoms: C_15  and  C_17
REMARK   11  A    between atoms: C_15  and  N_26
REMARK   12  A    between atoms: C_20  and  N_23
REMARK   13  A    between atoms: N_23  and  C_24
REMARK   14  A    between atoms: N_23  and  C_25
REMARK                            x       y       z     vdW  Elec       q    Type
REMARK                         _______ _______ _______ _____ _____    ______ ____
ROOT
ATOM      1  C   UNL     1       1.811  -6.220   1.659  0.00  0.00    +0.119 C 
ENDROOT
BRANCH   1   2
ATOM      2  N   UNL     1       2.647  -6.354   0.464  0.00  0.00    -0.321 N 
ATOM      3  C   UNL     1       2.830  -5.315  -0.553  0.00  0.00    +0.110 C 
ATOM      4  C   UNL     1       3.785  -5.930  -1.590  0.00  0.00    +0.056 C 
ATOM      5  C   UNL     1       4.079  -7.316  -1.060  0.00  0.00    -0.025 A 
ATOM      6  C   UNL     1       3.392  -7.487   0.132  0.00  0.00    +0.033 A 
ATOM      7  C   UNL     1       3.513  -8.698   0.816  0.00  0.00    +0.023 A 
ATOM      8  C   UNL     1       4.309  -9.704   0.311  0.00  0.00    +0.002 A 
ATOM      9  C   UNL     1       4.993  -9.522  -0.876  0.00  0.00    +0.000 A 
ATOM     10  C   UNL     1       4.871  -8.329  -1.564  0.00  0.00    +0.005 A 
ENDBRANCH   1   2
BRANCH   1  11
ATOM     11  C   UNL     1       2.681  -6.257   2.889  0.00  0.00    -0.026 A 
ATOM     12  C   UNL     1       3.844  -5.510   2.933  0.00  0.00    +0.007 A 
ATOM     13  C   UNL     1       4.644  -5.542   4.058  0.00  0.00    +0.023 A 
ATOM     14  C   UNL     1       4.280  -6.325   5.146  0.00  0.00    +0.029 A 
ATOM     15  C   UNL     1       3.111  -7.074   5.098  0.00  0.00    +0.023 A 
ATOM     16  C   UNL     1       2.313  -7.033   3.972  0.00  0.00    +0.007 A 
BRANCH  14  17
ATOM     17  N   UNL     1       5.087  -6.359   6.286  0.00  0.00    -0.336 N 
ATOM     18  C   UNL     1       6.320  -5.569   6.334  0.00  0.00    +0.129 C 
ATOM     19  C   UNL     1       4.701  -7.186   7.432  0.00  0.00    +0.129 C 
ENDBRANCH  14  17
ENDBRANCH   1  11
BRANCH   1  20
ATOM     20  C   UNL     1       1.057  -4.889   1.608  0.00  0.00    +0.133 C 
BRANCH  20  21
ATOM     21  N   UNL     1       0.194  -4.862   0.425  0.00  0.00    -0.188 NA
ATOM     22  H   UNL     1       0.320  -5.514  -0.283  0.00  0.00    +0.148 HD
BRANCH  21  23
ATOM     23  S   UNL     1      -0.998  -3.720   0.295  0.00  0.00    +0.059 S 
ATOM     24  O   UNL     1      -1.711  -3.735   1.524  0.00  0.00    -0.153 OA
ATOM     25  O   UNL     1      -1.633  -3.937  -0.958  0.00  0.00    -0.153 OA
BRANCH  23  30
ATOM     26  C   UNL     1       1.721   1.655  -0.057  0.00  0.00    +0.044 C 
ATOM     27  C   UNL     1       1.042   0.313   0.031  0.00  0.00    -0.044 A 
ATOM     28  C   UNL     1       0.667  -0.193   1.262  0.00  0.00    -0.043 A 
ATOM     29  C   UNL     1       0.044  -1.424   1.342  0.00  0.00    -0.021 A 
ATOM     30  C   UNL     1      -0.205  -2.150   0.192  0.00  0.00    +0.112 A 
ATOM     31  C   UNL     1       0.169  -1.643  -1.039  0.00  0.00    -0.021 A 
ATOM     32  C   UNL     1       0.788  -0.410  -1.120  0.00  0.00    -0.043 A 
ATOM     33  C   UNL     1       1.191   0.144  -2.462  0.00  0.00    +0.044 C 
ATOM     34  C   UNL     1      -0.102  -2.434  -2.293  0.00  0.00    +0.046 C 
ATOM     35  C   UNL     1      -0.363  -1.976   2.684  0.00  0.00    +0.046 C 
ATOM     36  C   UNL     1       0.938   0.598   2.515  0.00  0.00    +0.044 C 
ENDBRANCH  23  30
ENDBRANCH  21  23
ENDBRANCH  20  21
ENDBRANCH   1  20
TORSDOF 7
