REMARK  Name = ZINC24596881
REMARK  11 active torsions:
REMARK  status: ('A' for Active; 'I' for Inactive)
REMARK    1  A    between atoms: C_1  and  C_2
REMARK    2  A    between atoms: C_9  and  N_17
REMARK    3  A    between atoms: C_10  and  C_11
REMARK    4  A    between atoms: C_11  and  O_13
REMARK    5  A    between atoms: O_13  and  C_14
REMARK    6  A    between atoms: C_14  and  C_15
REMARK    7  A    between atoms: C_14  and  C_16
REMARK    8  A    between atoms: C_18  and  C_20
REMARK    9  A    between atoms: C_20  and  C_22
REMARK   10  A    between atoms: C_20  and  N_23
REMARK   11  A    between atoms: C_29  and  C_31
REMARK                            x       y       z     vdW  Elec       q    Type
REMARK                         _______ _______ _______ _____ _____    ______ ____
ROOT
ATOM      1  N   UNL     1       1.962  -3.749   2.421  0.00  0.00    -0.281 N 
ATOM      2  C   UNL     1       1.791  -2.428   2.216  0.00  0.00    +0.204 C 
ATOM      3  O   UNL     1       2.477  -1.627   2.815  0.00  0.00    -0.277 OA
ATOM      4  H   UNL     1       1.340  -4.475   1.877  0.00  0.00    +0.155 HD
ENDROOT
BRANCH   1  12
ATOM      5  C   UNL     1       7.551  -5.840   7.478  0.00  0.00    +0.008 C 
ATOM      6  C   UNL     1       6.635  -5.834   6.253  0.00  0.00    -0.009 C 
ATOM      7  C   UNL     1       5.540  -6.891   6.424  0.00  0.00    +0.008 C 
ATOM      8  C   UNL     1       4.774  -7.064   5.112  0.00  0.00    +0.037 C 
ATOM      9  C   UNL     1       4.305  -5.696   4.633  0.00  0.00    -0.021 A 
ATOM     10  C   UNL     1       4.867  -4.563   5.107  0.00  0.00    -0.004 A 
ATOM     11  S   UNL     1       4.013  -3.252   4.279  0.00  0.00    -0.077 S 
ATOM     12  C   UNL     1       2.923  -4.193   3.316  0.00  0.00    +0.086 A 
ATOM     13  C   UNL     1       3.242  -5.499   3.662  0.00  0.00    +0.091 A 
ATOM     14  C   UNL     1       5.973  -4.455   6.112  0.00  0.00    +0.046 C 
BRANCH  13  15
ATOM     15  C   UNL     1       2.536  -6.637   3.068  0.00  0.00    +0.342 C 
ATOM     16  O   UNL     1       2.953  -7.143   2.043  0.00  0.00    -0.245 OA
BRANCH  15  17
ATOM     17  O   UNL     1       1.425  -7.123   3.657  0.00  0.00    -0.458 OA
BRANCH  17  18
ATOM     18  C   UNL     1       0.777  -8.252   3.012  0.00  0.00    +0.171 C 
ATOM     19  C   UNL     1       1.359  -9.556   3.562  0.00  0.00    +0.052 C 
ATOM     20  C   UNL     1      -0.726  -8.205   3.293  0.00  0.00    +0.052 C 
ENDBRANCH  17  18
ENDBRANCH  15  17
ENDBRANCH  13  15
ENDBRANCH   1  12
BRANCH   2  21
ATOM     21  C   UNL     1       0.746  -1.946   1.243  0.00  0.00    +0.017 C 
ATOM     22  C   UNL     1      -0.587  -1.768   1.972  0.00  0.00    -0.004 C 
BRANCH  21  23
ATOM     23  N   UNL     1       1.166  -0.659   0.671  0.00  0.00    +0.389 N 
ATOM     24  C   UNL     1       2.525  -0.747   0.119  0.00  0.00    -0.058 C 
ATOM     25  C   UNL     1       2.855   0.551  -0.625  0.00  0.00    +0.089 C 
ATOM     26  N   UNL     1       2.627   1.683   0.287  0.00  0.00    -0.305 N 
ATOM     27  C   UNL     1       1.335   1.764   0.985  0.00  0.00    +0.089 C 
ATOM     28  C   UNL     1       1.064   0.417   1.665  0.00  0.00    -0.058 C 
ATOM     29  C   UNL     1       3.575   2.621   0.477  0.00  0.00    +0.219 C 
ATOM     30  O   UNL     1       4.635   2.538  -0.108  0.00  0.00    -0.275 OA
ATOM     31  H   UNL     1       0.484  -0.416  -0.157  0.00  0.00    -0.081 HD
BRANCH  29  32
ATOM     32  C   UNL     1       3.320   3.772   1.415  0.00  0.00    +0.075 C 
ATOM     33  C   UNL     1       3.172   5.165   0.800  0.00  0.00    +0.013 C 
ATOM     34  C   UNL     1       4.436   4.805   1.586  0.00  0.00    +0.013 C 
ENDBRANCH  29  32
ENDBRANCH  21  23
ENDBRANCH   2  21
TORSDOF 7
