REMARK  Name = ZINC39939986
REMARK  5 active torsions:
REMARK  status: ('A' for Active; 'I' for Inactive)
REMARK    1  A    between atoms: C_4  and  C_7
REMARK    2  A    between atoms: C_9  and  C_28
REMARK    3  A    between atoms: N_10  and  C_12
REMARK    4  A    between atoms: N_18  and  N_19
REMARK    5  A    between atoms: C_20  and  C_21
REMARK                            x       y       z     vdW  Elec       q    Type
REMARK                         _______ _______ _______ _____ _____    ______ ____
ROOT
ATOM      1  C   UNL     1       3.508   0.010  -0.501  0.00  0.00    +0.093 A 
ATOM      2  C   UNL     1       3.329  -1.382  -0.430  0.00  0.00    +0.058 A 
ATOM      3  C   UNL     1       4.563  -1.956  -0.331  0.00  0.00    +0.074 A 
ATOM      4  N   UNL     1       5.485  -0.951  -0.338  0.00  0.00    -0.219 N 
ATOM      5  N   UNL     1       4.799   0.264  -0.450  0.00  0.00    -0.167 NA
ENDROOT
BRANCH   4   6
ATOM      6  C   UNL     1       6.938  -1.115  -0.249  0.00  0.00    +0.354 C 
ATOM      7  N   UNL     1       7.400  -2.147  -1.190  0.00  0.00    -0.170 NA
ATOM      8  N   UNL     1       8.174  -1.617  -1.991  0.00  0.00    -0.218 N 
ATOM      9  C   UNL     1       8.357  -0.288  -1.766  0.00  0.00    +0.176 C 
ATOM     10  S   UNL     1       9.367   0.733  -2.698  0.00  0.00    -0.015 S 
ATOM     11  N   UNL     1       7.626   0.110  -0.698  0.00  0.00    -0.157 N 
ATOM     12  H   UNL     1       8.610  -2.101  -2.710  0.00  0.00    +0.176 HD
BRANCH  11  13
ATOM     13  N   UNL     1       7.540   1.393  -0.144  0.00  0.00    -0.182 NA
ATOM     14  C   UNL     1       6.868   1.585   0.951  0.00  0.00    +0.138 C 
BRANCH  14  15
ATOM     15  C   UNL     1       6.679   2.951   1.471  0.00  0.00    -0.005 A 
ATOM     16  C   UNL     1       7.217   4.043   0.785  0.00  0.00    +0.010 A 
ATOM     17  C   UNL     1       7.037   5.319   1.277  0.00  0.00    +0.016 A 
ATOM     18  C   UNL     1       6.325   5.519   2.448  0.00  0.00    +0.018 A 
ATOM     19  C   UNL     1       5.789   4.441   3.132  0.00  0.00    +0.016 A 
ATOM     20  C   UNL     1       5.957   3.160   2.648  0.00  0.00    +0.010 A 
ATOM     21 BR   UNL     1       6.083   7.271   3.115  0.00  0.00    -0.050 Br
ENDBRANCH  14  15
ENDBRANCH  11  13
ENDBRANCH   4   6
BRANCH   1  25
ATOM     22  C   UNL     1       0.411   2.905  -0.839  0.00  0.00    +0.000 A 
ATOM     23  C   UNL     1       1.732   3.311  -0.795  0.00  0.00    +0.001 A 
ATOM     24  C   UNL     1       2.741   2.376  -0.685  0.00  0.00    +0.010 A 
ATOM     25  C   UNL     1       2.427   1.020  -0.618  0.00  0.00    +0.002 A 
ATOM     26  C   UNL     1       1.094   0.617  -0.663  0.00  0.00    +0.010 A 
ATOM     27  C   UNL     1       0.093   1.560  -0.772  0.00  0.00    +0.001 A 
ENDBRANCH   1  25
BRANCH   3  28
ATOM     28  C   UNL     1       4.848  -3.404  -0.231  0.00  0.00    +0.000 A 
ATOM     29  C   UNL     1       6.044  -3.845   0.334  0.00  0.00    +0.010 A 
ATOM     30  C   UNL     1       6.304  -5.198   0.424  0.00  0.00    +0.001 A 
ATOM     31  C   UNL     1       5.382  -6.115  -0.046  0.00  0.00    +0.000 A 
ATOM     32  C   UNL     1       4.193  -5.684  -0.608  0.00  0.00    +0.001 A 
ATOM     33  C   UNL     1       3.919  -4.335  -0.698  0.00  0.00    +0.010 A 
ENDBRANCH   3  28
TORSDOF 5
