REMARK  Name = ZINC03595299
REMARK  6 active torsions:
REMARK  status: ('A' for Active; 'I' for Inactive)
REMARK    1  A    between atoms: C_1  and  C_2
REMARK    2  A    between atoms: C_2  and  C_3
REMARK    3  A    between atoms: C_3  and  C_18
REMARK    4  A    between atoms: N_6  and  C_10
REMARK    5  A    between atoms: C_10  and  C_11
REMARK    6  A    between atoms: N_16  and  C_17
REMARK                            x       y       z     vdW  Elec       q    Type
REMARK                         _______ _______ _______ _____ _____    ______ ____
ROOT
ATOM      1  C   UNL     1       0.718  -0.497  -1.257  0.00  0.00    +0.138 C 
ATOM      2  C   UNL     1       0.081   0.093  -2.499  0.00  0.00    +0.251 C 
ATOM      3  O   UNL     1      -1.061  -0.057  -2.878  0.00  0.00    -0.272 OA
ATOM      4  N   UNL     1       1.047   0.819  -3.095  0.00  0.00    -0.215 N 
ATOM      5  C   UNL     1       2.195   0.770  -2.408  0.00  0.00    +0.310 C 
ATOM      6  O   UNL     1       3.210   1.345  -2.748  0.00  0.00    -0.252 OA
ATOM      7  N   UNL     1       2.099   0.013  -1.301  0.00  0.00    -0.281 N 
ATOM      8  H   UNL     1       2.803  -0.163  -0.657  0.00  0.00    +0.152 HD
ENDROOT
BRANCH   1   9
ATOM      9  C   UNL     1       0.707  -2.003  -1.315  0.00  0.00    -0.015 A 
ATOM     10  C   UNL     1      -0.340  -2.709  -0.752  0.00  0.00    +0.007 A 
ATOM     11  C   UNL     1      -0.351  -4.090  -0.805  0.00  0.00    +0.020 A 
ATOM     12  C   UNL     1       0.686  -4.766  -1.423  0.00  0.00    +0.041 A 
ATOM     13  C   UNL     1       1.734  -4.059  -1.987  0.00  0.00    +0.020 A 
ATOM     14  C   UNL     1       1.740  -2.678  -1.938  0.00  0.00    +0.007 A 
ATOM     15 CL   UNL     1       0.673  -6.501  -1.490  0.00  0.00    -0.084 Cl
ENDBRANCH   1   9
BRANCH   1  17
ATOM     16  C   UNL     1      -0.019   1.526   0.010  0.00  0.00    +0.007 C 
ATOM     17  C   UNL     1       0.002  -0.004   0.002  0.00  0.00    +0.037 C 
ENDBRANCH   1  17
BRANCH   4  18
ATOM     18  C   UNL     1       0.864   1.569  -4.340  0.00  0.00    +0.214 C 
BRANCH  18  19
ATOM     19  C   UNL     1       0.403   2.967  -4.021  0.00  0.00    +0.238 C 
ATOM     20  O   UNL     1       0.243   3.305  -2.868  0.00  0.00    -0.274 OA
ATOM     21  N   UNL     1       0.169   3.843  -5.018  0.00  0.00    -0.239 N 
ATOM     22  C   UNL     1      -0.244   5.094  -4.733  0.00  0.00    +0.306 C 
ATOM     23  O   UNL     1      -0.404   5.433  -3.577  0.00  0.00    -0.252 OA
ATOM     24  N   UNL     1      -0.478   5.970  -5.730  0.00  0.00    -0.302 N 
ATOM     25  C   UNL     1      -0.926   7.330  -5.420  0.00  0.00    +0.129 C 
ATOM     26  H   UNL     1       0.296   3.573  -5.941  0.00  0.00    +0.159 HD
ATOM     27  H   UNL     1      -0.350   5.700  -6.653  0.00  0.00    +0.150 HD
ENDBRANCH  18  19
ENDBRANCH   4  18
TORSDOF 4
