REMARK  Name = ZINC65748997
REMARK  6 active torsions:
REMARK  status: ('A' for Active; 'I' for Inactive)
REMARK    1  A    between atoms: C_1  and  C_2
REMARK    2  A    between atoms: C_5  and  O_37
REMARK    3  A    between atoms: N_15  and  C_18
REMARK    4  A    between atoms: C_18  and  C_19
REMARK    5  A    between atoms: C_18  and  C_25
REMARK    6  A    between atoms: C_18  and  C_31
REMARK                            x       y       z     vdW  Elec       q    Type
REMARK                         _______ _______ _______ _____ _____    ______ ____
ROOT
ATOM      1  C   UNL     1       3.043   1.800  -1.427  0.00  0.00    +0.030 C 
ATOM      2  C   UNL     1       2.613   0.333  -1.358  0.00  0.00    +0.083 C 
ATOM      3  C   UNL     1       3.524  -0.488  -2.260  0.00  0.00    +0.076 C 
ATOM      4  C   UNL     1       3.488  -1.962  -1.851  0.00  0.00    +0.214 C 
ATOM      5  N   UNL     1       3.825  -2.052  -0.425  0.00  0.00    -0.213 N 
ATOM      6  C   UNL     1       4.725  -2.979  -0.011  0.00  0.00    +0.276 C 
ATOM      7  O   UNL     1       5.231  -3.776  -0.780  0.00  0.00    -0.268 OA
ATOM      8  C   UNL     1       5.053  -2.964   1.418  0.00  0.00    +0.166 A 
ATOM      9  C   UNL     1       4.304  -2.171   2.299  0.00  0.00    +0.139 A 
ATOM     10  N   UNL     1       3.252  -1.415   1.823  0.00  0.00    -0.273 N 
ATOM     11  C   UNL     1       3.228  -1.177   0.455  0.00  0.00    +0.171 C 
ATOM     12  N   UNL     1       2.651  -0.101   0.024  0.00  0.00    -0.358 N 
ATOM     13  N   UNL     1       4.836  -2.350   3.521  0.00  0.00    -0.300 N 
ATOM     14  C   UNL     1       5.874  -3.233   3.392  0.00  0.00    +0.202 A 
ATOM     15  N   UNL     1       5.993  -3.591   2.142  0.00  0.00    -0.229 NA
ATOM     16  H   UNL     1       2.208   0.459   0.680  0.00  0.00    +0.162 HD
ATOM     17  H   UNL     1       2.564  -1.069   2.414  0.00  0.00    +0.156 HD
ENDROOT
BRANCH   4  18
ATOM     18  O   UNL     1       4.441  -2.699  -2.619  0.00  0.00    -0.374 OA
ATOM     19  H   UNL     1       4.242  -2.733  -3.565  0.00  0.00    +0.212 HD
ENDBRANCH   4  18
BRANCH  13  20
ATOM     20  C   UNL     1       4.386  -1.716   4.763  0.00  0.00    +0.124 C 
BRANCH  20  21
ATOM     21  C   UNL     1       5.332  -2.073   5.880  0.00  0.00    -0.013 A 
ATOM     22  C   UNL     1       5.967  -1.073   6.594  0.00  0.00    +0.006 A 
ATOM     23  C   UNL     1       6.835  -1.401   7.619  0.00  0.00    +0.000 A 
ATOM     24  C   UNL     1       7.068  -2.727   7.931  0.00  0.00    +0.000 A 
ATOM     25  C   UNL     1       6.432  -3.727   7.217  0.00  0.00    +0.000 A 
ATOM     26  C   UNL     1       5.561  -3.399   6.195  0.00  0.00    +0.006 A 
ENDBRANCH  20  21
BRANCH  20  27
ATOM     27  C   UNL     1       4.362  -0.220   4.583  0.00  0.00    -0.013 A 
ATOM     28  C   UNL     1       5.508   0.448   4.194  0.00  0.00    +0.006 A 
ATOM     29  C   UNL     1       5.487   1.820   4.030  0.00  0.00    +0.000 A 
ATOM     30  C   UNL     1       4.318   2.525   4.253  0.00  0.00    +0.000 A 
ATOM     31  C   UNL     1       3.172   1.857   4.641  0.00  0.00    +0.000 A 
ATOM     32  C   UNL     1       3.193   0.484   4.801  0.00  0.00    +0.006 A 
ENDBRANCH  20  27
BRANCH  20  33
ATOM     33  C   UNL     1       3.001  -2.203   5.103  0.00  0.00    -0.013 A 
ATOM     34  C   UNL     1       2.312  -3.003   4.210  0.00  0.00    +0.006 A 
ATOM     35  C   UNL     1       1.041  -3.450   4.522  0.00  0.00    +0.000 A 
ATOM     36  C   UNL     1       0.460  -3.098   5.726  0.00  0.00    +0.000 A 
ATOM     37  C   UNL     1       1.150  -2.299   6.619  0.00  0.00    +0.000 A 
ATOM     38  C   UNL     1       2.422  -1.855   6.309  0.00  0.00    +0.006 A 
ENDBRANCH  20  33
ENDBRANCH  13  20
TORSDOF 5
