REMARK  Name = ZINC35664432
REMARK  13 active torsions:
REMARK  status: ('A' for Active; 'I' for Inactive)
REMARK    1  A    between atoms: C_1  and  C_2
REMARK    2  A    between atoms: C_2  and  N_3
REMARK    3  A    between atoms: C_4  and  C_21
REMARK    4  A    between atoms: C_5  and  C_16
REMARK    5  A    between atoms: C_6  and  C_11
REMARK    6  A    between atoms: C_16  and  O_18
REMARK    7  A    between atoms: O_18  and  C_19
REMARK    8  A    between atoms: C_19  and  C_20
REMARK    9  A    between atoms: C_21  and  N_22
REMARK   10  A    between atoms: N_31  and  C_32
REMARK   11  A    between atoms: C_32  and  C_33
REMARK   12  A    between atoms: C_32  and  C_34
REMARK   13  A    between atoms: C_32  and  C_35
REMARK                            x       y       z     vdW  Elec       q    Type
REMARK                         _______ _______ _______ _____ _____    ______ ____
ROOT
ATOM      1  N   UNL     1       0.661   0.033  -1.690  0.00  0.00    -0.261 N 
ATOM      2  C   UNL     1      -0.232  -0.848  -2.229  0.00  0.00    +0.010 C 
ATOM      3  C   UNL     1       0.188  -1.929  -2.922  0.00  0.00    +0.076 C 
ATOM      4  C   UNL     1       1.681  -2.129  -3.081  0.00  0.00    +0.144 C 
ATOM      5  N   UNL     1       2.559  -1.121  -2.462  0.00  0.00    -0.288 N 
ATOM      6  C   UNL     1       1.989  -0.092  -1.803  0.00  0.00    +0.307 C 
ATOM      7  O   UNL     1       2.705   0.747  -1.292  0.00  0.00    -0.252 OA
ATOM      8  H   UNL     1       3.524  -1.194  -2.529  0.00  0.00    +0.151 HD
ENDROOT
BRANCH   4   9
ATOM      9  C   UNL     1       1.990  -2.170  -4.555  0.00  0.00    -0.015 A 
ATOM     10  C   UNL     1       2.174  -3.379  -5.200  0.00  0.00    +0.013 A 
ATOM     11  C   UNL     1       2.451  -3.381  -6.527  0.00  0.00    +0.045 A 
ATOM     12  S   UNL     1       2.459  -1.636  -6.905  0.00  0.00    -0.105 S 
ATOM     13  C   UNL     1       2.087  -1.022  -5.270  0.00  0.00    +0.051 A 
ENDBRANCH   4   9
BRANCH   1  15
ATOM     14  C   UNL     1      -0.083   2.352  -1.913  0.00  0.00    +0.025 C 
ATOM     15  C   UNL     1       0.136   1.183  -0.950  0.00  0.00    +0.111 C 
ENDBRANCH   1  15
BRANCH   3  16
ATOM     16  C   UNL     1      -0.736  -2.843  -3.481  0.00  0.00    +0.339 C 
ATOM     17  O   UNL     1      -1.930  -2.618  -3.416  0.00  0.00    -0.245 OA
BRANCH  16  18
ATOM     18  O   UNL     1      -0.293  -3.966  -4.085  0.00  0.00    -0.462 OA
BRANCH  18  19
ATOM     19  C   UNL     1      -1.281  -4.844  -4.627  0.00  0.00    +0.229 C 
ATOM     20  C   UNL     1      -0.594  -6.052  -5.266  0.00  0.00    +0.048 C 
ENDBRANCH  18  19
ENDBRANCH  16  18
ENDBRANCH   3  16
BRANCH   2  21
ATOM     21  C   UNL     1      -1.709  -0.612  -2.047  0.00  0.00    -0.026 C 
BRANCH  21  22
ATOM     22  N   UNL     1      -2.213  -1.470  -0.967  0.00  0.00    +0.384 N 
ATOM     23  C   UNL     1      -3.673  -1.419  -0.981  0.00  0.00    -0.077 C 
ATOM     24  C   UNL     1      -4.223  -2.727  -0.455  0.00  0.00    +0.000 C 
ATOM     25  C   UNL     1      -4.486  -2.600   1.057  0.00  0.00    +0.107 C 
ATOM     26  N   UNL     1      -3.412  -1.835   1.720  0.00  0.00    -0.287 N 
ATOM     27  C   UNL     1      -2.013  -2.016   1.391  0.00  0.00    +0.091 C 
ATOM     28  C   UNL     1      -1.615  -1.058   0.245  0.00  0.00    -0.059 C 
ATOM     29  C   UNL     1      -3.744  -0.934   2.667  0.00  0.00    +0.303 C 
ATOM     30  O   UNL     1      -4.901  -0.830   3.026  0.00  0.00    -0.253 OA
ATOM     31  N   UNL     1      -2.795  -0.150   3.214  0.00  0.00    -0.294 N 
ATOM     32  H   UNL     1      -1.886  -0.182   2.877  0.00  0.00    +0.151 HD
ATOM     33  H   UNL     1      -1.927  -2.419  -1.156  0.00  0.00    -0.081 HD
BRANCH  31  34
ATOM     34  C   UNL     1      -3.136   0.750   4.319  0.00  0.00    +0.028 C 
ATOM     35  C   UNL     1      -3.666  -0.068   5.498  0.00  0.00    +0.031 C 
ATOM     36  C   UNL     1      -1.888   1.521   4.753  0.00  0.00    +0.031 C 
ATOM     37  C   UNL     1      -4.211   1.737   3.859  0.00  0.00    +0.031 C 
ENDBRANCH  31  34
ENDBRANCH  21  22
ENDBRANCH   2  21
TORSDOF 8
