REMARK  Name = ZINC11160263
REMARK  5 active torsions:
REMARK  status: ('A' for Active; 'I' for Inactive)
REMARK    1  A    between atoms: C_1  and  C_2
REMARK    2  A    between atoms: C_7  and  N_8
REMARK    3  A    between atoms: N_8  and  C_9
REMARK    4  A    between atoms: C_9  and  C_10
REMARK    5  A    between atoms: C_23  and  C_25
REMARK                            x       y       z     vdW  Elec       q    Type
REMARK                         _______ _______ _______ _____ _____    ______ ____
ROOT
ATOM      1  C   UNL     1       0.826   4.206   1.041  0.00  0.00    +0.237 C 
ATOM      2  O   UNL     1       0.831   5.418   0.991  0.00  0.00    -0.274 OA
ATOM      3  N   UNL     1       1.177   3.486  -0.042  0.00  0.00    -0.265 N 
ATOM      4  C   UNL     1       1.175   2.084   0.002  0.00  0.00    +0.058 A 
ATOM      5  C   UNL     1      -0.017   1.379   0.010  0.00  0.00    +0.025 A 
ATOM      6  C   UNL     1       0.002  -0.004   0.002  0.00  0.00    +0.002 A 
ATOM      7  C   UNL     1       1.206  -0.685  -0.011  0.00  0.00    +0.002 A 
ATOM      8  C   UNL     1       2.400   0.012  -0.005  0.00  0.00    +0.025 A 
ATOM      9  C   UNL     1       2.390   1.397   0.008  0.00  0.00    +0.055 A 
ATOM     10  N   UNL     1       3.586   2.124   0.044  0.00  0.00    -0.284 N 
ATOM     11  C   UNL     1       3.793   3.146  -0.814  0.00  0.00    +0.219 C 
ATOM     12  O   UNL     1       4.796   3.821  -0.717  0.00  0.00    -0.275 OA
ATOM     13  C   UNL     1       2.785   3.453  -1.890  0.00  0.00    +0.118 C 
ATOM     14  C   UNL     1       1.567   4.152  -1.286  0.00  0.00    +0.087 C 
ATOM     15  C   UNL     1       0.404   4.094  -2.278  0.00  0.00    +0.029 C 
ATOM     16  H   UNL     1       4.271   1.891   0.690  0.00  0.00    +0.155 HD
ENDROOT
BRANCH   1  17
ATOM     17  C   UNL     1       0.427   3.506   2.315  0.00  0.00    +0.198 C 
BRANCH  17  18
ATOM     18  N   UNL     1       0.093   4.503   3.336  0.00  0.00    -0.335 N 
ATOM     19  H   UNL     1       0.150   5.449   3.127  0.00  0.00    +0.147 HD
BRANCH  18  26
ATOM     20  C   UNL     1      -0.525   6.505   5.259  0.00  0.00    +0.045 C 
ATOM     21  C   UNL     1      -0.620   5.035   5.579  0.00  0.00    -0.029 A 
ATOM     22  C   UNL     1      -1.022   4.626   6.836  0.00  0.00    +0.008 A 
ATOM     23  C   UNL     1      -1.103   3.279   7.133  0.00  0.00    +0.039 A 
ATOM     24  C   UNL     1      -0.788   2.334   6.170  0.00  0.00    +0.125 A 
ATOM     25  C   UNL     1      -0.391   2.738   4.908  0.00  0.00    +0.061 A 
ATOM     26  C   UNL     1      -0.308   4.091   4.609  0.00  0.00    +0.033 A 
ATOM     27  F   UNL     1      -0.869   1.018   6.463  0.00  0.00    -0.205 F 
ENDBRANCH  18  26
ENDBRANCH  17  18
ENDBRANCH   1  17
TORSDOF 3
