REMARK  Name = ZINC28563646
REMARK  6 active torsions:
REMARK  status: ('A' for Active; 'I' for Inactive)
REMARK    1  A    between atoms: C_3  and  C_9
REMARK    2  A    between atoms: C_6  and  C_7
REMARK    3  A    between atoms: C_7  and  N_8
REMARK    4  A    between atoms: C_12  and  C_23
REMARK    5  A    between atoms: C_13  and  C_15
REMARK    6  A    between atoms: C_19  and  O_21
REMARK                            x       y       z     vdW  Elec       q    Type
REMARK                         _______ _______ _______ _____ _____    ______ ____
ROOT
ATOM      1  C   UNL     1      -0.067   0.115   0.125  0.00  0.00    +0.139 A 
ATOM      2  N   UNL     1       0.071   1.465  -0.010  0.00  0.00    -0.337 N 
ATOM      3  H   UNL     1      -0.818   2.113  -0.001  0.00  0.00    +0.167 HD
ATOM      4  C   UNL     1       1.417   1.725  -0.139  0.00  0.00    +0.074 A 
ATOM      5  C   UNL     1       2.059   0.499  -0.076  0.00  0.00    +0.097 A 
ATOM      6  N   UNL     1       1.120  -0.446   0.084  0.00  0.00    -0.227 NA
ENDROOT
BRANCH   5   7
ATOM      7  C   UNL     1       3.520   0.272  -0.168  0.00  0.00    +0.006 A 
ATOM      8  C   UNL     1       4.403   1.121   0.500  0.00  0.00    +0.012 A 
ATOM      9  C   UNL     1       5.764   0.907   0.412  0.00  0.00    +0.024 A 
ATOM     10  C   UNL     1       6.256  -0.147  -0.337  0.00  0.00    +0.082 A 
ATOM     11  C   UNL     1       5.383  -0.996  -1.005  0.00  0.00    +0.136 A 
ATOM     12  C   UNL     1       4.016  -0.792  -0.918  0.00  0.00    +0.057 A 
ATOM     13 CL   UNL     1       7.969  -0.409  -0.442  0.00  0.00    -0.080 Cl
BRANCH  11  14
ATOM     14  O   UNL     1       5.870  -2.030  -1.740  0.00  0.00    -0.505 OA
ATOM     15  H   UNL     1       5.179  -2.703  -2.269  0.00  0.00    +0.292 HD
ENDBRANCH  11  14
ENDBRANCH   5   7
BRANCH   1  18
ATOM     16  C   UNL     1      -2.562  -2.656   0.576  0.00  0.00    +0.002 A 
ATOM     17  C   UNL     1      -1.363  -1.993   0.420  0.00  0.00    +0.012 A 
ATOM     18  C   UNL     1      -1.349  -0.603   0.291  0.00  0.00    +0.017 A 
ATOM     19  C   UNL     1      -2.550   0.107   0.326  0.00  0.00    +0.012 A 
ATOM     20  C   UNL     1      -3.743  -0.570   0.478  0.00  0.00    +0.002 A 
ATOM     21  C   UNL     1      -3.750  -1.947   0.605  0.00  0.00    -0.065 A 
BRANCH  21  22
ATOM     22  C   UNL     1      -5.056  -2.679   0.775  0.00  0.00    -0.051 C 
BRANCH  22  23
ATOM     23  N   UNL     1      -5.372  -2.790   2.206  0.00  0.00    +0.381 N 
ATOM     24  H   UNL     1      -6.325  -3.324   2.330  0.00  0.00    -0.090 HD
ATOM     25  H   UNL     1      -5.455  -1.784   2.642  0.00  0.00    -0.090 HD
ATOM     26  H   UNL     1      -4.571  -3.345   2.716  0.00  0.00    -0.090 HD
ENDBRANCH  22  23
ENDBRANCH  21  22
ENDBRANCH   1  18
BRANCH   4  27
ATOM     27  C   UNL     1       2.049   3.046  -0.309  0.00  0.00    +0.003 A 
ATOM     28  C   UNL     1       3.028   3.255  -1.291  0.00  0.00    +0.030 A 
ATOM     29  C   UNL     1       3.589   4.508  -1.419  0.00  0.00    +0.111 A 
ATOM     30  N   UNL     1       3.223   5.499  -0.627  0.00  0.00    -0.263 NA
ATOM     31  C   UNL     1       2.310   5.344   0.314  0.00  0.00    +0.111 A 
ATOM     32  C   UNL     1       1.693   4.127   0.509  0.00  0.00    +0.030 A 
ENDBRANCH   4  27
TORSDOF 6
