REMARK  Name = ZINC28055994
REMARK  5 active torsions:
REMARK  status: ('A' for Active; 'I' for Inactive)
REMARK    1  A    between atoms: C_1  and  C_2
REMARK    2  A    between atoms: C_10  and  C_18
REMARK    3  A    between atoms: C_21  and  O_24
REMARK    4  A    between atoms: O_24  and  C_25
REMARK    5  A    between atoms: C_26  and  C_29
REMARK                            x       y       z     vdW  Elec       q    Type
REMARK                         _______ _______ _______ _____ _____    ______ ____
ROOT
ATOM      1  C   UNL     1       7.694   4.316   4.883  0.00  0.00    +0.044 C 
ATOM      2  C   UNL     1       6.656   3.287   4.516  0.00  0.00    -0.050 A 
ATOM      3  C   UNL     1       6.208   2.390   5.470  0.00  0.00    +0.007 A 
ATOM      4  C   UNL     1       5.255   1.440   5.149  0.00  0.00    +0.046 A 
ATOM      5  C   UNL     1       4.745   1.387   3.865  0.00  0.00    +0.131 A 
ATOM      6  C   UNL     1       5.199   2.293   2.898  0.00  0.00    +0.038 A 
ATOM      7  C   UNL     1       6.155   3.244   3.229  0.00  0.00    +0.016 A 
ATOM      8  C   UNL     1       4.633   2.205   1.531  0.00  0.00    +0.050 C 
ATOM      9  C   UNL     1       3.499   1.522   1.355  0.00  0.00    +0.025 C 
ATOM     10  C   UNL     1       2.849   1.370   0.002  0.00  0.00    +0.174 C 
ATOM     11  N   UNL     1       3.766   1.795  -1.046  0.00  0.00    -0.201 N 
ATOM     12  C   UNL     1       4.914   2.485  -0.814  0.00  0.00    +0.240 A 
ATOM     13  N   UNL     1       5.474   2.705  -1.968  0.00  0.00    -0.092 NA
ATOM     14  N   UNL     1       4.763   2.195  -2.915  0.00  0.00    -0.021 NA
ATOM     15  N   UNL     1       3.709   1.623  -2.428  0.00  0.00    -0.042 NA
ATOM     16  N   UNL     1       5.302   2.828   0.470  0.00  0.00    -0.282 N 
ATOM     17  C   UNL     1       2.830   0.885   2.552  0.00  0.00    +0.234 C 
ATOM     18  O   UNL     1       3.804   0.474   3.511  0.00  0.00    -0.479 OA
ATOM     19  H   UNL     1       6.100   3.557   0.676  0.00  0.00    +0.155 HD
ENDROOT
BRANCH  17  20
ATOM     20  C   UNL     1       1.896   1.882   3.188  0.00  0.00    -0.000 A 
ATOM     21  C   UNL     1       2.407   2.936   3.923  0.00  0.00    +0.009 A 
ATOM     22  C   UNL     1       1.551   3.851   4.508  0.00  0.00    +0.023 A 
ATOM     23  C   UNL     1       0.183   3.714   4.357  0.00  0.00    +0.076 A 
ATOM     24  C   UNL     1      -0.329   2.658   3.620  0.00  0.00    +0.142 A 
ATOM     25  C   UNL     1       0.530   1.745   3.032  0.00  0.00    +0.047 A 
ATOM     26  F   UNL     1      -1.665   2.523   3.471  0.00  0.00    -0.204 F 
ATOM     27 CL   UNL     1      -0.891   4.863   5.090  0.00  0.00    -0.081 Cl
ENDBRANCH  17  20
BRANCH  10  28
ATOM     28  C   UNL     1       1.603   2.216  -0.051  0.00  0.00    -0.018 A 
ATOM     29  C   UNL     1       0.375   1.623  -0.280  0.00  0.00    +0.009 A 
ATOM     30  C   UNL     1      -0.768   2.397  -0.335  0.00  0.00    +0.046 A 
ATOM     31  C   UNL     1      -0.684   3.769  -0.149  0.00  0.00    +0.120 A 
ATOM     32  C   UNL     1       0.549   4.362   0.081  0.00  0.00    +0.046 A 
ATOM     33  C   UNL     1       1.690   3.584   0.129  0.00  0.00    +0.009 A 
BRANCH  31  34
ATOM     34  O   UNL     1      -1.808   4.532  -0.198  0.00  0.00    -0.495 OA
ATOM     35  C   UNL     1      -3.042   3.854  -0.438  0.00  0.00    +0.277 C 
ENDBRANCH  31  34
ENDBRANCH  10  28
TORSDOF 3
