REMARK  Name = ZINC54213561
REMARK  3 active torsions:
REMARK  status: ('A' for Active; 'I' for Inactive)
REMARK    1  A    between atoms: C_3  and  C_9
REMARK    2  A    between atoms: C_9  and  C_11
REMARK    3  A    between atoms: C_9  and  O_23
REMARK                            x       y       z     vdW  Elec       q    Type
REMARK                         _______ _______ _______ _____ _____    ______ ____
ROOT
ATOM      1  C   UNL     1       4.151   2.349  -1.442  0.00  0.00    -0.013 A 
ATOM      2  C   UNL     1       3.678   3.394  -2.217  0.00  0.00    +0.008 A 
ATOM      3  C   UNL     1       4.112   3.548  -3.519  0.00  0.00    +0.028 A 
ATOM      4  C   UNL     1       5.026   2.652  -4.052  0.00  0.00    +0.067 A 
ATOM      5  C   UNL     1       5.503   1.597  -3.271  0.00  0.00    +0.067 A 
ATOM      6  C   UNL     1       5.065   1.454  -1.963  0.00  0.00    +0.034 A 
ATOM      7  N   UNL     1       6.392   0.878  -4.066  0.00  0.00    -0.306 N 
ATOM      8  H   UNL     1       6.883   0.086  -3.795  0.00  0.00    +0.170 HD
ATOM      9  C   UNL     1       6.453   1.467  -5.275  0.00  0.00    +0.325 A 
ATOM     10  O   UNL     1       7.139   1.088  -6.205  0.00  0.00    -0.247 OA
ATOM     11  N   UNL     1       5.640   2.540  -5.297  0.00  0.00    -0.306 N 
ATOM     12  H   UNL     1       5.505   3.134  -6.052  0.00  0.00    +0.170 HD
ENDROOT
BRANCH   1  13
ATOM     13  C   UNL     1       3.671   2.190  -0.023  0.00  0.00    +0.178 C 
BRANCH  13  16
ATOM     14  C   UNL     1      -0.017   1.378   0.010  0.00  0.00    +0.003 A 
ATOM     15  C   UNL     1       1.170   2.087   0.002  0.00  0.00    +0.009 A 
ATOM     16  C   UNL     1       2.378   1.415  -0.013  0.00  0.00    +0.023 A 
ATOM     17  C   UNL     1       2.400   0.031  -0.021  0.00  0.00    +0.164 A 
ATOM     18  C   UNL     1       1.210  -0.680  -0.013  0.00  0.00    +0.159 A 
ATOM     19  C   UNL     1       0.002  -0.004   0.002  0.00  0.00    +0.041 A 
ATOM     20  F   UNL     1       1.229  -2.031  -0.021  0.00  0.00    -0.202 F 
ATOM     21  F   UNL     1       3.580  -0.626  -0.037  0.00  0.00    -0.202 F 
ENDBRANCH  13  16
BRANCH  13  22
ATOM     22  O   UNL     1       3.458   3.479   0.555  0.00  0.00    -0.382 OA
ATOM     23  H   UNL     1       2.801   4.015   0.090  0.00  0.00    +0.211 HD
ENDBRANCH  13  22
ENDBRANCH   1  13
TORSDOF 3
