REMARK  Name = ZINC08828324
REMARK  5 active torsions:
REMARK  status: ('A' for Active; 'I' for Inactive)
REMARK    1  A    between atoms: C_4  and  C_7
REMARK    2  A    between atoms: C_8  and  C_9
REMARK    3  A    between atoms: N_13  and  C_17
REMARK    4  A    between atoms: C_20  and  O_25
REMARK    5  A    between atoms: C_21  and  C_23
REMARK                            x       y       z     vdW  Elec       q    Type
REMARK                         _______ _______ _______ _____ _____    ______ ____
ROOT
ATOM      1  C   UNL     1      -0.212  -7.195  -2.168  0.00  0.00    +0.040 C 
ATOM      2  C   UNL     1      -0.185  -6.289  -1.148  0.00  0.00    +0.078 C 
ATOM      3  C   UNL     1      -0.271  -4.817  -1.195  0.00  0.00    +0.263 C 
ATOM      4  O   UNL     1      -0.387  -4.217  -2.248  0.00  0.00    -0.269 OA
ATOM      5  N   UNL     1      -0.218  -4.183  -0.036  0.00  0.00    -0.224 N 
ATOM      6  C   UNL     1      -0.085  -4.851   1.128  0.00  0.00    +0.125 C 
ATOM      7  S   UNL     1       0.009  -4.215   2.715  0.00  0.00    -0.027 S 
ATOM      8  S   UNL     1      -0.034  -6.560   0.613  0.00  0.00    -0.061 S 
ENDROOT
BRANCH   5   9
ATOM      9  C   UNL     1      -0.295  -2.782  -0.018  0.00  0.00    +0.044 A 
ATOM     10  C   UNL     1      -1.400  -2.155   0.550  0.00  0.00    +0.027 A 
ATOM     11  C   UNL     1      -1.483  -0.778   0.577  0.00  0.00    +0.048 A 
ATOM     12  C   UNL     1      -0.468  -0.008   0.029  0.00  0.00    +0.131 A 
ATOM     13  C   UNL     1       0.649  -0.632  -0.544  0.00  0.00    +0.106 A 
ATOM     14  C   UNL     1       0.728  -2.027  -0.563  0.00  0.00    +0.042 A 
BRANCH  13  15
ATOM     15  C   UNL     1       1.735   0.179  -1.123  0.00  0.00    +0.390 C 
ATOM     16  O   UNL     1       1.663   1.392  -1.105  0.00  0.00    -0.240 OA
ATOM     17  O   UNL     1       2.807  -0.424  -1.673  0.00  0.00    -0.240 OA
ENDBRANCH  13  15
BRANCH  12  18
ATOM     18  O   UNL     1      -0.553   1.346   0.053  0.00  0.00    -0.506 OA
ATOM     19  H   UNL     1      -0.987   1.726  -0.724  0.00  0.00    +0.292 HD
ENDBRANCH  12  18
ENDBRANCH   5   9
BRANCH   1  21
ATOM     20  C   UNL     1      -0.140  -9.473  -2.902  0.00  0.00    +0.028 C 
ATOM     21  C   UNL     1      -0.113  -8.573  -1.889  0.00  0.00    +0.043 C 
ATOM     22 CL   UNL     1       0.044  -9.118  -0.248  0.00  0.00    -0.083 Cl
BRANCH  20  26
ATOM     23  C   UNL     1      -0.317 -13.623  -2.049  0.00  0.00    +0.000 A 
ATOM     24  C   UNL     1      -0.929 -12.718  -1.198  0.00  0.00    +0.001 A 
ATOM     25  C   UNL     1      -0.876 -11.367  -1.468  0.00  0.00    +0.008 A 
ATOM     26  C   UNL     1      -0.201 -10.912  -2.606  0.00  0.00    -0.024 A 
ATOM     27  C   UNL     1       0.409 -11.833  -3.464  0.00  0.00    +0.008 A 
ATOM     28  C   UNL     1       0.352 -13.180  -3.176  0.00  0.00    +0.001 A 
ENDBRANCH  20  26
ENDBRANCH   1  21
TORSDOF 5
