REMARK  Name = ZINC39896576
REMARK  11 active torsions:
REMARK  status: ('A' for Active; 'I' for Inactive)
REMARK    1  A    between atoms: C_1  and  C_2
REMARK    2  A    between atoms: C_2  and  C_3
REMARK    3  A    between atoms: C_6  and  N_9
REMARK    4  A    between atoms: C_12  and  C_31
REMARK    5  A    between atoms: C_16  and  C_17
REMARK    6  A    between atoms: C_16  and  C_19
REMARK    7  A    between atoms: N_21  and  C_22
REMARK    8  A    between atoms: C_22  and  C_24
REMARK    9  A    between atoms: C_22  and  C_25
REMARK   10  A    between atoms: C_31  and  C_32
REMARK   11  A    between atoms: C_35  and  C_38
REMARK                            x       y       z     vdW  Elec       q    Type
REMARK                         _______ _______ _______ _____ _____    ______ ____
ROOT
ATOM      1  N   UNL     1       3.217  -1.567  -4.846  0.00  0.00    -0.232 N 
ATOM      2  C   UNL     1       2.669  -1.633  -6.048  0.00  0.00    +0.238 C 
ATOM      3  O   UNL     1       1.561  -1.198  -6.277  0.00  0.00    -0.274 OA
ATOM      4  C   UNL     1       3.518  -2.290  -7.125  0.00  0.00    +0.143 C 
ATOM      5  S   UNL     1       5.021  -2.706  -6.147  0.00  0.00    -0.095 S 
ATOM      6  C   UNL     1       4.474  -2.051  -4.578  0.00  0.00    +0.098 C 
ATOM      7  C   UNL     1       5.162  -2.036  -3.364  0.00  0.00    +0.141 C 
ENDROOT
BRANCH   1  11
ATOM      8  C   UNL     1       1.050   0.199  -1.754  0.00  0.00    -0.048 A 
ATOM      9  C   UNL     1       0.816  -1.120  -2.095  0.00  0.00    +0.005 A 
ATOM     10  C   UNL     1       1.532  -1.708  -3.119  0.00  0.00    +0.024 A 
ATOM     11  C   UNL     1       2.488  -0.973  -3.807  0.00  0.00    +0.042 A 
ATOM     12  C   UNL     1       2.721   0.352  -3.463  0.00  0.00    +0.024 A 
ATOM     13  C   UNL     1       1.998   0.936  -2.441  0.00  0.00    +0.005 A 
BRANCH   8  15
ATOM     14  C   UNL     1      -0.967   1.534  -1.211  0.00  0.00    +0.009 C 
ATOM     15  C   UNL     1       0.268   0.837  -0.636  0.00  0.00    +0.032 C 
ENDBRANCH   8  15
ENDBRANCH   1  11
BRANCH   7  16
ATOM     16  C   UNL     1       4.484  -1.596  -2.145  0.00  0.00    +0.257 C 
ATOM     17  O   UNL     1       4.538  -0.428  -1.805  0.00  0.00    -0.269 OA
ATOM     18  N   UNL     1       3.798  -2.484  -1.397  0.00  0.00    -0.304 N 
ATOM     19  H   UNL     1       3.790  -3.422  -1.644  0.00  0.00    +0.150 HD
BRANCH  18  20
ATOM     20  C   UNL     1       3.066  -2.032  -0.211  0.00  0.00    +0.100 C 
ATOM     21  C   UNL     1       4.048  -1.818   0.943  0.00  0.00    +0.033 C 
BRANCH  20  22
ATOM     22  C   UNL     1       2.051  -3.075   0.180  0.00  0.00    -0.027 A 
ATOM     23  C   UNL     1       2.373  -4.417   0.101  0.00  0.00    +0.005 A 
ATOM     24  C   UNL     1       1.441  -5.373   0.460  0.00  0.00    +0.000 A 
ATOM     25  C   UNL     1       0.188  -4.987   0.898  0.00  0.00    +0.000 A 
ATOM     26  C   UNL     1      -0.133  -3.645   0.978  0.00  0.00    +0.000 A 
ATOM     27  C   UNL     1       0.800  -2.689   0.623  0.00  0.00    +0.005 A 
ENDBRANCH  20  22
ENDBRANCH  18  20
ENDBRANCH   7  16
BRANCH   7  28
ATOM     28  C   UNL     1       6.531  -2.451  -3.311  0.00  0.00    +0.107 C 
ATOM     29  N   UNL     1       7.617  -2.781  -3.269  0.00  0.00    -0.191 NA
ENDBRANCH   7  28
BRANCH   4  30
ATOM     30  C   UNL     1       2.844  -3.550  -7.672  0.00  0.00    +0.059 C 
BRANCH  30  31
ATOM     31  C   UNL     1       3.657  -4.098  -8.817  0.00  0.00    -0.046 A 
ATOM     32  C   UNL     1       3.404  -3.675 -10.108  0.00  0.00    +0.004 A 
ATOM     33  C   UNL     1       4.149  -4.178 -11.159  0.00  0.00    +0.003 A 
ATOM     34  C   UNL     1       5.147  -5.103 -10.917  0.00  0.00    -0.050 A 
ATOM     35  C   UNL     1       5.401  -5.524  -9.626  0.00  0.00    +0.003 A 
ATOM     36  C   UNL     1       4.659  -5.019  -8.575  0.00  0.00    +0.004 A 
ATOM     37  C   UNL     1       5.959  -5.651 -12.062  0.00  0.00    +0.044 C 
ENDBRANCH  30  31
ENDBRANCH   4  30
TORSDOF 8
