REMARK  Name = ZINC56383243
REMARK  5 active torsions:
REMARK  status: ('A' for Active; 'I' for Inactive)
REMARK    1  A    between atoms: C_6  and  C_7
REMARK    2  A    between atoms: C_7  and  C_8
REMARK    3  A    between atoms: C_7  and  N_15
REMARK    4  A    between atoms: N_18  and  C_19
REMARK    5  A    between atoms: C_22  and  O_25
REMARK                            x       y       z     vdW  Elec       q    Type
REMARK                         _______ _______ _______ _____ _____    ______ ____
ROOT
ATOM      1  C   UNL     1      -1.293  -0.775   0.010  0.00  0.00    +0.135 C 
ENDROOT
BRANCH   1   7
ATOM      2  C   UNL     1      -0.017   1.378   0.010  0.00  0.00    +0.007 A 
ATOM      3  C   UNL     1       1.171   2.086   0.002  0.00  0.00    +0.020 A 
ATOM      4  C   UNL     1       2.378   1.410  -0.013  0.00  0.00    +0.041 A 
ATOM      5  C   UNL     1       2.396   0.027  -0.021  0.00  0.00    +0.020 A 
ATOM      6  C   UNL     1       1.208  -0.679  -0.013  0.00  0.00    +0.007 A 
ATOM      7  C   UNL     1       0.002  -0.004   0.002  0.00  0.00    -0.023 A 
ATOM      8 CL   UNL     1       3.870   2.298  -0.023  0.00  0.00    -0.084 Cl
ENDBRANCH   1   7
BRANCH   1   9
ATOM      9  C   UNL     1      -1.611  -1.236  -1.389  0.00  0.00    -0.023 A 
ATOM     10  C   UNL     1      -0.992  -2.360  -1.903  0.00  0.00    +0.007 A 
ATOM     11  C   UNL     1      -1.284  -2.784  -3.186  0.00  0.00    +0.020 A 
ATOM     12  C   UNL     1      -2.197  -2.083  -3.955  0.00  0.00    +0.041 A 
ATOM     13  C   UNL     1      -2.817  -0.959  -3.439  0.00  0.00    +0.020 A 
ATOM     14  C   UNL     1      -2.527  -0.539  -2.154  0.00  0.00    +0.007 A 
ATOM     15 CL   UNL     1      -2.563  -2.615  -5.566  0.00  0.00    -0.084 Cl
ENDBRANCH   1   9
BRANCH   1  16
ATOM     16  N   UNL     1      -1.163  -1.939   0.891  0.00  0.00    -0.289 N 
ATOM     17  C   UNL     1      -2.259  -2.480   1.458  0.00  0.00    +0.301 C 
ATOM     18  O   UNL     1      -3.356  -2.003   1.239  0.00  0.00    -0.253 OA
ATOM     19  N   UNL     1      -2.139  -3.551   2.268  0.00  0.00    -0.297 N 
ATOM     20  H   UNL     1      -0.288  -2.319   1.065  0.00  0.00    +0.151 HD
ATOM     21  H   UNL     1      -1.264  -3.932   2.442  0.00  0.00    +0.151 HD
BRANCH  19  22
ATOM     22  C   UNL     1      -3.331  -4.140   2.884  0.00  0.00    +0.075 C 
ATOM     23  C   UNL     1      -3.971  -5.132   1.911  0.00  0.00    +0.025 C 
ATOM     24  C   UNL     1      -5.215  -5.747   2.555  0.00  0.00    +0.033 C 
ATOM     25  C   UNL     1      -4.817  -6.477   3.839  0.00  0.00    +0.115 C 
ATOM     26  C   UNL     1      -4.176  -5.485   4.812  0.00  0.00    +0.033 C 
ATOM     27  C   UNL     1      -2.932  -4.870   4.168  0.00  0.00    +0.025 C 
BRANCH  25  28
ATOM     28  O   UNL     1      -3.881  -7.511   3.528  0.00  0.00    -0.392 OA
ATOM     29  H   UNL     1      -3.584  -8.017   4.297  0.00  0.00    +0.210 HD
ENDBRANCH  25  28
ENDBRANCH  19  22
ENDBRANCH   1  16
TORSDOF 5
