REMARK  Name = ZINC26781813
REMARK  6 active torsions:
REMARK  status: ('A' for Active; 'I' for Inactive)
REMARK    1  A    between atoms: C_1  and  C_2
REMARK    2  A    between atoms: C_6  and  C_14
REMARK    3  A    between atoms: C_12  and  C_13
REMARK    4  A    between atoms: C_14  and  N_15
REMARK    5  A    between atoms: N_15  and  C_16
REMARK    6  A    between atoms: C_21  and  N_22
REMARK                            x       y       z     vdW  Elec       q    Type
REMARK                         _______ _______ _______ _____ _____    ______ ____
ROOT
ATOM      1  C   UNL     1       0.066  -5.012  -1.320  0.00  0.00    +0.137 C 
ENDROOT
BRANCH   1   7
ATOM      2  C   UNL     1      -0.018   1.503   0.010  0.00  0.00    +0.044 C 
ATOM      3  C   UNL     1       0.002  -0.004   0.002  0.00  0.00    -0.044 A 
ATOM      4  C   UNL     1       0.006  -0.684  -1.207  0.00  0.00    +0.004 A 
ATOM      5  C   UNL     1       0.025  -2.050  -1.235  0.00  0.00    +0.012 A 
ATOM      6  C   UNL     1       0.040  -2.768  -0.035  0.00  0.00    +0.023 A 
ATOM      7  C   UNL     1       0.061  -4.234  -0.030  0.00  0.00    -0.013 A 
ATOM      8  C   UNL     1       0.077  -4.870   1.169  0.00  0.00    +0.097 A 
ATOM      9  C   UNL     1       0.072  -4.118   2.363  0.00  0.00    +0.338 A 
ATOM     10  O   UNL     1       0.086  -4.701   3.432  0.00  0.00    -0.245 OA
ATOM     11  O   UNL     1       0.053  -2.776   2.350  0.00  0.00    -0.422 OA
ATOM     12  C   UNL     1       0.037  -2.082   1.193  0.00  0.00    +0.142 A 
ATOM     13  C   UNL     1       0.023  -0.693   1.196  0.00  0.00    -0.005 A 
ATOM     14  C   UNL     1       0.025   0.059   2.502  0.00  0.00    +0.048 C 
ENDBRANCH   1   7
BRANCH   1  15
ATOM     15  N   UNL     1      -1.311  -5.181  -1.793  0.00  0.00    -0.338 N 
ATOM     16  H   UNL     1      -2.048  -4.811  -1.283  0.00  0.00    +0.146 HD
BRANCH  15  17
ATOM     17  C   UNL     1      -1.562  -5.876  -2.981  0.00  0.00    +0.049 A 
ATOM     18  C   UNL     1      -0.510  -6.411  -3.710  0.00  0.00    +0.025 A 
ATOM     19  C   UNL     1      -0.760  -7.098  -4.883  0.00  0.00    +0.002 A 
ATOM     20  C   UNL     1      -2.058  -7.254  -5.333  0.00  0.00    +0.002 A 
ATOM     21  C   UNL     1      -3.113  -6.724  -4.614  0.00  0.00    +0.025 A 
ATOM     22  C   UNL     1      -2.871  -6.038  -3.433  0.00  0.00    +0.057 A 
BRANCH  22  23
ATOM     23  N   UNL     1      -3.939  -5.505  -2.699  0.00  0.00    -0.270 N 
ATOM     24  C   UNL     1      -4.487  -4.157  -2.893  0.00  0.00    +0.114 C 
ATOM     25  C   UNL     1      -5.872  -4.172  -2.210  0.00  0.00    +0.029 C 
ATOM     26  C   UNL     1      -5.692  -5.291  -1.157  0.00  0.00    +0.098 C 
ATOM     27  C   UNL     1      -4.598  -6.164  -1.730  0.00  0.00    +0.220 C 
ATOM     28  O   UNL     1      -4.349  -7.294  -1.366  0.00  0.00    -0.275 OA
ENDBRANCH  22  23
ENDBRANCH  15  17
ENDBRANCH   1  15
TORSDOF 4
