REMARK  Name = ZINC39532680
REMARK  12 active torsions:
REMARK  status: ('A' for Active; 'I' for Inactive)
REMARK    1  A    between atoms: C_1  and  C_2
REMARK    2  A    between atoms: C_2  and  C_3
REMARK    3  A    between atoms: C_3  and  C_4
REMARK    4  A    between atoms: C_7  and  C_10
REMARK    5  A    between atoms: C_10  and  C_12
REMARK    6  A    between atoms: C_10  and  N_24
REMARK    7  A    between atoms: C_12  and  N_13
REMARK    8  A    between atoms: N_13  and  S_14
REMARK    9  A    between atoms: S_14  and  O_17
REMARK   10  A    between atoms: O_17  and  C_18
REMARK   11  A    between atoms: C_28  and  C_31
REMARK   12  A    between atoms: C_36  and  O_37
REMARK                            x       y       z     vdW  Elec       q    Type
REMARK                         _______ _______ _______ _____ _____    ______ ____
ROOT
ATOM      1  C   UNL     1      -1.355  -6.312  -0.019  0.00  0.00    -0.060 C 
ENDROOT
BRANCH   1   2
ATOM      2  N   UNL     1      -2.185  -6.446   1.186  0.00  0.00    +0.381 N 
ATOM      3  C   UNL     1      -2.145  -7.838   1.655  0.00  0.00    -0.098 C 
ATOM      4  C   UNL     1      -3.010  -7.978   2.910  0.00  0.00    -0.101 C 
ATOM      5  N   UNL     1      -4.395  -7.607   2.594  0.00  0.00    +0.381 N 
ATOM      6  C   UNL     1      -4.436  -6.216   2.124  0.00  0.00    -0.054 C 
ATOM      7  C   UNL     1      -3.571  -6.076   0.869  0.00  0.00    -0.090 C 
ATOM      8  H   UNL     1      -4.750  -8.216   1.871  0.00  0.00    -0.085 HD
ATOM      9  H   UNL     1      -4.965  -7.700   3.421  0.00  0.00    -0.085 HD
ATOM     10  H   UNL     1      -1.831  -5.837   1.908  0.00  0.00    -0.081 HD
BRANCH   6  11
ATOM     11  C   UNL     1      -5.857  -5.836   1.800  0.00  0.00    -0.022 A 
ATOM     12  C   UNL     1      -6.800  -6.819   1.567  0.00  0.00    +0.005 A 
ATOM     13  C   UNL     1      -8.104  -6.472   1.269  0.00  0.00    +0.000 A 
ATOM     14  C   UNL     1      -8.469  -5.140   1.203  0.00  0.00    +0.004 A 
ATOM     15  C   UNL     1      -7.531  -4.153   1.435  0.00  0.00    +0.045 A 
ATOM     16  C   UNL     1      -6.222  -4.499   1.740  0.00  0.00    +0.118 A 
BRANCH  16  17
ATOM     17  O   UNL     1      -5.299  -3.530   1.974  0.00  0.00    -0.507 OA
ATOM     18  H   UNL     1      -4.830  -3.234   1.182  0.00  0.00    +0.292 HD
ENDBRANCH  16  17
ENDBRANCH   6  11
ENDBRANCH   1   2
BRANCH   1  22
ATOM     19  C   UNL     1      -1.813  -2.382  -1.630  0.00  0.00    -0.047 A 
ATOM     20  C   UNL     1      -1.742  -3.473  -2.477  0.00  0.00    +0.004 A 
ATOM     21  C   UNL     1      -1.593  -4.744  -1.956  0.00  0.00    +0.002 A 
ATOM     22  C   UNL     1      -1.516  -4.925  -0.588  0.00  0.00    -0.063 A 
ATOM     23  C   UNL     1      -1.587  -3.835   0.259  0.00  0.00    +0.002 A 
ATOM     24  C   UNL     1      -1.731  -2.563  -0.262  0.00  0.00    +0.004 A 
BRANCH  19  25
ATOM     25  C   UNL     1      -1.975  -0.996  -2.199  0.00  0.00    +0.035 C 
BRANCH  25  27
ATOM     26  C   UNL     1      -0.760   1.020  -3.036  0.00  0.00    +0.004 C 
ATOM     27  C   UNL     1      -0.596  -0.387  -2.459  0.00  0.00    +0.001 C 
ENDBRANCH  25  27
ENDBRANCH  19  25
ENDBRANCH   1  22
BRANCH   1  28
ATOM     28  C   UNL     1       0.112  -6.547   0.344  0.00  0.00    -0.121 C 
BRANCH  28  29
ATOM     29  N   UNL     1       0.298  -7.944   0.744  0.00  0.00    +0.491 NA
BRANCH  29  30
ATOM     30  S   UNL     1       1.798  -8.484   1.192  0.00  0.00    +0.066 S 
ATOM     31  O   UNL     1       2.616  -8.421   0.033  0.00  0.00    -0.159 OA
ATOM     32  O   UNL     1       2.130  -7.808   2.397  0.00  0.00    -0.159 OA
BRANCH  30  33
ATOM     33  O   UNL     1       1.658  -9.958   1.546  0.00  0.00    -0.362 OA
BRANCH  33  34
ATOM     34  C   UNL     1       1.528 -10.775   0.467  0.00  0.00    +0.154 A 
ATOM     35  C   UNL     1       0.269 -11.063  -0.038  0.00  0.00    +0.048 A 
ATOM     36  C   UNL     1       0.139 -11.893  -1.134  0.00  0.00    +0.004 A 
ATOM     37  C   UNL     1       1.263 -12.438  -1.728  0.00  0.00    +0.000 A 
ATOM     38  C   UNL     1       2.519 -12.152  -1.226  0.00  0.00    +0.004 A 
ATOM     39  C   UNL     1       2.655 -11.318  -0.134  0.00  0.00    +0.048 A 
ENDBRANCH  33  34
ENDBRANCH  30  33
ENDBRANCH  29  30
ENDBRANCH  28  29
ENDBRANCH   1  28
TORSDOF 11
