REMARK  Name = ZINC08917797
REMARK  12 active torsions:
REMARK  status: ('A' for Active; 'I' for Inactive)
REMARK    1  A    between atoms: C_1  and  C_2
REMARK    2  A    between atoms: C_2  and  C_33
REMARK    3  A    between atoms: C_3  and  C_4
REMARK    4  A    between atoms: C_4  and  C_5
REMARK    5  A    between atoms: C_5  and  C_6
REMARK    6  A    between atoms: C_10  and  C_13
REMARK    7  A    between atoms: C_13  and  C_16
REMARK    8  A    between atoms: N_14  and  O_15
REMARK    9  A    between atoms: C_16  and  C_17
REMARK   10  A    between atoms: C_24  and  O_25
REMARK   11  A    between atoms: O_25  and  C_26
REMARK   12  A    between atoms: C_32  and  N_68
REMARK                            x       y       z     vdW  Elec       q    Type
REMARK                         _______ _______ _______ _____ _____    ______ ____
ROOT
ATOM      1  C   UNL     1       1.519   6.144  -1.313  0.00  0.00    +0.048 C 
ENDROOT
BRANCH   1   2
ATOM      2  C   UNL     1       0.758   6.756  -0.135  0.00  0.00    -0.028 C 
ATOM      3  C   UNL     1      -0.651   6.226  -0.124  0.00  0.00    -0.012 A 
ATOM      4  C   UNL     1      -1.277   5.846   1.044  0.00  0.00    -0.040 A 
ATOM      5  C   UNL     1      -2.579   5.369   1.010  0.00  0.00    +0.053 A 
ATOM      6  C   UNL     1      -3.258   5.263  -0.192  0.00  0.00    +0.170 A 
ATOM      7  C   UNL     1      -2.631   5.647  -1.373  0.00  0.00    +0.208 A 
ATOM      8  C   UNL     1      -1.329   6.125  -1.335  0.00  0.00    +0.167 A 
ATOM      9  O   UNL     1      -3.499   5.455  -2.411  0.00  0.00    -0.449 OA
ATOM     10  C   UNL     1      -4.801   5.342  -1.806  0.00  0.00    +0.467 C 
ATOM     11  O   UNL     1      -4.521   4.839  -0.486  0.00  0.00    -0.452 OA
ATOM     12  C   UNL     1      -0.579   5.928   2.378  0.00  0.00    +0.017 C 
ATOM     13  C   UNL     1       0.643   6.841   2.271  0.00  0.00    -0.074 C 
ATOM     14  C   UNL     1       2.788   7.008   1.156  0.00  0.00    -0.095 C 
ATOM     15  N   UNL     1       1.445   6.389   1.115  0.00  0.00    +0.383 N 
ATOM     16  H   UNL     1       1.546   5.368   1.155  0.00  0.00    -0.081 HD
BRANCH   8  17
ATOM     17  O   UNL     1      -0.711   6.496  -2.489  0.00  0.00    -0.491 OA
ATOM     18  C   UNL     1      -0.908   7.841  -2.927  0.00  0.00    +0.277 C 
ENDBRANCH   8  17
ENDBRANCH   1   2
BRANCH   1  19
ATOM     19  C   UNL     1       2.887   6.769  -1.407  0.00  0.00    +0.082 C 
ATOM     20  N   UNL     1       3.945   6.040  -1.244  0.00  0.00    -0.092 NA
BRANCH  19  24
ATOM     21  C   UNL     1       3.220  11.001  -1.812  0.00  0.00    -0.007 C 
ATOM     22  C   UNL     1       4.404  10.169  -2.320  0.00  0.00    +0.008 C 
ATOM     23  C   UNL     1       4.389   8.817  -1.606  0.00  0.00    +0.037 C 
ATOM     24  C   UNL     1       3.020   8.206  -1.683  0.00  0.00    -0.027 C 
ATOM     25  C   UNL     1       1.934   8.881  -1.990  0.00  0.00    -0.021 C 
ATOM     26  C   UNL     1       1.924  10.350  -2.299  0.00  0.00    +0.031 C 
BRANCH  21  27
ATOM     27  C   UNL     1       3.321  12.427  -2.358  0.00  0.00    +0.008 C 
BRANCH  27  28
ATOM     28  C   UNL     1       2.210  13.286  -1.750  0.00  0.00    +0.027 C 
BRANCH  28  31
ATOM     29  C   UNL     1      -0.023  14.488  -2.982  0.00  0.00    +0.038 C 
ATOM     30  C   UNL     1       1.288  15.228  -2.908  0.00  0.00    -0.080 C 
ATOM     31  C   UNL     1       2.309  14.690  -2.289  0.00  0.00    -0.028 C 
ATOM     32  C   UNL     1       1.423  16.586  -3.546  0.00  0.00    +0.038 C 
ENDBRANCH  28  31
ENDBRANCH  27  28
ENDBRANCH  21  27
ENDBRANCH  19  24
BRANCH  20  33
ATOM     33  O   UNL     1       3.822   4.637  -1.094  0.00  0.00    -0.409 OA
ATOM     34  H   UNL     1       4.657   4.188  -0.902  0.00  0.00    +0.328 HD
ENDBRANCH  20  33
ENDBRANCH   1  19
TORSDOF 8
