REMARK  Name = ZINC38831913
REMARK  12 active torsions:
REMARK  status: ('A' for Active; 'I' for Inactive)
REMARK    1  A    between atoms: C_1  and  C_2
REMARK    2  A    between atoms: N_5  and  C_8
REMARK    3  A    between atoms: C_8  and  C_9
REMARK    4  A    between atoms: C_12  and  C_15
REMARK    5  A    between atoms: C_15  and  N_16
REMARK    6  A    between atoms: C_17  and  C_19
REMARK    7  A    between atoms: N_22  and  S_34
REMARK    8  A    between atoms: C_25  and  C_30
REMARK    9  A    between atoms: C_30  and  C_31
REMARK   10  A    between atoms: C_30  and  C_32
REMARK   11  A    between atoms: C_30  and  C_33
REMARK   12  A    between atoms: S_34  and  C_37
REMARK                            x       y       z     vdW  Elec       q    Type
REMARK                         _______ _______ _______ _____ _____    ______ ____
ROOT
ATOM      1  N   UNL     1       5.320  -4.317   5.267  0.00  0.00    -0.308 N 
ATOM      2  C   UNL     1       6.140  -4.468   6.327  0.00  0.00    +0.256 C 
ATOM      3  O   UNL     1       6.502  -5.577   6.659  0.00  0.00    -0.272 OA
ATOM      4  H   UNL     1       5.030  -3.430   5.001  0.00  0.00    +0.149 HD
ENDROOT
BRANCH   2   5
ATOM      5  C   UNL     1       6.605  -3.260   7.098  0.00  0.00    +0.277 C 
ATOM      6  C   UNL     1       7.491  -2.386   6.198  0.00  0.00    +0.185 C 
ATOM      7  N   UNL     1       7.960  -1.248   7.007  0.00  0.00    -0.200 N 
ATOM      8  C   UNL     1       8.370  -1.508   8.324  0.00  0.00    +0.093 A 
ATOM      9  C   UNL     1       9.081  -0.552   9.033  0.00  0.00    +0.032 A 
ATOM     10  C   UNL     1       9.480  -0.812  10.331  0.00  0.00    -0.040 A 
ATOM     11  C   UNL     1       9.169  -2.023  10.921  0.00  0.00    +0.008 A 
ATOM     12  C   UNL     1       8.462  -2.981  10.219  0.00  0.00    +0.048 A 
ATOM     13  C   UNL     1       8.059  -2.730   8.916  0.00  0.00    +0.144 A 
ATOM     14  O   UNL     1       7.368  -3.680   8.231  0.00  0.00    -0.476 OA
BRANCH  10  15
ATOM     15  C   UNL     1      10.253   0.226  11.103  0.00  0.00    -0.013 C 
ATOM     16  C   UNL     1       9.417   1.501  11.221  0.00  0.00    +0.015 C 
ATOM     17  C   UNL     1      10.568  -0.309  12.501  0.00  0.00    +0.015 C 
ATOM     18  C   UNL     1      11.559   0.538  10.370  0.00  0.00    +0.015 C 
ENDBRANCH  10  15
BRANCH   7  19
ATOM     19  S   UNL     1       8.003   0.286   6.384  0.00  0.00    +0.043 S 
ATOM     20  O   UNL     1       7.135   0.245   5.260  0.00  0.00    -0.155 OA
ATOM     21  O   UNL     1       7.719   1.134   7.488  0.00  0.00    -0.155 OA
ATOM     22  C   UNL     1       9.718   0.520   5.841  0.00  0.00    +0.218 C 
ENDBRANCH   7  19
ENDBRANCH   2   5
BRANCH   1  23
ATOM     23  C   UNL     1       4.868  -5.492   4.518  0.00  0.00    +0.139 C 
BRANCH  23  27
ATOM     24  C   UNL     1       2.319  -4.249   1.323  0.00  0.00    -0.064 A 
ATOM     25  C   UNL     1       3.682  -4.355   1.118  0.00  0.00    +0.002 A 
ATOM     26  C   UNL     1       4.506  -4.757   2.152  0.00  0.00    +0.005 A 
ATOM     27  C   UNL     1       3.968  -5.053   3.391  0.00  0.00    -0.030 A 
ATOM     28  C   UNL     1       2.606  -4.946   3.596  0.00  0.00    +0.005 A 
ATOM     29  C   UNL     1       1.781  -4.540   2.563  0.00  0.00    +0.002 A 
BRANCH  24  30
ATOM     30  C   UNL     1       1.419  -3.811   0.196  0.00  0.00    -0.043 C 
BRANCH  30  35
ATOM     31  C   UNL     1      -0.222   1.649   0.301  0.00  0.00    +0.007 C 
ATOM     32  C   UNL     1      -0.223   0.120   0.291  0.00  0.00    -0.018 C 
ATOM     33  C   UNL     1       0.449  -0.385  -0.989  0.00  0.00    -0.016 C 
ATOM     34  C   UNL     1       0.516  -1.913  -0.956  0.00  0.00    -0.078 C 
ATOM     35  N   UNL     1       1.293  -2.348   0.211  0.00  0.00    +0.382 N 
ATOM     36  C   UNL     1       0.616  -1.929   1.444  0.00  0.00    -0.078 C 
ATOM     37  C   UNL     1       0.553  -0.402   1.503  0.00  0.00    -0.016 C 
ATOM     38  H   UNL     1       2.212  -1.932   0.175  0.00  0.00    -0.081 HD
ENDBRANCH  30  35
ENDBRANCH  24  30
ENDBRANCH  23  27
ENDBRANCH   1  23
TORSDOF 7
