REMARK  Name = ZINC14963545
REMARK  10 active torsions:
REMARK  status: ('A' for Active; 'I' for Inactive)
REMARK    1  A    between atoms: C_1  and  C_2
REMARK    2  A    between atoms: C_2  and  C_4
REMARK    3  A    between atoms: C_2  and  N_23
REMARK    4  A    between atoms: C_13  and  C_14
REMARK    5  A    between atoms: C_13  and  N_66
REMARK    6  A    between atoms: C_14  and  C_22
REMARK    7  A    between atoms: C_15  and  C_16
REMARK    8  A    between atoms: C_24  and  C_26
REMARK    9  A    between atoms: C_26  and  C_27
REMARK   10  A    between atoms: C_27  and  C_28
REMARK                            x       y       z     vdW  Elec       q    Type
REMARK                         _______ _______ _______ _____ _____    ______ ____
ROOT
ATOM      1  C   UNL     1      -0.566   1.706   1.326  0.00  0.00    +0.154 A 
ATOM      2  N   UNL     1      -0.509   2.894   1.869  0.00  0.00    -0.132 NA
ATOM      3  N   UNL     1      -1.236   2.920   2.933  0.00  0.00    -0.134 NA
ATOM      4  C   UNL     1      -1.790   1.757   3.110  0.00  0.00    +0.132 A 
ATOM      5  N   UNL     1      -1.374   0.952   2.101  0.00  0.00    -0.315 N 
ATOM      6  C   UNL     1      -1.729  -0.456   1.922  0.00  0.00    +0.106 C 
ATOM      7  C   UNL     1      -3.101  -0.714   2.552  0.00  0.00    -0.056 C 
ATOM      8  C   UNL     1      -2.315  -0.016   4.747  0.00  0.00    -0.071 C 
ATOM      9  C   UNL     1      -2.741   1.346   4.204  0.00  0.00    +0.058 C 
ATOM     10  N   UNL     1      -2.922  -1.116   3.966  0.00  0.00    +0.384 N 
ATOM     11  H   UNL     1      -2.298  -1.930   4.001  0.00  0.00    -0.081 HD
ENDROOT
BRANCH   1  13
ATOM     12  C   UNL     1      -0.584   1.852  -1.149  0.00  0.00    +0.036 C 
ATOM     13  C   UNL     1       0.134   1.263   0.067  0.00  0.00    +0.138 C 
BRANCH  13  14
ATOM     14  N   UNL     1       1.522   1.732   0.089  0.00  0.00    -0.306 N 
ATOM     15  C   UNL     1       2.465   1.081  -0.620  0.00  0.00    +0.214 C 
ATOM     16  O   UNL     1       2.164   0.106  -1.277  0.00  0.00    -0.276 OA
ATOM     17  H   UNL     1       1.762   2.511   0.615  0.00  0.00    +0.149 HD
BRANCH  15  18
ATOM     18  C   UNL     1       3.892   1.563  -0.597  0.00  0.00    +0.100 C 
BRANCH  18  19
ATOM     19  C   UNL     1       4.751   0.654  -1.479  0.00  0.00    +0.044 C 
BRANCH  19  20
ATOM     20  C   UNL     1       6.179   1.137  -1.456  0.00  0.00    -0.047 A 
ATOM     21  C   UNL     1       6.613   2.058  -2.391  0.00  0.00    +0.003 A 
ATOM     22  C   UNL     1       7.921   2.503  -2.367  0.00  0.00    +0.000 A 
ATOM     23  C   UNL     1       8.798   2.021  -1.414  0.00  0.00    +0.000 A 
ATOM     24  C   UNL     1       8.366   1.095  -0.482  0.00  0.00    +0.000 A 
ATOM     25  C   UNL     1       7.056   0.654  -0.503  0.00  0.00    +0.003 A 
ENDBRANCH  19  20
ENDBRANCH  18  19
ENDBRANCH  15  18
ENDBRANCH  13  14
ENDBRANCH   1  13
BRANCH  10  26
ATOM     26  C   UNL     1      -4.223  -1.487   4.551  0.00  0.00    -0.048 C 
BRANCH  26  27
ATOM     27  C   UNL     1      -3.985  -2.089   5.912  0.00  0.00    -0.089 C 
ATOM     28  C   UNL     1      -4.086  -1.334   6.997  0.00  0.00    +0.005 C 
ATOM     29  C   UNL     1      -3.632  -3.548   6.039  0.00  0.00    +0.037 C 
BRANCH  28  30
ATOM     30  C   UNL     1      -3.689  -1.876   8.314  0.00  0.00    -0.025 A 
ATOM     31  C   UNL     1      -4.361  -1.474   9.468  0.00  0.00    +0.008 A 
ATOM     32  C   UNL     1      -3.990  -1.989  10.694  0.00  0.00    +0.001 A 
ATOM     33  C   UNL     1      -2.945  -2.891  10.780  0.00  0.00    +0.000 A 
ATOM     34  C   UNL     1      -2.270  -3.289   9.640  0.00  0.00    +0.001 A 
ATOM     35  C   UNL     1      -2.636  -2.787   8.408  0.00  0.00    +0.008 A 
ENDBRANCH  28  30
ENDBRANCH  26  27
ENDBRANCH  10  26
TORSDOF 8
