REMARK  Name = ZINC39315897
REMARK  5 active torsions:
REMARK  status: ('A' for Active; 'I' for Inactive)
REMARK    1  A    between atoms: C_1  and  C_2
REMARK    2  A    between atoms: C_5  and  C_8
REMARK    3  A    between atoms: C_11  and  C_26
REMARK    4  A    between atoms: C_22  and  C_24
REMARK    5  A    between atoms: C_22  and  C_25
REMARK                            x       y       z     vdW  Elec       q    Type
REMARK                         _______ _______ _______ _____ _____    ______ ____
ROOT
ATOM      1  C   UNL     1       0.059  -4.275  -0.021  0.00  0.00    +0.085 C 
ATOM      2  C   UNL     1       1.276  -4.775   0.699  0.00  0.00    +0.008 C 
ATOM      3  C   UNL     1       2.432  -4.252   1.024  0.00  0.00    +0.064 C 
ATOM      4  N   UNL     1       3.138  -5.112   1.802  0.00  0.00    -0.157 NA
ATOM      5  N   UNL     1       2.581  -6.199   2.000  0.00  0.00    -0.160 NA
ATOM      6  C   UNL     1       1.321  -6.203   1.253  0.00  0.00    +0.241 C 
ATOM      7  N   UNL     1       0.145  -6.281   2.124  0.00  0.00    -0.321 N 
ATOM      8  C   UNL     1      -1.043  -5.737   1.704  0.00  0.00    +0.014 C 
ATOM      9  C   UNL     1      -1.153  -4.814   0.723  0.00  0.00    +0.023 C 
ATOM     10  C   UNL     1      -2.402  -4.301   0.335  0.00  0.00    +0.162 C 
ATOM     11  O   UNL     1      -2.453  -3.463  -0.544  0.00  0.00    -0.292 OA
ATOM     12  C   UNL     1      -3.678  -4.766   0.982  0.00  0.00    +0.086 C 
ATOM     13  C   UNL     1      -3.482  -6.205   1.473  0.00  0.00    -0.023 C 
ATOM     14  C   UNL     1      -2.281  -6.228   2.427  0.00  0.00    +0.057 C 
ATOM     15  C   UNL     1      -3.211  -7.124   0.280  0.00  0.00    +0.011 C 
ATOM     16  C   UNL     1      -4.737  -6.673   2.212  0.00  0.00    +0.011 C 
ATOM     17  C   UNL     1       2.910  -2.888   0.596  0.00  0.00    +0.067 C 
ATOM     18  H   UNL     1       0.206  -6.713   2.990  0.00  0.00    +0.148 HD
ENDROOT
BRANCH   1  23
ATOM     19  C   UNL     1      -0.018   1.503   0.010  0.00  0.00    +0.044 C 
ATOM     20  C   UNL     1       0.002  -0.004   0.002  0.00  0.00    -0.050 A 
ATOM     21  C   UNL     1       0.006  -0.689  -1.199  0.00  0.00    +0.003 A 
ATOM     22  C   UNL     1       0.025  -2.071  -1.206  0.00  0.00    +0.005 A 
ATOM     23  C   UNL     1       0.040  -2.768  -0.013  0.00  0.00    -0.036 A 
ATOM     24  C   UNL     1       0.037  -2.084   1.188  0.00  0.00    +0.005 A 
ATOM     25  C   UNL     1       0.023  -0.702   1.195  0.00  0.00    +0.003 A 
ENDBRANCH   1  23
TORSDOF 1
