REMARK  Name = ZINC59404224
REMARK  12 active torsions:
REMARK  status: ('A' for Active; 'I' for Inactive)
REMARK    1  A    between atoms: C_1  and  C_2
REMARK    2  A    between atoms: C_5  and  C_8
REMARK    3  A    between atoms: C_8  and  C_10
REMARK    4  A    between atoms: C_8  and  N_11
REMARK    5  A    between atoms: N_11  and  C_12
REMARK    6  A    between atoms: N_11  and  C_13
REMARK    7  A    between atoms: C_13  and  C_14
REMARK    8  A    between atoms: N_16  and  C_17
REMARK    9  A    between atoms: C_20  and  O_32
REMARK   10  A    between atoms: C_21  and  S_23
REMARK   11  A    between atoms: S_23  and  N_26
REMARK   12  A    between atoms: O_32  and  C_33
REMARK                            x       y       z     vdW  Elec       q    Type
REMARK                         _______ _______ _______ _____ _____    ______ ____
ROOT
ATOM      1  C   UNL     1      -4.648  -3.268   1.290  0.00  0.00    +0.201 C 
ATOM      2  O   UNL     1      -5.596  -2.583   1.610  0.00  0.00    -0.278 OA
ATOM      3  N   UNL     1      -4.373  -4.399   1.971  0.00  0.00    -0.287 N 
ATOM      4  H   UNL     1      -3.657  -4.981   1.674  0.00  0.00    +0.155 HD
ENDROOT
BRANCH   3   5
ATOM      5  C   UNL     1      -5.122  -4.731   3.107  0.00  0.00    +0.035 A 
ATOM      6  C   UNL     1      -4.510  -5.361   4.183  0.00  0.00    +0.027 A 
ATOM      7  C   UNL     1      -5.249  -5.689   5.302  0.00  0.00    +0.049 A 
ATOM      8  C   UNL     1      -6.602  -5.389   5.353  0.00  0.00    +0.146 A 
ATOM      9  C   UNL     1      -7.214  -4.760   4.279  0.00  0.00    +0.149 A 
ATOM     10  C   UNL     1      -6.475  -4.426   3.161  0.00  0.00    +0.055 A 
BRANCH   9  11
ATOM     11  S   UNL     1      -8.934  -4.380   4.343  0.00  0.00    +0.064 S 
ATOM     12  O   UNL     1      -9.161  -3.736   5.590  0.00  0.00    -0.153 OA
ATOM     13  O   UNL     1      -9.263  -3.774   3.101  0.00  0.00    -0.153 OA
BRANCH  11  14
ATOM     14  N   UNL     1      -9.751  -5.820   4.398  0.00  0.00    -0.176 NA
ATOM     15  C   UNL     1     -10.167  -6.492   3.160  0.00  0.00    +0.109 C 
ATOM     16  C   UNL     1      -9.641  -7.931   3.180  0.00  0.00    +0.017 C 
ATOM     17  C   UNL     1     -10.112  -8.624   4.460  0.00  0.00    +0.003 C 
ATOM     18  C   UNL     1      -9.550  -7.888   5.678  0.00  0.00    +0.017 C 
ATOM     19  C   UNL     1     -10.069  -6.451   5.686  0.00  0.00    +0.109 C 
ENDBRANCH  11  14
ENDBRANCH   9  11
BRANCH   8  20
ATOM     20  O   UNL     1      -7.329  -5.712   6.456  0.00  0.00    -0.493 OA
ATOM     21  C   UNL     1      -6.635  -6.358   7.524  0.00  0.00    +0.277 C 
ENDBRANCH   8  20
ENDBRANCH   3   5
BRANCH   1  22
ATOM     22  C   UNL     1      -3.777  -2.857   0.131  0.00  0.00    +0.019 C 
BRANCH  22  23
ATOM     23  N   UNL     1      -4.282  -1.601  -0.439  0.00  0.00    +0.388 N 
ATOM     24  C   UNL     1      -4.146  -0.524   0.551  0.00  0.00    -0.095 C 
ATOM     25  H   UNL     1      -5.255  -1.710  -0.685  0.00  0.00    -0.081 HD
BRANCH  23  26
ATOM     26  C   UNL     1      -3.508  -1.262  -1.641  0.00  0.00    -0.041 C 
ATOM     27  C   UNL     1      -4.034   0.047  -2.234  0.00  0.00    -0.008 C 
BRANCH  26  32
ATOM     28  C   UNL     1      -4.044  -5.499  -5.533  0.00  0.00    +0.044 C 
ATOM     29  C   UNL     1      -3.905  -4.394  -4.518  0.00  0.00    -0.050 A 
ATOM     30  C   UNL     1      -2.682  -3.776  -4.333  0.00  0.00    +0.003 A 
ATOM     31  C   UNL     1      -2.554  -2.762  -3.402  0.00  0.00    +0.002 A 
ATOM     32  C   UNL     1      -3.648  -2.366  -2.656  0.00  0.00    -0.061 A 
ATOM     33  C   UNL     1      -4.871  -2.983  -2.843  0.00  0.00    +0.002 A 
ATOM     34  C   UNL     1      -5.000  -3.994  -3.777  0.00  0.00    +0.003 A 
ENDBRANCH  26  32
ENDBRANCH  23  26
ENDBRANCH  22  23
ENDBRANCH   1  22
TORSDOF 8
