REMARK  Name = ZINC36743524
REMARK  7 active torsions:
REMARK  status: ('A' for Active; 'I' for Inactive)
REMARK    1  A    between atoms: C_1  and  C_2
REMARK    2  A    between atoms: C_5  and  C_21
REMARK    3  A    between atoms: C_6  and  S_8
REMARK    4  A    between atoms: S_8  and  N_11
REMARK    5  A    between atoms: N_11  and  C_12
REMARK    6  A    between atoms: C_13  and  C_20
REMARK    7  A    between atoms: C_17  and  N_18
REMARK                            x       y       z     vdW  Elec       q    Type
REMARK                         _______ _______ _______ _____ _____    ______ ____
ROOT
ATOM      1  N   UNL     1      -0.574  -2.854   2.835  0.00  0.00    -0.214 N 
ATOM      2  H   UNL     1      -0.344  -3.620   2.287  0.00  0.00    +0.174 HD
ENDROOT
BRANCH   1   3
ATOM      3  C   UNL     1      -1.782  -2.838   3.544  0.00  0.00    +0.072 A 
ATOM      4  C   UNL     1      -2.989  -2.815   2.862  0.00  0.00    -0.025 A 
ATOM      5  C   UNL     1      -4.180  -2.800   3.563  0.00  0.00    +0.020 A 
ATOM      6  C   UNL     1      -4.173  -2.807   4.947  0.00  0.00    +0.020 A 
ATOM      7  C   UNL     1      -2.973  -2.830   5.636  0.00  0.00    +0.040 A 
ATOM      8  C   UNL     1      -1.774  -2.851   4.939  0.00  0.00    +0.049 A 
ATOM      9 BR   UNL     1      -5.806  -2.785   5.899  0.00  0.00    -0.050 Br
ATOM     10  C   UNL     1      -3.002  -2.806   1.355  0.00  0.00    +0.046 C 
BRANCH   8  11
ATOM     11  N   UNL     1      -0.559  -2.879   5.634  0.00  0.00    -0.356 N 
ATOM     12  H   UNL     1       0.253  -3.156   5.180  0.00  0.00    +0.142 HD
ATOM     13  H   UNL     1      -0.528  -2.623   6.569  0.00  0.00    +0.142 HD
ENDBRANCH   8  11
ENDBRANCH   1   3
BRANCH   1  14
ATOM     14  S   UNL     1       0.460  -1.564   2.933  0.00  0.00    +0.073 S 
ATOM     15  O   UNL     1       1.575  -1.875   2.108  0.00  0.00    -0.150 OA
ATOM     16  O   UNL     1       0.596  -1.256   4.313  0.00  0.00    -0.150 OA
BRANCH  14  22
ATOM     17  C   UNL     1      -1.854   3.113   3.233  0.00  0.00    +0.044 C 
ATOM     18  C   UNL     1      -1.402   1.954   2.383  0.00  0.00    -0.049 A 
ATOM     19  C   UNL     1      -1.623   1.969   1.018  0.00  0.00    +0.004 A 
ATOM     20  C   UNL     1      -1.208   0.906   0.238  0.00  0.00    +0.005 A 
ATOM     21  C   UNL     1      -0.572  -0.173   0.823  0.00  0.00    -0.024 A 
ATOM     22  C   UNL     1      -0.350  -0.189   2.187  0.00  0.00    +0.112 A 
ATOM     23  C   UNL     1      -0.761   0.877   2.967  0.00  0.00    +0.032 A 
ATOM     24  C   UNL     1      -0.121  -1.333  -0.027  0.00  0.00    +0.046 C 
ENDBRANCH  14  22
ENDBRANCH   1  14
TORSDOF 4
