REMARK  Name = ZINC39699853
REMARK  7 active torsions:
REMARK  status: ('A' for Active; 'I' for Inactive)
REMARK    1  A    between atoms: C_1  and  O_2
REMARK    2  A    between atoms: O_2  and  C_3
REMARK    3  A    between atoms: C_6  and  O_10
REMARK    4  A    between atoms: O_10  and  C_11
REMARK    5  A    between atoms: C_11  and  C_12
REMARK    6  A    between atoms: N_14  and  N_15
REMARK    7  A    between atoms: C_16  and  C_17
REMARK                            x       y       z     vdW  Elec       q    Type
REMARK                         _______ _______ _______ _____ _____    ______ ____
ROOT
ATOM      1  C   UNL     1       3.738  -2.492   6.266  0.00  0.00    +0.270 C 
ATOM      2  O   UNL     1       3.711  -3.701   6.175  0.00  0.00    -0.270 OA
ATOM      3  N   UNL     1       4.344  -1.910   7.320  0.00  0.00    -0.204 N 
ATOM      4  H   UNL     1       4.366  -0.943   7.393  0.00  0.00    +0.177 HD
ENDROOT
BRANCH   3   5
ATOM      5  N   UNL     1       4.943  -2.701   8.309  0.00  0.00    -0.188 NA
ATOM      6  C   UNL     1       5.533  -2.135   9.332  0.00  0.00    +0.136 C 
BRANCH   6   7
ATOM      7  C   UNL     1       6.132  -2.927  10.322  0.00  0.00    +0.000 C 
ATOM      8  C   UNL     1       6.790  -2.487  11.468  0.00  0.00    +0.004 A 
ATOM      9  C   UNL     1       7.055  -1.198  11.981  0.00  0.00    +0.010 A 
ATOM     10  C   UNL     1       7.734  -1.065  13.148  0.00  0.00    +0.001 A 
ATOM     11  C   UNL     1       8.183  -2.178  13.866  0.00  0.00    +0.002 A 
ATOM     12  C   UNL     1       7.965  -3.443  13.434  0.00  0.00    +0.026 A 
ATOM     13  C   UNL     1       7.261  -3.663  12.220  0.00  0.00    +0.043 A 
ATOM     14  N   UNL     1       6.926  -4.773  11.596  0.00  0.00    -0.380 N 
ATOM     15  C   UNL     1       6.194  -4.438  10.371  0.00  0.00    +0.150 C 
ATOM     16  H   UNL     1       7.129  -5.671  11.901  0.00  0.00    +0.160 HD
ENDBRANCH   6   7
ENDBRANCH   3   5
BRANCH   1  17
ATOM     17  C   UNL     1       3.094  -1.641   5.203  0.00  0.00    +0.326 C 
BRANCH  17  18
ATOM     18  O   UNL     1       2.522  -2.484   4.200  0.00  0.00    -0.482 OA
BRANCH  18  22
ATOM     19  C   UNL     1       0.626  -0.619   1.042  0.00  0.00    +0.121 A 
ATOM     20  C   UNL     1       1.202   0.139   2.051  0.00  0.00    +0.049 A 
ATOM     21  C   UNL     1       1.836  -0.485   3.108  0.00  0.00    +0.050 A 
ATOM     22  C   UNL     1       1.897  -1.870   3.160  0.00  0.00    +0.134 A 
ATOM     23  C   UNL     1       1.321  -2.628   2.151  0.00  0.00    +0.058 A 
ATOM     24  C   UNL     1       0.682  -2.003   1.097  0.00  0.00    +0.063 A 
ATOM     25  I   UNL     1       1.414  -4.719   2.229  0.00  0.00    -0.040 I 
BRANCH  19  27
ATOM     26  C   UNL     1      -0.017   1.425   0.010  0.00  0.00    +0.277 C 
ATOM     27  O   UNL     1       0.002  -0.004   0.002  0.00  0.00    -0.495 OA
ENDBRANCH  19  27
ENDBRANCH  18  22
ENDBRANCH  17  18
ENDBRANCH   1  17
TORSDOF 6
