REMARK  Name = ZINC19882543
REMARK  12 active torsions:
REMARK  status: ('A' for Active; 'I' for Inactive)
REMARK    1  A    between atoms: C_1  and  C_2
REMARK    2  A    between atoms: C_2  and  O_3
REMARK    3  A    between atoms: O_3  and  C_4
REMARK    4  A    between atoms: C_7  and  N_10
REMARK    5  A    between atoms: C_14  and  C_15
REMARK    6  A    between atoms: C_18  and  O_24
REMARK    7  A    between atoms: C_19  and  O_21
REMARK    8  A    between atoms: O_21  and  C_22
REMARK    9  A    between atoms: C_22  and  C_23
REMARK   10  A    between atoms: O_24  and  C_25
REMARK   11  A    between atoms: C_25  and  C_27
REMARK   12  A    between atoms: C_25  and  C_28
REMARK                            x       y       z     vdW  Elec       q    Type
REMARK                         _______ _______ _______ _____ _____    ______ ____
ROOT
ATOM      1  N   UNL     1       1.255   4.637  -0.316  0.00  0.00    -0.216 N 
ATOM      2  C   UNL     1       0.045   4.040  -0.290  0.00  0.00    +0.262 C 
ATOM      3  O   UNL     1      -0.976   4.690  -0.406  0.00  0.00    -0.269 OA
ATOM      4  C   UNL     1      -0.004   2.574  -0.116  0.00  0.00    +0.102 C 
ATOM      5  C   UNL     1      -1.205   1.892  -0.079  0.00  0.00    +0.026 C 
ATOM      6  C   UNL     1       1.287   1.871   0.023  0.00  0.00    +0.274 C 
ATOM      7  O   UNL     1       1.328   0.665   0.174  0.00  0.00    -0.268 OA
ATOM      8  N   UNL     1       2.419   2.603  -0.029  0.00  0.00    -0.153 NA
ATOM      9  C   UNL     1       2.388   3.933  -0.189  0.00  0.00    +0.171 C 
ATOM     10  S   UNL     1       3.876   4.778  -0.235  0.00  0.00    -0.016 S 
ENDROOT
BRANCH   1  14
ATOM     11  C   UNL     1       1.472   8.774  -0.806  0.00  0.00    +0.121 A 
ATOM     12  C   UNL     1       0.935   8.240   0.357  0.00  0.00    +0.047 A 
ATOM     13  C   UNL     1       0.863   6.871   0.519  0.00  0.00    +0.027 A 
ATOM     14  C   UNL     1       1.328   6.028  -0.481  0.00  0.00    +0.044 A 
ATOM     15  C   UNL     1       1.870   6.562  -1.642  0.00  0.00    +0.027 A 
ATOM     16  C   UNL     1       1.936   7.932  -1.806  0.00  0.00    +0.047 A 
BRANCH  11  17
ATOM     17  O   UNL     1       1.543  10.122  -0.965  0.00  0.00    -0.492 OA
BRANCH  17  19
ATOM     18  C   UNL     1       2.103  12.132  -2.185  0.00  0.00    +0.048 C 
ATOM     19  C   UNL     1       2.107  10.602  -2.187  0.00  0.00    +0.225 C 
ENDBRANCH  17  19
ENDBRANCH  11  17
ENDBRANCH   1  14
BRANCH   5  20
ATOM     20  C   UNL     1      -2.443   2.570  -0.463  0.00  0.00    -0.020 A 
ATOM     21  C   UNL     1      -3.588   2.452   0.339  0.00  0.00    +0.012 A 
ATOM     22  C   UNL     1      -4.750   3.095  -0.023  0.00  0.00    +0.050 A 
ATOM     23  C   UNL     1      -4.795   3.853  -1.188  0.00  0.00    +0.163 A 
ATOM     24  C   UNL     1      -3.663   3.971  -1.995  0.00  0.00    +0.162 A 
ATOM     25  C   UNL     1      -2.491   3.335  -1.638  0.00  0.00    +0.057 A 
BRANCH  24  26
ATOM     26  O   UNL     1      -3.713   4.714  -3.133  0.00  0.00    -0.489 OA
BRANCH  26  27
ATOM     27  C   UNL     1      -2.517   4.792  -3.910  0.00  0.00    +0.226 C 
ATOM     28  C   UNL     1      -2.766   5.664  -5.143  0.00  0.00    +0.048 C 
ENDBRANCH  26  27
ENDBRANCH  24  26
BRANCH  23  29
ATOM     29  O   UNL     1      -5.946   4.480  -1.542  0.00  0.00    -0.474 OA
BRANCH  29  30
ATOM     30  C   UNL     1      -7.096   4.231  -0.732  0.00  0.00    +0.283 C 
ATOM     31  C   UNL     1      -7.180   5.285   0.374  0.00  0.00    +0.064 C 
BRANCH  30  32
ATOM     32  C   UNL     1      -8.336   4.298  -1.586  0.00  0.00    +0.395 C 
ATOM     33  O   UNL     1      -8.244   4.536  -2.767  0.00  0.00    -0.242 OA
ATOM     34  O   UNL     1      -9.543   4.094  -1.034  0.00  0.00    -0.242 OA
ENDBRANCH  30  32
ENDBRANCH  29  30
ENDBRANCH  23  29
ENDBRANCH   5  20
TORSDOF 9
