REMARK  Name = ZINC08324210
REMARK  7 active torsions:
REMARK  status: ('A' for Active; 'I' for Inactive)
REMARK    1  A    between atoms: C_1  and  C_2
REMARK    2  A    between atoms: C_2  and  O_3
REMARK    3  A    between atoms: O_3  and  C_4
REMARK    4  A    between atoms: C_4  and  C_6
REMARK    5  A    between atoms: C_7  and  C_27
REMARK    6  A    between atoms: N_8  and  C_21
REMARK    7  A    between atoms: C_12  and  C_14
REMARK                            x       y       z     vdW  Elec       q    Type
REMARK                         _______ _______ _______ _____ _____    ______ ____
ROOT
ATOM      1  C   UNL     1      -2.768   1.503   1.345  0.00  0.00    +0.078 C 
ATOM      2  C   UNL     1      -3.934   2.144   1.576  0.00  0.00    +0.029 C 
ATOM      3  N   UNL     1      -4.937   2.140   0.647  0.00  0.00    -0.228 N 
ATOM      4  C   UNL     1      -4.851   1.518  -0.535  0.00  0.00    +0.311 C 
ATOM      5  O   UNL     1      -5.796   1.570  -1.297  0.00  0.00    -0.252 OA
ATOM      6  N   UNL     1      -3.750   0.836  -0.908  0.00  0.00    -0.288 N 
ATOM      7  C   UNL     1      -2.610   0.780   0.023  0.00  0.00    +0.144 C 
ATOM      8  C   UNL     1      -4.132   2.877   2.878  0.00  0.00    +0.062 C 
ATOM      9  H   UNL     1      -3.709   0.392  -1.769  0.00  0.00    +0.151 HD
ENDROOT
BRANCH   7  10
ATOM     10  C   UNL     1      -1.407   1.354  -0.680  0.00  0.00    -0.022 A 
ATOM     11  C   UNL     1      -0.199   0.683  -0.640  0.00  0.00    +0.008 A 
ATOM     12  C   UNL     1       0.904   1.206  -1.289  0.00  0.00    +0.038 A 
ATOM     13  C   UNL     1       0.799   2.404  -1.975  0.00  0.00    +0.123 A 
ATOM     14  C   UNL     1      -0.411   3.078  -2.010  0.00  0.00    +0.038 A 
ATOM     15  C   UNL     1      -1.512   2.553  -1.360  0.00  0.00    +0.008 A 
ATOM     16  F   UNL     1       1.876   2.917  -2.609  0.00  0.00    -0.205 F 
ENDBRANCH   7  10
BRANCH   3  17
ATOM     17  C   UNL     1      -6.121   2.825   0.949  0.00  0.00    +0.042 A 
ATOM     18  C   UNL     1      -7.094   2.220   1.733  0.00  0.00    +0.024 A 
ATOM     19  C   UNL     1      -8.258   2.901   2.034  0.00  0.00    +0.002 A 
ATOM     20  C   UNL     1      -8.459   4.179   1.546  0.00  0.00    +0.000 A 
ATOM     21  C   UNL     1      -7.494   4.782   0.761  0.00  0.00    +0.002 A 
ATOM     22  C   UNL     1      -6.325   4.109   0.461  0.00  0.00    +0.024 A 
ENDBRANCH   3  17
BRANCH   1  23
ATOM     23  C   UNL     1      -1.728   1.508   2.305  0.00  0.00    +0.339 C 
ATOM     24  O   UNL     1      -1.910   2.013   3.397  0.00  0.00    -0.245 OA
BRANCH  23  25
ATOM     25  O   UNL     1      -0.535   0.951   2.010  0.00  0.00    -0.462 OA
BRANCH  25  27
ATOM     26  C   UNL     1       1.742   0.317   2.511  0.00  0.00    +0.048 C 
ATOM     27  C   UNL     1       0.469   0.991   3.026  0.00  0.00    +0.229 C 
ENDBRANCH  25  27
ENDBRANCH  23  25
ENDBRANCH   1  23
TORSDOF 5
