REMARK  Name = ZINC33271914
REMARK  10 active torsions:
REMARK  status: ('A' for Active; 'I' for Inactive)
REMARK    1  A    between atoms: C_1  and  C_2
REMARK    2  A    between atoms: C_2  and  C_3
REMARK    3  A    between atoms: C_2  and  C_4
REMARK    4  A    between atoms: C_4  and  C_5
REMARK    5  A    between atoms: C_4  and  N_8
REMARK    6  A    between atoms: C_5  and  C_6
REMARK    7  A    between atoms: C_5  and  C_7
REMARK    8  A    between atoms: C_9  and  C_11
REMARK    9  A    between atoms: N_26  and  C_27
REMARK   10  A    between atoms: C_27  and  C_28
REMARK                            x       y       z     vdW  Elec       q    Type
REMARK                         _______ _______ _______ _____ _____    ______ ____
ROOT
ATOM      1  C   UNL     1      -1.465  -1.529   3.227  0.00  0.00    +0.037 A 
ATOM      2  C   UNL     1      -2.109  -2.347   2.292  0.00  0.00    +0.015 A 
ATOM      3  C   UNL     1      -2.576  -3.584   2.670  0.00  0.00    +0.026 A 
ATOM      4  C   UNL     1      -2.423  -4.027   3.982  0.00  0.00    +0.059 A 
ATOM      5  C   UNL     1      -1.788  -3.216   4.928  0.00  0.00    +0.007 A 
ATOM      6  C   UNL     1      -1.309  -1.964   4.541  0.00  0.00    +0.023 A 
ATOM      7  C   UNL     1      -1.599  -3.625   6.341  0.00  0.00    +0.011 A 
ATOM      8  C   UNL     1      -1.287  -2.666   7.305  0.00  0.00    +0.010 A 
ATOM      9  C   UNL     1      -1.111  -3.045   8.620  0.00  0.00    +0.001 A 
ATOM     10  C   UNL     1      -1.240  -4.372   8.990  0.00  0.00    +0.002 A 
ATOM     11  C   UNL     1      -1.549  -5.330   8.039  0.00  0.00    +0.029 A 
ATOM     12  C   UNL     1      -1.727  -4.958   6.728  0.00  0.00    +0.116 A 
ATOM     13  S   UNL     1      -2.124  -6.155   5.491  0.00  0.00    +0.076 S 
ATOM     14  O   UNL     1      -3.074  -7.045   6.063  0.00  0.00    -0.150 OA
ATOM     15  O   UNL     1      -0.896  -6.596   4.930  0.00  0.00    -0.150 OA
ATOM     16  N   UNL     1      -2.917  -5.289   4.311  0.00  0.00    -0.199 N 
ENDROOT
BRANCH   1  18
ATOM     17  N   UNL     1      -1.108   0.216   1.551  0.00  0.00    -0.308 N 
ATOM     18  C   UNL     1      -0.957  -0.204   2.822  0.00  0.00    +0.244 C 
ATOM     19  O   UNL     1      -0.402   0.508   3.637  0.00  0.00    -0.270 OA
ATOM     20  H   UNL     1      -1.610  -0.428   0.814  0.00  0.00    +0.149 HD
BRANCH  17  21
ATOM     21  C   UNL     1      -0.604   1.532   1.150  0.00  0.00    +0.078 C 
BRANCH  21  23
ATOM     22  C   UNL     1       1.458   2.820   0.573  0.00  0.00    +0.009 C 
ATOM     23  C   UNL     1       0.877   1.420   0.782  0.00  0.00    +0.003 C 
ATOM     24  C   UNL     1       1.632   0.718   1.913  0.00  0.00    +0.009 C 
ENDBRANCH  21  23
BRANCH  21  25
ATOM     25  C   UNL     1      -1.394   2.034  -0.061  0.00  0.00    +0.003 C 
ATOM     26  C   UNL     1      -0.969   3.466  -0.389  0.00  0.00    +0.009 C 
ATOM     27  C   UNL     1      -1.112   1.130  -1.263  0.00  0.00    +0.009 C 
ENDBRANCH  21  25
ENDBRANCH  17  21
ENDBRANCH   1  18
BRANCH  16  28
ATOM     28  C   UNL     1      -4.097  -5.836   3.637  0.00  0.00    +0.158 C 
BRANCH  28  29
ATOM     29  C   UNL     1      -3.678  -6.503   2.352  0.00  0.00    -0.014 C 
ATOM     30  C   UNL     1      -4.003  -7.752   2.127  0.00  0.00    +0.005 C 
ENDBRANCH  28  29
ENDBRANCH  16  28
TORSDOF 6
