REMARK  Name = ZINC16259347
REMARK  10 active torsions:
REMARK  status: ('A' for Active; 'I' for Inactive)
REMARK    1  A    between atoms: C_1  and  C_2
REMARK    2  A    between atoms: C_2  and  C_3
REMARK    3  A    between atoms: C_2  and  C_4
REMARK    4  A    between atoms: C_7  and  S_10
REMARK    5  A    between atoms: S_10  and  N_13
REMARK    6  A    between atoms: C_16  and  C_19
REMARK    7  A    between atoms: N_21  and  C_22
REMARK    8  A    between atoms: C_22  and  C_23
REMARK    9  A    between atoms: C_23  and  C_25
REMARK   10  A    between atoms: C_23  and  N_71
REMARK                            x       y       z     vdW  Elec       q    Type
REMARK                         _______ _______ _______ _____ _____    ______ ____
ROOT
ATOM      1  N   UNL     1       1.071   4.407   1.484  0.00  0.00    -0.177 NA
ATOM      2  C   UNL     1      -0.166   4.582   2.259  0.00  0.00    +0.110 C 
ATOM      3  C   UNL     1      -0.173   5.979   2.877  0.00  0.00    +0.030 C 
ATOM      4  C   UNL     1       1.110   6.182   3.686  0.00  0.00    +0.077 C 
ATOM      5  C   UNL     1       2.323   6.068   2.760  0.00  0.00    +0.030 C 
ATOM      6  C   UNL     1       2.358   4.667   2.142  0.00  0.00    +0.110 C 
ENDROOT
BRANCH   4   7
ATOM      7  C   UNL     1       1.091   7.548   4.322  0.00  0.00    +0.216 C 
ATOM      8  O   UNL     1       1.961   8.352   4.061  0.00  0.00    -0.276 OA
ATOM      9  N   UNL     1       0.106   7.878   5.182  0.00  0.00    -0.316 N 
ATOM     10  H   UNL     1      -0.590   7.235   5.391  0.00  0.00    +0.149 HD
BRANCH   9  11
ATOM     11  C   UNL     1       0.087   9.206   5.800  0.00  0.00    +0.093 C 
BRANCH  11  12
ATOM     12  C   UNL     1      -1.125   9.320   6.726  0.00  0.00    -0.020 C 
BRANCH  12  13
ATOM     13  C   UNL     1      -1.078  10.638   7.455  0.00  0.00    -0.059 A 
ATOM     14  C   UNL     1      -2.246  11.338   7.693  0.00  0.00    +0.002 A 
ATOM     15  C   UNL     1      -2.204  12.545   8.366  0.00  0.00    +0.000 A 
ATOM     16  C   UNL     1      -0.992  13.057   8.792  0.00  0.00    +0.000 A 
ATOM     17  C   UNL     1       0.176  12.359   8.549  0.00  0.00    +0.000 A 
ATOM     18  C   UNL     1       0.133  11.150   7.880  0.00  0.00    +0.002 A 
ENDBRANCH  12  13
BRANCH  12  23
ATOM     19  C   UNL     1       0.036   8.367   8.642  0.00  0.00    -0.078 C 
ATOM     20  C   UNL     1      -0.388   7.494   9.849  0.00  0.00    -0.020 C 
ATOM     21  C   UNL     1      -1.910   7.744   9.940  0.00  0.00    -0.020 C 
ATOM     22  C   UNL     1      -2.322   8.229   8.537  0.00  0.00    -0.078 C 
ATOM     23  N   UNL     1      -1.104   8.210   7.726  0.00  0.00    +0.385 N 
ATOM     24  H   UNL     1      -1.032   7.313   7.231  0.00  0.00    -0.081 HD
ENDBRANCH  12  23
ENDBRANCH  11  12
ENDBRANCH   9  11
ENDBRANCH   4   7
BRANCH   1  25
ATOM     25  S   UNL     1       1.013   3.934  -0.102  0.00  0.00    +0.061 S 
ATOM     26  O   UNL     1       2.216   4.390  -0.705  0.00  0.00    -0.153 OA
ATOM     27  O   UNL     1      -0.270   4.300  -0.589  0.00  0.00    -0.153 OA
BRANCH  25  31
ATOM     28  C   UNL     1       1.175  -0.590  -0.155  0.00  0.00    -0.045 A 
ATOM     29  C   UNL     1      -0.045   0.058  -0.090  0.00  0.00    +0.006 A 
ATOM     30  C   UNL     1      -0.094   1.439  -0.074  0.00  0.00    +0.029 A 
ATOM     31  C   UNL     1       1.076   2.173  -0.122  0.00  0.00    +0.105 A 
ATOM     32  C   UNL     1       2.296   1.526  -0.188  0.00  0.00    +0.029 A 
ATOM     33  C   UNL     1       2.345   0.144  -0.203  0.00  0.00    +0.006 A 
BRANCH  28  35
ATOM     34  C   UNL     1       1.907  -2.567  -1.460  0.00  0.00    +0.012 C 
ATOM     35  C   UNL     1       1.228  -2.096  -0.172  0.00  0.00    +0.013 C 
ATOM     36  C   UNL     1       2.026  -2.591   1.036  0.00  0.00    +0.012 C 
ENDBRANCH  28  35
ENDBRANCH  25  31
ENDBRANCH   1  25
TORSDOF 8
