REMARK  Name = ZINC32910571
REMARK  7 active torsions:
REMARK  status: ('A' for Active; 'I' for Inactive)
REMARK    1  A    between atoms: C_1  and  C_2
REMARK    2  A    between atoms: C_9  and  C_16
REMARK    3  A    between atoms: C_11  and  O_12
REMARK    4  A    between atoms: C_16  and  O_17
REMARK    5  A    between atoms: O_17  and  C_18
REMARK    6  A    between atoms: C_18  and  C_20
REMARK    7  A    between atoms: C_27  and  C_29
REMARK                            x       y       z     vdW  Elec       q    Type
REMARK                         _______ _______ _______ _____ _____    ______ ____
ROOT
ATOM      1  C   UNL     1       5.830   2.376   2.627  0.00  0.00    +0.268 C 
ENDROOT
BRANCH   1  10
ATOM      2  C   UNL     1      14.427   2.595   4.897  0.00  0.00    +0.109 C 
ATOM      3  C   UNL     1      12.967   2.234   4.802  0.00  0.00    +0.214 C 
ATOM      4  O   UNL     1      12.605   1.104   5.052  0.00  0.00    -0.276 OA
ATOM      5  N   UNL     1      12.064   3.166   4.439  0.00  0.00    -0.286 N 
ATOM      6  C   UNL     1      10.728   2.809   4.256  0.00  0.00    +0.037 A 
ATOM      7  C   UNL     1       9.977   3.426   3.256  0.00  0.00    +0.024 A 
ATOM      8  C   UNL     1       8.669   3.088   3.065  0.00  0.00    +0.014 A 
ATOM      9  C   UNL     1       8.078   2.111   3.875  0.00  0.00    +0.024 A 
ATOM     10  C   UNL     1       6.675   1.733   3.697  0.00  0.00    +0.007 A 
ATOM     11  C   UNL     1       6.157   0.782   4.518  0.00  0.00    +0.095 A 
ATOM     12  C   UNL     1       6.968   0.195   5.510  0.00  0.00    +0.285 A 
ATOM     13  O   UNL     1       8.253   0.550   5.672  0.00  0.00    -0.425 OA
ATOM     14  C   UNL     1       8.829   1.488   4.890  0.00  0.00    +0.141 A 
ATOM     15  C   UNL     1      10.156   1.843   5.071  0.00  0.00    +0.070 A 
ATOM     16  H   UNL     1      12.381   4.208   4.286  0.00  0.00    +0.155 HD
BRANCH  12  17
ATOM     17  O   UNL     1       6.491  -0.656   6.240  0.00  0.00    -0.480 OA
ATOM     18  H   UNL     1       7.112  -1.123   7.019  0.00  0.00    +0.295 HD
ENDBRANCH  12  17
ENDBRANCH   1  10
BRANCH   1  19
ATOM     19  O   UNL     1       4.491   1.816   2.667  0.00  0.00    -0.460 OA
BRANCH  19  20
ATOM     20  C   UNL     1       3.607   2.285   1.772  0.00  0.00    +0.312 C 
ATOM     21  O   UNL     1       3.942   3.136   0.982  0.00  0.00    -0.250 OA
BRANCH  20  22
ATOM     22  C   UNL     1       2.198   1.751   1.752  0.00  0.00    +0.115 C 
ATOM     23  C   UNL     1       1.404   2.445   0.643  0.00  0.00    +0.018 C 
ATOM     24  C   UNL     1      -0.036   1.927   0.644  0.00  0.00    +0.020 C 
ATOM     25  C   UNL     1      -0.033   0.420   0.366  0.00  0.00    +0.108 C 
ATOM     26  N   UNL     1       0.846  -0.238   1.342  0.00  0.00    -0.297 N 
ATOM     27  C   UNL     1       2.227   0.243   1.487  0.00  0.00    +0.122 C 
ATOM     28  C   UNL     1       0.394  -1.264   2.090  0.00  0.00    +0.247 C 
ATOM     29  O   UNL     1       1.152  -1.851   2.838  0.00  0.00    -0.270 OA
BRANCH  28  30
ATOM     30  C   UNL     1      -1.022  -1.677   2.001  0.00  0.00    +0.037 A 
ATOM     31  C   UNL     1      -1.753  -1.931   3.163  0.00  0.00    +0.014 A 
ATOM     32  C   UNL     1      -3.076  -2.309   3.073  0.00  0.00    +0.021 A 
ATOM     33  C   UNL     1      -3.677  -2.449   1.833  0.00  0.00    +0.041 A 
ATOM     34  C   UNL     1      -2.955  -2.203   0.676  0.00  0.00    +0.021 A 
ATOM     35  C   UNL     1      -1.633  -1.818   0.753  0.00  0.00    +0.014 A 
ATOM     36 CL   UNL     1      -5.341  -2.932   1.727  0.00  0.00    -0.084 Cl
ENDBRANCH  28  30
ENDBRANCH  20  22
ENDBRANCH  19  20
ENDBRANCH   1  19
TORSDOF 6
