REMARK  Name = ZINC06245557
REMARK  8 active torsions:
REMARK  status: ('A' for Active; 'I' for Inactive)
REMARK    1  A    between atoms: C_1  and  C_2
REMARK    2  A    between atoms: C_5  and  O_8
REMARK    3  A    between atoms: O_8  and  C_9
REMARK    4  A    between atoms: C_9  and  C_10
REMARK    5  A    between atoms: C_10  and  C_12
REMARK    6  A    between atoms: C_10  and  O_35
REMARK    7  A    between atoms: C_12  and  N_72
REMARK    8  A    between atoms: C_19  and  C_29
REMARK                            x       y       z     vdW  Elec       q    Type
REMARK                         _______ _______ _______ _____ _____    ______ ____
ROOT
ATOM      1  C   UNL     1      -4.175   3.728   6.877  0.00  0.00    -0.056 C 
ATOM      2  C   UNL     1      -2.762   3.193   6.612  0.00  0.00    +0.103 C 
ATOM      3  N   UNL     1      -2.527   3.220   5.161  0.00  0.00    -0.347 N 
ATOM      4  C   UNL     1      -1.582   2.589   4.386  0.00  0.00    +0.049 A 
ATOM      5  C   UNL     1      -0.547   1.718   4.721  0.00  0.00    +0.027 A 
ATOM      6  C   UNL     1       0.253   1.258   3.691  0.00  0.00    +0.006 A 
ATOM      7  C   UNL     1       0.055   1.645   2.375  0.00  0.00    -0.044 A 
ATOM      8  C   UNL     1      -0.955   2.500   2.011  0.00  0.00    +0.014 A 
ATOM      9  C   UNL     1      -1.786   2.979   3.029  0.00  0.00    +0.003 A 
ATOM     10  C   UNL     1      -2.918   3.865   3.036  0.00  0.00    -0.020 A 
ATOM     11  C   UNL     1      -3.336   3.942   4.315  0.00  0.00    +0.009 A 
ATOM     12  C   UNL     1      -4.527   4.781   4.719  0.00  0.00    -0.020 C 
ATOM     13  C   UNL     1      -4.452   6.102   3.971  0.00  0.00    -0.009 C 
ATOM     14  C   UNL     1      -3.984   6.034   2.539  0.00  0.00    +0.003 C 
ATOM     15  C   UNL     1      -3.645   4.657   1.985  0.00  0.00    +0.037 C 
ATOM     16  N   UNL     1      -4.380   5.015   6.179  0.00  0.00    +0.388 N 
ATOM     17  H   UNL     1      -3.564   5.617   6.340  0.00  0.00    -0.081 HD
ENDROOT
BRANCH   7  18
ATOM     18  C   UNL     1       0.973   1.105   1.310  0.00  0.00    +0.019 C 
ATOM     19  C   UNL     1       2.412   1.525   1.616  0.00  0.00    +0.008 C 
ATOM     20  C   UNL     1       3.345   0.977   0.534  0.00  0.00    +0.001 C 
ATOM     21  C   UNL     1       3.254  -0.551   0.509  0.00  0.00    +0.000 C 
ATOM     22  C   UNL     1       1.815  -0.971   0.203  0.00  0.00    +0.001 C 
ATOM     23  C   UNL     1       0.883  -0.422   1.284  0.00  0.00    +0.008 C 
ENDBRANCH   7  18
BRANCH  16  24
ATOM     24  C   UNL     1      -5.585   5.689   6.707  0.00  0.00    -0.043 C 
BRANCH  24  25
ATOM     25  C   UNL     1      -6.745   4.698   6.822  0.00  0.00    +0.135 C 
BRANCH  25  26
ATOM     26  O   UNL     1      -7.143   4.277   5.516  0.00  0.00    -0.390 OA
ATOM     27  H   UNL     1      -7.439   4.998   4.943  0.00  0.00    +0.210 HD
ENDBRANCH  25  26
BRANCH  25  28
ATOM     28  C   UNL     1      -7.926   5.374   7.522  0.00  0.00    +0.258 C 
BRANCH  28  29
ATOM     29  O   UNL     1      -8.966   4.417   7.734  0.00  0.00    -0.489 OA
BRANCH  29  34
ATOM     30  C   UNL     1     -13.643   6.243  10.284  0.00  0.00    +0.044 C 
ATOM     31  C   UNL     1     -12.392   5.755   9.602  0.00  0.00    -0.050 A 
ATOM     32  C   UNL     1     -12.290   4.432   9.212  0.00  0.00    +0.007 A 
ATOM     33  C   UNL     1     -11.143   3.982   8.586  0.00  0.00    +0.046 A 
ATOM     34  C   UNL     1     -10.094   4.857   8.349  0.00  0.00    +0.121 A 
ATOM     35  C   UNL     1     -10.197   6.183   8.746  0.00  0.00    +0.046 A 
ATOM     36  C   UNL     1     -11.348   6.630   9.366  0.00  0.00    +0.007 A 
ENDBRANCH  29  34
ENDBRANCH  28  29
ENDBRANCH  25  28
ENDBRANCH  24  25
ENDBRANCH  16  24
TORSDOF 7
