REMARK  Name = ZINC06926044
REMARK  4 active torsions:
REMARK  status: ('A' for Active; 'I' for Inactive)
REMARK    1  A    between atoms: C_3  and  C_8
REMARK    2  A    between atoms: C_13  and  N_15
REMARK    3  A    between atoms: N_15  and  C_16
REMARK    4  A    between atoms: C_20  and  O_22
REMARK                            x       y       z     vdW  Elec       q    Type
REMARK                         _______ _______ _______ _____ _____    ______ ____
ROOT
ATOM      1  C   UNL     1       3.640   2.152   0.083  0.00  0.00    +0.028 C 
ATOM      2  C   UNL     1       4.824   1.494   0.136  0.00  0.00    +0.079 C 
ATOM      3  C   UNL     1       6.207   2.027   0.187  0.00  0.00    +0.276 C 
ATOM      4  O   UNL     1       6.436   3.226   0.187  0.00  0.00    -0.267 OA
ATOM      5  N   UNL     1       7.173   1.137   0.234  0.00  0.00    -0.152 NA
ATOM      6  C   UNL     1       6.940  -0.166   0.235  0.00  0.00    +0.175 C 
ATOM      7  S   UNL     1       5.157  -0.263   0.171  0.00  0.00    -0.050 S 
ENDROOT
BRANCH   1  10
ATOM      8  C   UNL     1      -0.005   1.355  -0.289  0.00  0.00    +0.003 A 
ATOM      9  C   UNL     1       1.160   2.059  -0.067  0.00  0.00    +0.008 A 
ATOM     10  C   UNL     1       2.395   1.407  -0.151  0.00  0.00    -0.021 A 
ATOM     11  C   UNL     1       2.439   0.044  -0.461  0.00  0.00    +0.046 A 
ATOM     12  C   UNL     1       1.264  -0.648  -0.680  0.00  0.00    +0.124 A 
ATOM     13  C   UNL     1       0.044   0.006  -0.594  0.00  0.00    +0.038 A 
ATOM     14  F   UNL     1       1.303  -1.965  -0.979  0.00  0.00    -0.205 F 
ENDBRANCH   1  10
BRANCH   6  15
ATOM     15  N   UNL     1       7.846  -1.192   0.279  0.00  0.00    -0.192 NA
BRANCH  15  16
ATOM     16  C   UNL     1       9.200  -0.920   0.496  0.00  0.00    +0.059 A 
ATOM     17  C   UNL     1       9.579   0.244   1.153  0.00  0.00    +0.025 A 
ATOM     18  C   UNL     1      10.917   0.513   1.368  0.00  0.00    +0.005 A 
ATOM     19  C   UNL     1      11.882  -0.375   0.931  0.00  0.00    +0.045 A 
ATOM     20  C   UNL     1      11.509  -1.540   0.275  0.00  0.00    +0.119 A 
ATOM     21  C   UNL     1      10.168  -1.815   0.062  0.00  0.00    +0.070 A 
BRANCH  20  22
ATOM     22  O   UNL     1      12.459  -2.412  -0.154  0.00  0.00    -0.507 OA
ATOM     23  H   UNL     1      12.695  -3.088   0.496  0.00  0.00    +0.292 HD
ENDBRANCH  20  22
ENDBRANCH  15  16
ENDBRANCH   6  15
TORSDOF 4
