REMARK  Name = ZINC20292483
REMARK  11 active torsions:
REMARK  status: ('A' for Active; 'I' for Inactive)
REMARK    1  A    between atoms: C_1  and  C_2
REMARK    2  A    between atoms: C_5  and  C_8
REMARK    3  A    between atoms: C_8  and  N_9
REMARK    4  A    between atoms: C_10  and  C_12
REMARK    5  A    between atoms: C_12  and  S_13
REMARK    6  A    between atoms: S_13  and  C_14
REMARK    7  A    between atoms: N_18  and  N_19
REMARK    8  A    between atoms: N_20  and  N_21
REMARK    9  A    between atoms: C_22  and  C_23
REMARK   10  A    between atoms: C_27  and  O_29
REMARK   11  A    between atoms: O_29  and  C_30
REMARK                            x       y       z     vdW  Elec       q    Type
REMARK                         _______ _______ _______ _____ _____    ______ ____
ROOT
ATOM      1  C   UNL     1       4.814  -8.921   0.216  0.00  0.00    +0.210 A 
ATOM      2  N   UNL     1       5.793  -8.050   0.155  0.00  0.00    -0.119 NA
ATOM      3  N   UNL     1       7.001  -8.758   0.111  0.00  0.00    -0.109 NA
ATOM      4  C   UNL     1       6.721 -10.038   0.147  0.00  0.00    +0.254 A 
ATOM      5  N   UNL     1       5.363 -10.172   0.219  0.00  0.00    -0.211 N 
ATOM      6  N   UNL     1       7.643 -11.075   0.121  0.00  0.00    -0.204 N 
ATOM      7  H   UNL     1       7.338 -11.995   0.152  0.00  0.00    +0.177 HD
ENDROOT
BRANCH   5   8
ATOM      8  N   UNL     1       4.674 -11.350   0.280  0.00  0.00    -0.294 N 
ATOM      9  H   UNL     1       4.447 -11.685  -0.644  0.00  0.00    +0.163 HD
ATOM     10  H   UNL     1       5.191 -12.045   0.799  0.00  0.00    +0.163 HD
ENDBRANCH   5   8
BRANCH   6  11
ATOM     11  N   UNL     1       9.014 -10.793   0.052  0.00  0.00    -0.188 NA
ATOM     12  C   UNL     1       9.876 -11.763   0.028  0.00  0.00    +0.138 C 
BRANCH  12  13
ATOM     13  C   UNL     1      11.318 -11.466  -0.045  0.00  0.00    -0.002 A 
ATOM     14  C   UNL     1      11.760 -10.140  -0.084  0.00  0.00    +0.010 A 
ATOM     15  C   UNL     1      13.111  -9.867  -0.152  0.00  0.00    +0.004 A 
ATOM     16  C   UNL     1      14.030 -10.899  -0.183  0.00  0.00    +0.046 A 
ATOM     17  C   UNL     1      13.601 -12.220  -0.146  0.00  0.00    +0.129 A 
ATOM     18  C   UNL     1      12.248 -12.507  -0.071  0.00  0.00    +0.055 A 
BRANCH  17  19
ATOM     19  O   UNL     1      14.509 -13.230  -0.177  0.00  0.00    -0.456 OA
BRANCH  19  20
ATOM     20  C   UNL     1      14.539 -14.026  -1.278  0.00  0.00    +0.128 A 
ATOM     21  C   UNL     1      13.754 -13.719  -2.380  0.00  0.00    +0.046 A 
ATOM     22  C   UNL     1      13.787 -14.530  -3.498  0.00  0.00    +0.004 A 
ATOM     23  C   UNL     1      14.601 -15.647  -3.519  0.00  0.00    +0.000 A 
ATOM     24  C   UNL     1      15.383 -15.957  -2.422  0.00  0.00    +0.004 A 
ATOM     25  C   UNL     1      15.359 -15.145  -1.304  0.00  0.00    +0.046 A 
ENDBRANCH  19  20
ENDBRANCH  17  19
ENDBRANCH  12  13
ENDBRANCH   6  11
BRANCH   1  26
ATOM     26  S   UNL     1       3.095  -8.544   0.290  0.00  0.00    -0.075 S 
BRANCH  26  27
ATOM     27  C   UNL     1       3.041  -6.731   0.251  0.00  0.00    +0.173 C 
BRANCH  27  29
ATOM     28  N   UNL     1       1.322  -4.953   0.292  0.00  0.00    -0.311 N 
ATOM     29  C   UNL     1       1.607  -6.270   0.309  0.00  0.00    +0.224 C 
ATOM     30  O   UNL     1       0.711  -7.084   0.371  0.00  0.00    -0.275 OA
ATOM     31  H   UNL     1       2.040  -4.302   0.243  0.00  0.00    +0.149 HD
BRANCH  28  32
ATOM     32  C   UNL     1      -0.071  -4.504   0.349  0.00  0.00    +0.139 C 
BRANCH  32  37
ATOM     33  C   UNL     1      -0.246   1.270   0.223  0.00  0.00    +0.044 C 
ATOM     34  C   UNL     1      -0.200  -0.235   0.256  0.00  0.00    -0.050 A 
ATOM     35  C   UNL     1      -0.236  -0.954  -0.925  0.00  0.00    +0.003 A 
ATOM     36  C   UNL     1      -0.194  -2.335  -0.894  0.00  0.00    +0.005 A 
ATOM     37  C   UNL     1      -0.116  -2.998   0.316  0.00  0.00    -0.030 A 
ATOM     38  C   UNL     1      -0.079  -2.280   1.496  0.00  0.00    +0.005 A 
ATOM     39  C   UNL     1      -0.117  -0.898   1.466  0.00  0.00    +0.003 A 
ENDBRANCH  32  37
ENDBRANCH  28  32
ENDBRANCH  27  29
ENDBRANCH  26  27
ENDBRANCH   1  26
TORSDOF 10
