REMARK  Name = ZINC09041179
REMARK  5 active torsions:
REMARK  status: ('A' for Active; 'I' for Inactive)
REMARK    1  A    between atoms: C_4  and  C_7
REMARK    2  A    between atoms: C_10  and  C_13
REMARK    3  A    between atoms: N_20  and  C_23
REMARK    4  A    between atoms: C_23  and  C_24
REMARK    5  A    between atoms: N_26  and  C_27
REMARK                            x       y       z     vdW  Elec       q    Type
REMARK                         _______ _______ _______ _____ _____    ______ ____
ROOT
ATOM      1  C   UNL     1       0.123   5.291   0.048  0.00  0.00    +0.004 A 
ATOM      2  C   UNL     1       1.386   5.783   0.038  0.00  0.00    +0.056 A 
ATOM      3  S   UNL     1       2.400   4.317   0.008  0.00  0.00    -0.076 S 
ATOM      4  C   UNL     1       1.119   3.091   0.009  0.00  0.00    +0.116 A 
ATOM      5  C   UNL     1      -0.065   3.845   0.034  0.00  0.00    +0.080 A 
ATOM      6  C   UNL     1      -1.282   3.090   0.041  0.00  0.00    +0.263 A 
ATOM      7  O   UNL     1      -2.361   3.656   0.061  0.00  0.00    -0.267 OA
ATOM      8  N   UNL     1      -1.215   1.746   0.019  0.00  0.00    -0.290 N 
ATOM      9  C   UNL     1      -0.022   1.099   0.001  0.00  0.00    +0.203 A 
ATOM     10  N   UNL     1       1.105   1.760  -0.006  0.00  0.00    -0.230 NA
ENDROOT
BRANCH   1  14
ATOM     11  C   UNL     1      -3.225   7.913   0.120  0.00  0.00    -0.018 A 
ATOM     12  C   UNL     1      -2.186   8.084   1.035  0.00  0.00    +0.009 A 
ATOM     13  C   UNL     1      -1.102   7.235   1.012  0.00  0.00    +0.009 A 
ATOM     14  C   UNL     1      -1.043   6.204   0.073  0.00  0.00    -0.017 A 
ATOM     15  C   UNL     1      -2.080   6.037  -0.845  0.00  0.00    +0.009 A 
ATOM     16  C   UNL     1      -3.166   6.883  -0.818  0.00  0.00    +0.009 A 
BRANCH  11  20
ATOM     17  C   UNL     1      -6.571  10.535   0.192  0.00  0.00    +0.000 A 
ATOM     18  C   UNL     1      -6.516   9.514  -0.740  0.00  0.00    +0.001 A 
ATOM     19  C   UNL     1      -5.432   8.660  -0.768  0.00  0.00    +0.008 A 
ATOM     20  C   UNL     1      -4.392   8.828   0.145  0.00  0.00    -0.018 A 
ATOM     21  C   UNL     1      -4.456   9.855   1.085  0.00  0.00    +0.008 A 
ATOM     22  C   UNL     1      -5.542  10.707   1.100  0.00  0.00    +0.001 A 
ENDBRANCH  11  20
ENDBRANCH   1  14
BRANCH   8  23
ATOM     23  C   UNL     1      -2.455   0.966   0.020  0.00  0.00    +0.222 C 
BRANCH  23  24
ATOM     24  C   UNL     1      -2.869   0.682   1.441  0.00  0.00    +0.237 C 
ATOM     25  O   UNL     1      -2.194   1.091   2.362  0.00  0.00    -0.274 OA
ATOM     26  N   UNL     1      -3.988  -0.026   1.688  0.00  0.00    -0.283 N 
ATOM     27  H   UNL     1      -4.562  -0.298   0.955  0.00  0.00    +0.155 HD
BRANCH  26  28
ATOM     28  C   UNL     1      -4.322  -0.371   3.003  0.00  0.00    +0.047 A 
ATOM     29  C   UNL     1      -4.032   0.499   4.045  0.00  0.00    +0.024 A 
ATOM     30  C   UNL     1      -4.366   0.158   5.341  0.00  0.00    +0.002 A 
ATOM     31  C   UNL     1      -4.982  -1.052   5.603  0.00  0.00    +0.001 A 
ATOM     32  C   UNL     1      -5.269  -1.923   4.568  0.00  0.00    +0.017 A 
ATOM     33  C   UNL     1      -4.941  -1.586   3.269  0.00  0.00    +0.039 A 
ATOM     34 BR   UNL     1      -5.332  -2.778   1.854  0.00  0.00    -0.048 Br
ENDBRANCH  26  28
ENDBRANCH  23  24
ENDBRANCH   8  23
TORSDOF 5
