REMARK  Name = ZINC35851787
REMARK  2 active torsions:
REMARK  status: ('A' for Active; 'I' for Inactive)
REMARK    1  A    between atoms: C_1  and  C_2
REMARK    2  A    between atoms: N_25  and  C_28
REMARK                            x       y       z     vdW  Elec       q    Type
REMARK                         _______ _______ _______ _____ _____    ______ ____
ROOT
ATOM      1  C   UNL     1      -0.018   1.503   0.010  0.00  0.00    +0.044 C 
ATOM      2  C   UNL     1       0.002  -0.004   0.002  0.00  0.00    -0.049 A 
ATOM      3  C   UNL     1       0.006  -0.691  -1.199  0.00  0.00    +0.011 A 
ATOM      4  C   UNL     1       0.025  -2.068  -1.207  0.00  0.00    +0.005 A 
ATOM      5  C   UNL     1       0.040  -2.783  -0.013  0.00  0.00    +0.057 A 
ATOM      6  C   UNL     1       0.036  -2.084   1.193  0.00  0.00    +0.063 A 
ATOM      7  C   UNL     1       0.023  -0.703   1.195  0.00  0.00    +0.025 A 
ATOM      8 CL   UNL     1       0.055  -2.951   2.696  0.00  0.00    -0.082 Cl
ATOM      9  N   UNL     1       0.056  -4.156  -0.272  0.00  0.00    -0.282 N 
ATOM     10  C   UNL     1       0.051  -4.422  -1.594  0.00  0.00    +0.243 C 
ATOM     11  O   UNL     1       0.058  -5.519  -2.111  0.00  0.00    -0.273 OA
ATOM     12  C   UNL     1       0.034  -3.097  -2.300  0.00  0.00    +0.138 C 
ATOM     13  C   UNL     1       1.210  -2.924  -3.247  0.00  0.00    +0.123 C 
ATOM     14  C   UNL     1       0.655  -3.835  -4.408  0.00  0.00    +0.107 C 
ATOM     15  C   UNL     1      -0.749  -3.418  -4.567  0.00  0.00    +0.071 C 
ATOM     16  N   UNL     1      -1.141  -2.957  -3.185  0.00  0.00    -0.281 NA
ATOM     17  C   UNL     1      -2.324  -3.675  -2.731  0.00  0.00    +0.086 C 
ATOM     18  C   UNL     1      -2.905  -4.399  -3.966  0.00  0.00    +0.017 C 
ATOM     19  C   UNL     1      -1.652  -4.637  -4.870  0.00  0.00    +0.021 C 
ATOM     20  C   UNL     1       1.837  -4.069  -5.200  0.00  0.00    +0.232 C 
ATOM     21  O   UNL     1       1.910  -4.192  -6.404  0.00  0.00    -0.274 OA
ATOM     22  N   UNL     1       2.862  -4.121  -4.287  0.00  0.00    -0.210 N 
ATOM     23  C   UNL     1       2.499  -3.658  -3.038  0.00  0.00    +0.233 C 
ATOM     24  O   UNL     1       3.089  -3.812  -1.990  0.00  0.00    -0.274 OA
ATOM     25  H   UNL     1       0.070  -4.838   0.417  0.00  0.00    +0.155 HD
ENDROOT
BRANCH  22  26
ATOM     26  C   UNL     1       4.151  -4.584  -4.591  0.00  0.00    +0.045 A 
ATOM     27  C   UNL     1       5.131  -4.610  -3.608  0.00  0.00    +0.025 A 
ATOM     28  C   UNL     1       6.399  -5.067  -3.910  0.00  0.00    +0.023 A 
ATOM     29  C   UNL     1       6.693  -5.499  -5.191  0.00  0.00    +0.059 A 
ATOM     30  C   UNL     1       5.718  -5.474  -6.174  0.00  0.00    +0.061 A 
ATOM     31  C   UNL     1       4.446  -5.022  -5.875  0.00  0.00    +0.045 A 
ATOM     32 CL   UNL     1       6.091  -6.016  -7.780  0.00  0.00    -0.082 Cl
ATOM     33 CL   UNL     1       8.288  -6.072  -5.567  0.00  0.00    -0.082 Cl
ENDBRANCH  22  26
TORSDOF 1
