REMARK  Name = ZINC62847132
REMARK  8 active torsions:
REMARK  status: ('A' for Active; 'I' for Inactive)
REMARK    1  A    between atoms: C_1  and  C_2
REMARK    2  A    between atoms: C_2  and  C_3
REMARK    3  A    between atoms: C_3  and  C_20
REMARK    4  A    between atoms: N_11  and  C_12
REMARK    5  A    between atoms: C_12  and  C_14
REMARK    6  A    between atoms: C_12  and  C_15
REMARK    7  A    between atoms: N_17  and  C_18
REMARK    8  A    between atoms: N_17  and  C_19
REMARK                            x       y       z     vdW  Elec       q    Type
REMARK                         _______ _______ _______ _____ _____    ______ ____
ROOT
ATOM      1  C   UNL     1      -0.867  -0.145  -0.453  0.00  0.00    +0.075 C 
ATOM      2  C   UNL     1      -1.763   0.260  -1.625  0.00  0.00    +0.037 C 
ATOM      3  C   UNL     1      -1.183  -0.306  -2.925  0.00  0.00    +0.110 C 
ATOM      4  N   UNL     1      -1.007  -1.757  -2.772  0.00  0.00    -0.286 N 
ATOM      5  C   UNL     1      -0.237  -2.258  -1.625  0.00  0.00    +0.110 C 
ATOM      6  C   UNL     1      -0.829  -1.671  -0.340  0.00  0.00    +0.037 C 
ATOM      7  C   UNL     1      -1.542  -2.611  -3.667  0.00  0.00    +0.303 C 
ATOM      8  O   UNL     1      -2.252  -2.191  -4.560  0.00  0.00    -0.253 OA
ATOM      9  N   UNL     1      -1.289  -3.932  -3.572  0.00  0.00    -0.288 N 
ATOM     10  H   UNL     1      -0.782  -4.276  -2.820  0.00  0.00    +0.151 HD
ENDROOT
BRANCH   1  11
ATOM     11  C   UNL     1      -1.417   0.439   0.824  0.00  0.00    +0.362 C 
ATOM     12  O   UNL     1      -1.531   1.647   0.942  0.00  0.00    -0.246 OA
ATOM     13  O   UNL     1      -1.748  -0.297   1.738  0.00  0.00    -0.246 OA
ENDBRANCH   1  11
BRANCH   1  15
ATOM     14  C   UNL     1       0.511   1.910  -0.799  0.00  0.00    +0.005 C 
ATOM     15  C   UNL     1       0.549   0.385  -0.687  0.00  0.00    +0.015 C 
ENDBRANCH   1  15
BRANCH   9  16
ATOM     16  C   UNL     1      -1.779  -4.848  -4.605  0.00  0.00    +0.157 C 
ATOM     17  C   UNL     1      -3.221  -5.250  -4.287  0.00  0.00    +0.038 C 
BRANCH  16  18
ATOM     18  C   UNL     1      -0.910  -6.079  -4.639  0.00  0.00    +0.235 C 
ATOM     19  O   UNL     1      -0.274  -6.399  -3.657  0.00  0.00    -0.274 OA
ATOM     20  N   UNL     1      -0.840  -6.823  -5.760  0.00  0.00    -0.306 N 
ATOM     21  C   UNL     1      -0.073  -8.071  -5.763  0.00  0.00    +0.131 C 
ATOM     22  C   UNL     1      -1.530  -6.384  -6.975  0.00  0.00    +0.131 C 
ENDBRANCH  16  18
ENDBRANCH   9  16
TORSDOF 4
