REMARK  Name = ZINC15958078
REMARK  17 active torsions:
REMARK  status: ('A' for Active; 'I' for Inactive)
REMARK    1  A    between atoms: C_1  and  C_2
REMARK    2  A    between atoms: C_2  and  C_4
REMARK    3  A    between atoms: C_2  and  C_42
REMARK    4  A    between atoms: C_4  and  C_5
REMARK    5  A    between atoms: C_5  and  C_6
REMARK    6  A    between atoms: C_6  and  O_8
REMARK    7  A    between atoms: O_8  and  C_9
REMARK    8  A    between atoms: C_20  and  O_38
REMARK    9  A    between atoms: C_24  and  C_37
REMARK   10  A    between atoms: C_29  and  C_36
REMARK   11  A    between atoms: C_30  and  N_32
REMARK   12  A    between atoms: C_33  and  C_35
REMARK   13  A    between atoms: O_38  and  C_39
REMARK   14  A    between atoms: C_39  and  C_41
REMARK   15  A    between atoms: C_42  and  O_43
REMARK   16  A    between atoms: O_43  and  C_44
REMARK   17  A    between atoms: C_44  and  C_46
REMARK                            x       y       z     vdW  Elec       q    Type
REMARK                         _______ _______ _______ _____ _____    ______ ____
ROOT
ATOM      1  C   UNL     1      -4.975   9.866   1.172  0.00  0.00    +0.197 C 
ATOM      2  C   UNL     1      -4.817  10.324  -0.307  0.00  0.00    +0.051 C 
ATOM      3  C   UNL     1      -6.189  10.940  -0.607  0.00  0.00    +0.004 C 
ATOM      4  C   UNL     1      -6.374  11.738  -1.859  0.00  0.00    +0.000 C 
ATOM      5  C   UNL     1      -5.370  12.867  -2.055  0.00  0.00    +0.031 C 
ATOM      6  C   UNL     1      -5.695  13.582  -3.341  0.00  0.00    -0.027 C 
ATOM      7  C   UNL     1      -6.903  13.657  -3.806  0.00  0.00    -0.064 C 
ATOM      8  C   UNL     1      -7.137  14.428  -5.096  0.00  0.00    +0.075 C 
ATOM      9  C   UNL     1      -8.007  13.556  -6.008  0.00  0.00    +0.180 C 
ATOM     10  C   UNL     1      -8.001  12.117  -5.499  0.00  0.00    +0.046 C 
ATOM     11  C   UNL     1      -8.700  12.009  -4.146  0.00  0.00    +0.015 C 
ATOM     12  C   UNL     1      -8.102  13.020  -3.157  0.00  0.00    -0.008 C 
ATOM     13  C   UNL     1      -7.797  12.330  -1.847  0.00  0.00    +0.003 C 
ATOM     14  C   UNL     1      -8.037  13.157  -0.599  0.00  0.00    +0.005 C 
ATOM     15  C   UNL     1      -7.864  12.293   0.668  0.00  0.00    +0.009 C 
ATOM     16  C   UNL     1      -6.473  11.714   0.694  0.00  0.00    -0.007 C 
ATOM     17  C   UNL     1      -6.236  10.585   1.721  0.00  0.00    +0.120 C 
ATOM     18  C   UNL     1      -5.444  12.797   1.006  0.00  0.00    +0.013 C 
ATOM     19  C   UNL     1      -9.156  14.108  -2.942  0.00  0.00    +0.016 C 
ENDROOT
BRANCH  17  20
ATOM     20  N   UNL     1      -5.970  11.162   3.036  0.00  0.00    -0.309 N 
ATOM     21  C   UNL     1      -6.124  10.412   4.145  0.00  0.00    +0.210 C 
ATOM     22  O   UNL     1      -6.485   9.258   4.052  0.00  0.00    -0.276 OA
ATOM     23  C   UNL     1      -5.849  11.008   5.502  0.00  0.00    +0.109 C 
ATOM     24  H   UNL     1      -5.681  12.085   3.111  0.00  0.00    +0.149 HD
ENDBRANCH  17  20
BRANCH   1  25
ATOM     25  O   UNL     1      -5.162   8.427   1.227  0.00  0.00    -0.459 OA
BRANCH  25  26
ATOM     26  C   UNL     1      -4.059   7.674   1.360  0.00  0.00    +0.307 C 
ATOM     27  O   UNL     1      -2.973   8.200   1.429  0.00  0.00    -0.251 OA
BRANCH  26  28
ATOM     28  C   UNL     1      -4.174   6.173   1.424  0.00  0.00    +0.121 C 
BRANCH  28  29
ATOM     29  C   UNL     1      -2.780   5.561   1.576  0.00  0.00    +0.018 C 
BRANCH  29  31
ATOM     30  C   UNL     1      -3.429   3.509   0.306  0.00  0.00    +0.011 C 
ATOM     31  C   UNL     1      -2.898   4.036   1.641  0.00  0.00    +0.024 C 
BRANCH  31  32
ATOM     32  C   UNL     1      -1.520   3.430   1.917  0.00  0.00    +0.235 C 
BRANCH  32  33
ATOM     33  O   UNL     1      -1.650   1.995   2.096  0.00  0.00    -0.465 OA
BRANCH  33  34
ATOM     34  C   UNL     1      -0.525   1.308   2.348  0.00  0.00    +0.304 C 
ATOM     35  O   UNL     1       0.534   1.886   2.411  0.00  0.00    -0.251 OA
ATOM     36  C   UNL     1      -0.581  -0.185   2.545  0.00  0.00    +0.136 C 
ENDBRANCH  33  34
ENDBRANCH  32  33
ENDBRANCH  31  32
ENDBRANCH  29  31
ENDBRANCH  28  29
ENDBRANCH  26  28
ENDBRANCH  25  26
ENDBRANCH   1  25
BRANCH   9  37
ATOM     37  O   UNL     1      -7.481  13.593  -7.362  0.00  0.00    -0.461 OA
BRANCH  37  38
ATOM     38  C   UNL     1      -7.951  14.554  -8.172  0.00  0.00    +0.304 C 
ATOM     39  O   UNL     1      -8.775  15.338  -7.765  0.00  0.00    -0.251 OA
ATOM     40  C   UNL     1      -7.451  14.654  -9.591  0.00  0.00    +0.136 C 
ENDBRANCH  37  38
ENDBRANCH   9  37
TORSDOF 11
