REMARK  Name = ZINC35711428
REMARK  13 active torsions:
REMARK  status: ('A' for Active; 'I' for Inactive)
REMARK    1  A    between atoms: C_1  and  C_2
REMARK    2  A    between atoms: C_2  and  C_3
REMARK    3  A    between atoms: C_3  and  N_4
REMARK    4  A    between atoms: C_5  and  C_35
REMARK    5  A    between atoms: C_6  and  C_30
REMARK    6  A    between atoms: C_7  and  C_12
REMARK    7  A    between atoms: C_15  and  N_18
REMARK    8  A    between atoms: N_21  and  C_22
REMARK    9  A    between atoms: C_25  and  C_29
REMARK   10  A    between atoms: C_27  and  C_28
REMARK   11  A    between atoms: C_30  and  O_32
REMARK   12  A    between atoms: O_32  and  C_33
REMARK   13  A    between atoms: C_33  and  C_34
REMARK                            x       y       z     vdW  Elec       q    Type
REMARK                         _______ _______ _______ _____ _____    ______ ____
ROOT
ATOM      1  C   UNL     1      -2.564  -5.744   0.280  0.00  0.00    -0.022 A 
ATOM      2  C   UNL     1      -3.768  -5.243   0.740  0.00  0.00    +0.007 A 
ATOM      3  C   UNL     1      -4.839  -6.092   0.942  0.00  0.00    +0.024 A 
ATOM      4  C   UNL     1      -4.705  -7.450   0.683  0.00  0.00    +0.035 A 
ATOM      5  C   UNL     1      -3.494  -7.950   0.222  0.00  0.00    +0.024 A 
ATOM      6  C   UNL     1      -2.429  -7.095   0.016  0.00  0.00    +0.007 A 
ENDROOT
BRANCH   1  10
ATOM      7  N   UNL     1      -1.520  -2.058  -0.106  0.00  0.00    -0.259 N 
ATOM      8  C   UNL     1      -1.650  -2.766  -1.266  0.00  0.00    +0.024 C 
ATOM      9  C   UNL     1      -1.601  -4.115  -1.268  0.00  0.00    +0.078 C 
ATOM     10  C   UNL     1      -1.397  -4.816   0.061  0.00  0.00    +0.143 C 
ATOM     11  N   UNL     1      -1.268  -3.960   1.253  0.00  0.00    -0.288 N 
ATOM     12  C   UNL     1      -1.334  -2.624   1.093  0.00  0.00    +0.307 C 
ATOM     13  O   UNL     1      -1.225  -1.909   2.071  0.00  0.00    -0.252 OA
ATOM     14  C   UNL     1      -1.851  -2.030  -2.565  0.00  0.00    +0.061 C 
ATOM     15  H   UNL     1      -1.137  -4.350   2.131  0.00  0.00    +0.151 HD
BRANCH   9  16
ATOM     16  C   UNL     1      -1.736  -4.851  -2.469  0.00  0.00    +0.339 C 
ATOM     17  O   UNL     1      -1.899  -4.267  -3.524  0.00  0.00    -0.245 OA
BRANCH  16  18
ATOM     18  O   UNL     1      -1.683  -6.199  -2.444  0.00  0.00    -0.462 OA
BRANCH  18  19
ATOM     19  C   UNL     1      -1.827  -6.877  -3.693  0.00  0.00    +0.229 C 
ATOM     20  C   UNL     1      -1.742  -8.387  -3.467  0.00  0.00    +0.048 C 
ENDBRANCH  18  19
ENDBRANCH  16  18
ENDBRANCH   9  16
BRANCH   7  21
ATOM     21  C   UNL     1      -1.583  -0.596  -0.177  0.00  0.00    +0.114 C 
BRANCH  21  23
ATOM     22  C   UNL     1      -3.111   1.381  -0.224  0.00  0.00    +0.005 C 
ATOM     23  C   UNL     1      -3.045  -0.146  -0.149  0.00  0.00    +0.016 C 
ENDBRANCH  21  23
ENDBRANCH   7  21
ENDBRANCH   1  10
BRANCH   4  24
ATOM     24  N   UNL     1      -5.788  -8.312   0.887  0.00  0.00    -0.269 N 
ATOM     25  C   UNL     1      -7.043  -7.888   0.638  0.00  0.00    +0.308 C 
ATOM     26  O   UNL     1      -7.242  -6.733   0.315  0.00  0.00    -0.252 OA
ATOM     27  N   UNL     1      -8.078  -8.745   0.748  0.00  0.00    -0.269 N 
ATOM     28  H   UNL     1      -5.635  -9.215   1.207  0.00  0.00    +0.156 HD
ATOM     29  H   UNL     1      -7.926  -9.652   1.059  0.00  0.00    +0.156 HD
BRANCH  27  30
ATOM     30  C   UNL     1      -9.370  -8.328   0.413  0.00  0.00    +0.038 A 
ATOM     31  C   UNL     1      -9.708  -6.982   0.484  0.00  0.00    +0.024 A 
ATOM     32  C   UNL     1     -10.984  -6.574   0.152  0.00  0.00    +0.005 A 
ATOM     33  C   UNL     1     -11.926  -7.502  -0.251  0.00  0.00    -0.050 A 
ATOM     34  C   UNL     1     -11.594  -8.842  -0.323  0.00  0.00    +0.008 A 
ATOM     35  C   UNL     1     -10.317  -9.257   0.002  0.00  0.00    -0.029 A 
ATOM     36  C   UNL     1      -9.953 -10.717  -0.084  0.00  0.00    +0.045 C 
ATOM     37  C   UNL     1     -13.319  -7.052  -0.613  0.00  0.00    +0.044 C 
ENDBRANCH  27  30
ENDBRANCH   4  24
TORSDOF 8
