REMARK  Name = ZINC39954848
REMARK  4 active torsions:
REMARK  status: ('A' for Active; 'I' for Inactive)
REMARK    1  A    between atoms: C_1  and  C_2
REMARK    2  A    between atoms: N_4  and  C_5
REMARK    3  A    between atoms: C_11  and  C_15
REMARK    4  A    between atoms: N_17  and  C_18
REMARK                            x       y       z     vdW  Elec       q    Type
REMARK                         _______ _______ _______ _____ _____    ______ ____
ROOT
ATOM      1  C   UNL     1      -1.232  -1.918   0.163  0.00  0.00    +0.224 C 
ATOM      2  N   UNL     1      -2.498  -2.584  -0.172  0.00  0.00    -0.316 N 
ATOM      3  C   UNL     1      -3.088  -3.377   0.802  0.00  0.00    +0.043 A 
ATOM      4  C   UNL     1      -4.297  -4.088   0.655  0.00  0.00    +0.025 A 
ATOM      5  C   UNL     1      -4.807  -4.848   1.674  0.00  0.00    +0.015 A 
ATOM      6  C   UNL     1      -4.142  -4.945   2.900  0.00  0.00    +0.038 A 
ATOM      7  C   UNL     1      -2.939  -4.249   3.069  0.00  0.00    +0.029 A 
ATOM      8  C   UNL     1      -2.441  -3.491   2.040  0.00  0.00    +0.033 A 
ATOM      9  S   UNL     1      -0.976  -2.491   1.891  0.00  0.00    -0.082 S 
ATOM     10  H   UNL     1      -2.907  -2.474  -1.045  0.00  0.00    +0.149 HD
ENDROOT
BRANCH   1  14
ATOM     11  C   UNL     1      -0.422   1.823   0.093  0.00  0.00    +0.109 C 
ATOM     12  C   UNL     1      -0.278   0.324   0.151  0.00  0.00    +0.212 C 
ATOM     13  O   UNL     1       0.824  -0.177   0.239  0.00  0.00    -0.276 OA
ATOM     14  N   UNL     1      -1.373  -0.461   0.107  0.00  0.00    -0.288 N 
ATOM     15  H   UNL     1      -2.253  -0.061   0.037  0.00  0.00    +0.151 HD
ENDBRANCH   1  14
BRANCH   6  16
ATOM     16  C   UNL     1      -4.697  -5.765   3.993  0.00  0.00    +0.248 C 
ATOM     17  O   UNL     1      -4.109  -5.841   5.054  0.00  0.00    -0.270 OA
ATOM     18  N   UNL     1      -5.856  -6.430   3.816  0.00  0.00    -0.282 N 
ATOM     19  H   UNL     1      -6.363  -6.311   2.997  0.00  0.00    +0.155 HD
BRANCH  18  20
ATOM     20  C   UNL     1      -6.324  -7.282   4.803  0.00  0.00    +0.034 C 
ATOM     21  C   UNL     1      -7.587  -7.090   5.348  0.00  0.00    +0.029 C 
ATOM     22  C   UNL     1      -7.929  -7.977   6.376  0.00  0.00    -0.016 C 
ATOM     23  C   UNL     1      -9.105  -8.490   6.788  0.00  0.00    +0.025 C 
ATOM     24  C   UNL     1      -8.864  -9.552   7.681  0.00  0.00    +0.106 C 
ATOM     25  N   UNL     1      -7.593  -9.694   7.946  0.00  0.00    -0.279 NA
ATOM     26  C   UNL     1      -6.883  -8.615   7.274  0.00  0.00    +0.158 C 
ATOM     27  C   UNL     1      -5.738  -9.049   6.410  0.00  0.00    +0.006 C 
ATOM     28  C   UNL     1      -5.492  -8.394   5.272  0.00  0.00    +0.021 C 
ENDBRANCH  18  20
ENDBRANCH   6  16
TORSDOF 3
