REMARK  Name = ZINC40844480
REMARK  9 active torsions:
REMARK  status: ('A' for Active; 'I' for Inactive)
REMARK    1  A    between atoms: C_5  and  N_7
REMARK    2  A    between atoms: N_12  and  C_15
REMARK    3  A    between atoms: C_15  and  C_16
REMARK    4  A    between atoms: C_16  and  C_17
REMARK    5  A    between atoms: C_17  and  C_18
REMARK    6  A    between atoms: C_18  and  C_19
REMARK    7  A    between atoms: C_19  and  C_20
REMARK    8  A    between atoms: N_22  and  C_23
REMARK    9  A    between atoms: C_24  and  C_32
REMARK                            x       y       z     vdW  Elec       q    Type
REMARK                         _______ _______ _______ _____ _____    ______ ____
ROOT
ATOM      1  C   UNL     1       8.062   0.805  -1.515  0.00  0.00    +0.002 C 
ENDROOT
BRANCH   1   2
ATOM      2  C   UNL     1       6.532   0.784  -1.500  0.00  0.00    +0.019 C 
BRANCH   2   3
ATOM      3  C   UNL     1       6.037   0.769  -0.052  0.00  0.00    +0.117 C 
BRANCH   3  12
ATOM      4  C   UNL     1      -0.017   1.378   0.010  0.00  0.00    +0.003 A 
ATOM      5  C   UNL     1       1.169   2.097   0.002  0.00  0.00    +0.014 A 
ATOM      6  C   UNL     1       2.380   1.424  -0.013  0.00  0.00    +0.052 A 
ATOM      7  C   UNL     1       2.399   0.015  -0.021  0.00  0.00    +0.080 A 
ATOM      8  C   UNL     1       1.207  -0.691  -0.013  0.00  0.00    +0.139 A 
ATOM      9  C   UNL     1       0.002  -0.004   0.002  0.00  0.00    +0.033 A 
ATOM     10  C   UNL     1       3.826  -0.370  -0.037  0.00  0.00    +0.256 C 
ATOM     11  O   UNL     1       4.253  -1.507  -0.047  0.00  0.00    -0.269 OA
ATOM     12  N   UNL     1       4.572   0.749  -0.038  0.00  0.00    -0.234 N 
ATOM     13  C   UNL     1       3.796   1.848  -0.025  0.00  0.00    +0.254 C 
ATOM     14  O   UNL     1       4.192   2.996  -0.023  0.00  0.00    -0.270 OA
BRANCH   8  15
ATOM     15  N   UNL     1       1.218  -2.171  -0.021  0.00  0.00    +0.057 N 
ATOM     16  O   UNL     1       0.176  -2.784  -0.014  0.00  0.00    -0.126 OA
ATOM     17  O   UNL     1       2.270  -2.767  -0.035  0.00  0.00    -0.126 OA
ENDBRANCH   8  15
ENDBRANCH   3  12
ENDBRANCH   2   3
ENDBRANCH   1   2
BRANCH   1  18
ATOM     18  C   UNL     1       8.558   0.819  -2.962  0.00  0.00    +0.009 C 
BRANCH  18  19
ATOM     19  C   UNL     1      10.088   0.840  -2.977  0.00  0.00    +0.096 C 
BRANCH  19  20
ATOM     20  C   UNL     1      10.576   0.854  -4.403  0.00  0.00    +0.218 C 
ATOM     21  O   UNL     1       9.779   0.849  -5.317  0.00  0.00    -0.275 OA
ATOM     22  N   UNL     1      11.898   0.874  -4.662  0.00  0.00    -0.279 N 
ATOM     23  H   UNL     1      12.536   0.878  -3.931  0.00  0.00    +0.155 HD
BRANCH  22  24
ATOM     24  C   UNL     1      12.348   0.887  -5.975  0.00  0.00    +0.090 A 
ATOM     25  C   UNL     1      13.658   0.902  -6.427  0.00  0.00    +0.084 A 
ATOM     26  C   UNL     1      13.865   0.913  -7.864  0.00  0.00    -0.018 A 
ATOM     27  C   UNL     1      12.724   0.908  -8.587  0.00  0.00    -0.004 A 
ATOM     28  S   UNL     1      11.430   0.882  -7.381  0.00  0.00    -0.077 S 
ATOM     29  C   UNL     1      12.604   0.919 -10.079  0.00  0.00    +0.043 C 
ATOM     30  C   UNL     1      13.966   1.317 -10.669  0.00  0.00    +0.005 C 
ATOM     31  C   UNL     1      15.060   0.485  -9.994  0.00  0.00    +0.005 C 
ATOM     32  C   UNL     1      15.229   0.928  -8.539  0.00  0.00    +0.037 C 
BRANCH  25  33
ATOM     33  C   UNL     1      14.761   0.906  -5.514  0.00  0.00    +0.102 C 
ATOM     34  N   UNL     1      15.636   0.909  -4.790  0.00  0.00    -0.191 NA
ENDBRANCH  25  33
ENDBRANCH  22  24
ENDBRANCH  19  20
ENDBRANCH  18  19
ENDBRANCH   1  18
TORSDOF 9
