REMARK  Name = ZINC08921680
REMARK  7 active torsions:
REMARK  status: ('A' for Active; 'I' for Inactive)
REMARK    1  A    between atoms: C_1  and  C_2
REMARK    2  A    between atoms: C_2  and  O_3
REMARK    3  A    between atoms: O_3  and  C_4
REMARK    4  A    between atoms: C_14  and  O_34
REMARK    5  A    between atoms: C_16  and  C_19
REMARK    6  A    between atoms: C_22  and  C_24
REMARK    7  A    between atoms: C_26  and  N_31
REMARK                            x       y       z     vdW  Elec       q    Type
REMARK                         _______ _______ _______ _____ _____    ______ ____
ROOT
ATOM      1  C   UNL     1       0.776  -1.798  -1.335  0.00  0.00    +0.403 C 
ATOM      2  O   UNL     1       0.312  -2.549  -0.500  0.00  0.00    -0.226 OA
ATOM      3  N   UNL     1       1.395  -2.298  -2.422  0.00  0.00    -0.262 N 
ATOM      4  C   UNL     1       1.520  -3.749  -2.628  0.00  0.00    +0.116 C 
ATOM      5  C   UNL     1       0.736  -4.159  -3.877  0.00  0.00    +0.056 C 
ATOM      6  C   UNL     1       1.081  -3.213  -5.017  0.00  0.00    -0.020 A 
ATOM      7  C   UNL     1       1.628  -1.998  -4.785  0.00  0.00    +0.013 A 
ATOM      8  S   UNL     1       1.840  -1.278  -6.389  0.00  0.00    -0.076 S 
ATOM      9  C   UNL     1       1.239  -2.510  -7.322  0.00  0.00    +0.080 A 
ATOM     10  C   UNL     1       0.863  -3.513  -6.421  0.00  0.00    +0.068 A 
ATOM     11  C   UNL     1       0.295  -4.764  -6.987  0.00  0.00    +0.220 C 
ATOM     12  N   UNL     1      -0.049  -4.758  -8.246  0.00  0.00    -0.220 NA
ATOM     13  C   UNL     1       0.026  -3.592  -9.118  0.00  0.00    +0.260 C 
ATOM     14  N   UNL     1       1.077  -2.655  -8.682  0.00  0.00    -0.311 N 
ATOM     15  C   UNL     1       1.968  -1.411  -3.453  0.00  0.00    +0.153 C 
ATOM     16  H   UNL     1       1.624  -2.167  -9.318  0.00  0.00    +0.149 HD
ENDROOT
BRANCH  13  17
ATOM     17  C   UNL     1      -1.302  -2.881  -9.104  0.00  0.00    +0.148 A 
ATOM     18  C   UNL     1      -2.502  -3.462  -8.910  0.00  0.00    +0.049 A 
ATOM     19  C   UNL     1      -3.471  -2.439  -8.973  0.00  0.00    +0.050 A 
ATOM     20  C   UNL     1      -2.801  -1.279  -9.204  0.00  0.00    +0.137 A 
ATOM     21  O   UNL     1      -1.486  -1.561  -9.276  0.00  0.00    -0.456 OA
BRANCH  20  22
ATOM     22  C   UNL     1      -3.409   0.060  -9.347  0.00  0.00    +0.038 A 
ATOM     23  C   UNL     1      -2.909   1.139  -8.616  0.00  0.00    +0.045 A 
ATOM     24  C   UNL     1      -3.481   2.386  -8.753  0.00  0.00    +0.127 A 
ATOM     25  C   UNL     1      -4.550   2.571  -9.613  0.00  0.00    +0.034 A 
ATOM     26  C   UNL     1      -5.052   1.506 -10.341  0.00  0.00    +0.023 A 
ATOM     27  C   UNL     1      -4.484   0.253 -10.217  0.00  0.00    +0.052 A 
ATOM     28 CL   UNL     1      -5.111  -1.080 -11.136  0.00  0.00    -0.083 Cl
BRANCH  24  29
ATOM     29  N   UNL     1      -2.951   3.531  -7.979  0.00  0.00    +0.056 N 
ATOM     30  O   UNL     1      -2.018   3.372  -7.227  0.00  0.00    -0.126 OA
ATOM     31  O   UNL     1      -3.451   4.625  -8.098  0.00  0.00    -0.126 OA
ENDBRANCH  24  29
ENDBRANCH  20  22
ENDBRANCH  13  17
BRANCH  11  32
ATOM     32  O   UNL     1       0.139  -5.870  -6.223  0.00  0.00    -0.492 OA
ATOM     33  H   UNL     1      -0.240  -6.624  -6.696  0.00  0.00    +0.294 HD
ENDBRANCH  11  32
BRANCH   1  34
ATOM     34  O   UNL     1       0.671  -0.465  -1.174  0.00  0.00    -0.451 OA
BRANCH  34  36
ATOM     35  C   UNL     1      -0.019   1.526   0.010  0.00  0.00    +0.048 C 
ATOM     36  C   UNL     1       0.002  -0.004   0.002  0.00  0.00    +0.230 C 
ENDBRANCH  34  36
ENDBRANCH   1  34
TORSDOF 6
