REMARK  Name = ZINC10108373
REMARK  9 active torsions:
REMARK  status: ('A' for Active; 'I' for Inactive)
REMARK    1  A    between atoms: C_1  and  C_2
REMARK    2  A    between atoms: N_9  and  C_10
REMARK    3  A    between atoms: N_17  and  C_35
REMARK    4  A    between atoms: N_20  and  C_23
REMARK    5  A    between atoms: C_23  and  C_24
REMARK    6  A    between atoms: C_24  and  C_26
REMARK    7  A    between atoms: C_24  and  C_27
REMARK    8  A    between atoms: C_27  and  N_65
REMARK    9  A    between atoms: C_32  and  C_34
REMARK                            x       y       z     vdW  Elec       q    Type
REMARK                         _______ _______ _______ _____ _____    ______ ____
ROOT
ATOM      1  C   UNL     1       1.887   7.062   0.203  0.00  0.00    +0.065 C 
ATOM      2  C   UNL     1       1.996   5.560   0.143  0.00  0.00    +0.040 A 
ATOM      3  C   UNL     1       0.979   4.703   0.144  0.00  0.00    +0.116 A 
ATOM      4  N   UNL     1       1.489   3.419   0.079  0.00  0.00    -0.277 N 
ATOM      5  C   UNL     1       1.166   2.071   0.037  0.00  0.00    +0.157 A 
ATOM      6  C   UNL     1       2.376   1.380  -0.028  0.00  0.00    +0.170 A 
ATOM      7  N   UNL     1       3.353   2.283  -0.026  0.00  0.00    -0.193 NA
ATOM      8  C   UNL     1       2.840   3.503   0.038  0.00  0.00    +0.223 A 
ATOM      9  N   UNL     1       3.171   4.834   0.077  0.00  0.00    -0.283 N 
ATOM     10  N   UNL     1       2.351  -0.006  -0.081  0.00  0.00    -0.279 N 
ATOM     11  C   UNL     1       1.174  -0.659  -0.067  0.00  0.00    +0.333 A 
ATOM     12  O   UNL     1       1.170  -1.874  -0.113  0.00  0.00    -0.246 OA
ATOM     13  N   UNL     1       0.003  -0.002  -0.004  0.00  0.00    -0.259 N 
ATOM     14  C   UNL     1      -0.037   1.346   0.049  0.00  0.00    +0.283 A 
ATOM     15  O   UNL     1      -1.106   1.928   0.100  0.00  0.00    -0.265 OA
ATOM     16  C   UNL     1       3.606  -0.758  -0.150  0.00  0.00    +0.155 C 
ENDROOT
BRANCH   9  17
ATOM     17  C   UNL     1       4.468   5.363   0.055  0.00  0.00    +0.050 A 
ATOM     18  C   UNL     1       5.337   5.119   1.111  0.00  0.00    +0.027 A 
ATOM     19  C   UNL     1       6.617   5.636   1.083  0.00  0.00    +0.022 A 
ATOM     20  C   UNL     1       7.030   6.407   0.011  0.00  0.00    +0.041 A 
ATOM     21  C   UNL     1       6.165   6.657  -1.039  0.00  0.00    +0.022 A 
ATOM     22  C   UNL     1       4.885   6.136  -1.020  0.00  0.00    +0.027 A 
ATOM     23 CL   UNL     1       8.637   7.063  -0.017  0.00  0.00    -0.084 Cl
ENDBRANCH   9  17
BRANCH  13  24
ATOM     24  C   UNL     1      -1.250  -0.761   0.008  0.00  0.00    +0.131 C 
BRANCH  24  25
ATOM     25  C   UNL     1      -1.733  -0.970  -1.428  0.00  0.00    -0.011 C 
ATOM     26  C   UNL     1      -2.085   0.383  -2.051  0.00  0.00    +0.007 C 
BRANCH  25  27
ATOM     27  C   UNL     1      -2.972  -1.867  -1.424  0.00  0.00    -0.074 C 
BRANCH  27  34
ATOM     28  C   UNL     1      -2.294  -2.586  -3.634  0.00  0.00    -0.078 C 
ATOM     29  C   UNL     1      -2.747  -2.684  -5.093  0.00  0.00    -0.019 C 
ATOM     30  C   UNL     1      -3.931  -3.650  -5.190  0.00  0.00    -0.003 C 
ATOM     31  C   UNL     1      -5.059  -3.154  -4.282  0.00  0.00    -0.016 C 
ATOM     32  C   UNL     1      -4.540  -3.041  -2.847  0.00  0.00    -0.072 C 
ATOM     33  C   UNL     1      -5.659  -2.527  -1.938  0.00  0.00    -0.013 C 
ATOM     34  N   UNL     1      -3.417  -2.080  -2.817  0.00  0.00    +0.382 N 
ATOM     35  H   UNL     1      -3.735  -1.185  -3.205  0.00  0.00    -0.081 HD
ENDBRANCH  27  34
ENDBRANCH  25  27
ENDBRANCH  24  25
ENDBRANCH  13  24
TORSDOF 5
