REMARK  Name = ZINC06108718
REMARK  7 active torsions:
REMARK  status: ('A' for Active; 'I' for Inactive)
REMARK    1  A    between atoms: C_1  and  C_2
REMARK    2  A    between atoms: C_2  and  C_4
REMARK    3  A    between atoms: C_2  and  C_24
REMARK    4  A    between atoms: C_4  and  N_5
REMARK    5  A    between atoms: C_6  and  C_8
REMARK    6  A    between atoms: C_8  and  S_9
REMARK    7  A    between atoms: S_9  and  C_10
REMARK                            x       y       z     vdW  Elec       q    Type
REMARK                         _______ _______ _______ _____ _____    ______ ____
ROOT
ATOM      1  C   UNL     1       2.834  10.142  -3.585  0.00  0.00    +0.191 A 
ATOM      2  N   UNL     1       2.141  10.574  -2.538  0.00  0.00    -0.207 NA
ATOM      3  C   UNL     1       1.745  11.831  -2.428  0.00  0.00    +0.129 A 
ATOM      4  C   UNL     1       2.059  12.752  -3.466  0.00  0.00    +0.051 A 
ATOM      5  C   UNL     1       1.724  14.175  -3.558  0.00  0.00    -0.025 A 
ATOM      6  C   UNL     1       2.143  14.832  -4.658  0.00  0.00    -0.004 A 
ATOM      7  S   UNL     1       2.999  13.617  -5.625  0.00  0.00    -0.073 S 
ATOM      8  C   UNL     1       2.792  12.224  -4.547  0.00  0.00    +0.115 A 
ATOM      9  N   UNL     1       3.155  10.956  -4.581  0.00  0.00    -0.214 NA
ATOM     10  C   UNL     1       1.930  16.278  -4.987  0.00  0.00    +0.043 C 
ATOM     11  C   UNL     1       0.838  16.831  -4.061  0.00  0.00    +0.005 C 
ATOM     12  C   UNL     1       1.151  16.405  -2.623  0.00  0.00    +0.005 C 
ATOM     13  C   UNL     1       0.935  14.899  -2.470  0.00  0.00    +0.037 C 
ATOM     14  N   UNL     1       1.029  12.244  -1.319  0.00  0.00    -0.343 N 
ATOM     15  H   UNL     1       0.537  13.079  -1.343  0.00  0.00    +0.144 HD
ATOM     16  H   UNL     1       1.018  11.697  -0.517  0.00  0.00    +0.144 HD
ENDROOT
BRANCH   1  17
ATOM     17  S   UNL     1       3.332   8.453  -3.655  0.00  0.00    -0.077 S 
BRANCH  17  18
ATOM     18  C   UNL     1       2.642   7.857  -2.090  0.00  0.00    +0.173 C 
BRANCH  18  20
ATOM     19  N   UNL     1       2.536   5.730  -0.832  0.00  0.00    -0.314 N 
ATOM     20  C   UNL     1       2.954   6.392  -1.930  0.00  0.00    +0.223 C 
ATOM     21  O   UNL     1       3.580   5.807  -2.789  0.00  0.00    -0.275 OA
ATOM     22  H   UNL     1       2.035   6.198  -0.145  0.00  0.00    +0.149 HD
BRANCH  19  23
ATOM     23  C   UNL     1       2.839   4.306  -0.676  0.00  0.00    +0.112 C 
BRANCH  23  25
ATOM     24  C   UNL     1       2.963   4.496   1.812  0.00  0.00    +0.014 C 
ATOM     25  C   UNL     1       2.256   3.802   0.646  0.00  0.00    +0.033 C 
BRANCH  25  26
ATOM     26  C   UNL     1       2.460   2.313   0.750  0.00  0.00    -0.043 A 
ATOM     27  C   UNL     1       1.368   1.473   0.869  0.00  0.00    +0.004 A 
ATOM     28  C   UNL     1       1.555   0.106   0.964  0.00  0.00    +0.000 A 
ATOM     29  C   UNL     1       2.833  -0.420   0.939  0.00  0.00    +0.000 A 
ATOM     30  C   UNL     1       3.924   0.420   0.820  0.00  0.00    +0.000 A 
ATOM     31  C   UNL     1       3.738   1.786   0.725  0.00  0.00    +0.004 A 
ENDBRANCH  25  26
ENDBRANCH  23  25
ENDBRANCH  19  23
ENDBRANCH  18  20
ENDBRANCH  17  18
ENDBRANCH   1  17
TORSDOF 6
