REMARK  Name = ZINC30678007
REMARK  3 active torsions:
REMARK  status: ('A' for Active; 'I' for Inactive)
REMARK    1  A    between atoms: C_1  and  C_2
REMARK    2  A    between atoms: C_5  and  S_8
REMARK    3  A    between atoms: S_8  and  N_11
REMARK                            x       y       z     vdW  Elec       q    Type
REMARK                         _______ _______ _______ _____ _____    ______ ____
ROOT
ATOM      1  N   UNL     1       1.553   2.269  -0.001  0.00  0.00    -0.187 N 
ATOM      2  C   UNL     1       2.289   2.518  -1.128  0.00  0.00    +0.106 A 
ATOM      3  C   UNL     1       3.526   2.917  -0.788  0.00  0.00    +0.047 A 
ATOM      4  C   UNL     1       3.583   2.923   0.674  0.00  0.00    +0.035 A 
ATOM      5  C   UNL     1       2.312   2.511   1.120  0.00  0.00    +0.163 A 
ATOM      6  N   UNL     1       2.067   2.416   2.420  0.00  0.00    -0.236 NA
ATOM      7  C   UNL     1       2.983   2.706   3.319  0.00  0.00    +0.114 A 
ATOM      8  C   UNL     1       4.253   3.122   2.954  0.00  0.00    +0.035 A 
ATOM      9  C   UNL     1       4.571   3.236   1.612  0.00  0.00    +0.030 A 
ATOM     10 BR   UNL     1       6.290   3.800   1.062  0.00  0.00    -0.050 Br
ATOM     11  I   UNL     1       1.591   2.306  -3.092  0.00  0.00    -0.022 I 
ENDROOT
BRANCH   1  12
ATOM     12  S   UNL     1      -0.022   1.758   0.012  0.00  0.00    +0.086 S 
ATOM     13  O   UNL     1      -0.590   2.163  -1.226  0.00  0.00    -0.148 OA
ATOM     14  O   UNL     1      -0.566   2.150   1.264  0.00  0.00    -0.148 OA
BRANCH  12  19
ATOM     15  C   UNL     1       0.061  -4.275  -0.021  0.00  0.00    +0.044 C 
ATOM     16  C   UNL     1       0.039  -2.768  -0.013  0.00  0.00    -0.050 A 
ATOM     17  C   UNL     1       0.042  -2.084   1.188  0.00  0.00    +0.005 A 
ATOM     18  C   UNL     1       0.023  -0.702   1.195  0.00  0.00    +0.029 A 
ATOM     19  C   UNL     1       0.002  -0.004   0.002  0.00  0.00    +0.111 A 
ATOM     20  C   UNL     1      -0.006  -0.689  -1.199  0.00  0.00    +0.029 A 
ATOM     21  C   UNL     1       0.018  -2.071  -1.206  0.00  0.00    +0.005 A 
ENDBRANCH  12  19
ENDBRANCH   1  12
TORSDOF 2
