REMARK  Name = ZINC63570120
REMARK  7 active torsions:
REMARK  status: ('A' for Active; 'I' for Inactive)
REMARK    1  A    between atoms: C_4  and  C_7
REMARK    2  A    between atoms: N_18  and  C_19
REMARK    3  A    between atoms: C_19  and  C_20
REMARK    4  A    between atoms: C_23  and  C_26
REMARK    5  A    between atoms: N_28  and  C_29
REMARK    6  A    between atoms: C_29  and  C_30
REMARK    7  A    between atoms: C_30  and  C_31
REMARK                            x       y       z     vdW  Elec       q    Type
REMARK                         _______ _______ _______ _____ _____    ______ ____
ROOT
ATOM      1  C   UNL     1       6.053  -3.143  -4.114  0.00  0.00    -0.030 A 
ATOM      2  C   UNL     1       6.874  -2.044  -3.929  0.00  0.00    +0.006 A 
ATOM      3  C   UNL     1       8.193  -2.089  -4.332  0.00  0.00    +0.013 A 
ATOM      4  C   UNL     1       8.698  -3.245  -4.928  0.00  0.00    +0.037 A 
ATOM      5  C   UNL     1       7.865  -4.350  -5.112  0.00  0.00    +0.013 A 
ATOM      6  C   UNL     1       6.550  -4.294  -4.699  0.00  0.00    +0.006 A 
ENDROOT
BRANCH   4   7
ATOM      7  C   UNL     1      10.110  -3.300  -5.363  0.00  0.00    +0.244 C 
ATOM      8  O   UNL     1      10.834  -2.337  -5.202  0.00  0.00    -0.270 OA
ATOM      9  N   UNL     1      10.595  -4.418  -5.938  0.00  0.00    -0.311 N 
ATOM     10  H   UNL     1      10.018  -5.187  -6.066  0.00  0.00    +0.149 HD
BRANCH   9  11
ATOM     11  C   UNL     1      11.995  -4.473  -6.369  0.00  0.00    +0.110 C 
BRANCH  11  12
ATOM     12  C   UNL     1      12.286  -5.843  -6.984  0.00  0.00    +0.073 C 
BRANCH  12  13
ATOM     13  C   UNL     1      13.725  -5.898  -7.428  0.00  0.00    +0.035 A 
ATOM     14  H   UNL     1      16.806  -6.322  -7.178  0.00  0.00    +0.166 HD
ATOM     15  C   UNL     1      14.780  -6.217  -6.653  0.00  0.00    +0.105 A 
ATOM     16  N   UNL     1      15.891  -6.146  -7.449  0.00  0.00    -0.352 N 
ATOM     17  C   UNL     1      15.477  -5.787  -8.683  0.00  0.00    +0.171 A 
ATOM     18  N   UNL     1      14.180  -5.645  -8.664  0.00  0.00    -0.350 N 
ATOM     19  H   UNL     1      13.631  -5.394  -9.424  0.00  0.00    +0.166 HD
ENDBRANCH  12  13
ENDBRANCH  11  12
ENDBRANCH   9  11
ENDBRANCH   4   7
BRANCH   1  20
ATOM     20  C   UNL     1       4.614  -3.087  -3.671  0.00  0.00    +0.144 C 
BRANCH  20  30
ATOM     21  C   UNL     1       3.711  -0.707  -0.038  0.00  0.00    +0.103 C 
ATOM     22  C   UNL     1       4.027  -1.207  -1.475  0.00  0.00    +0.064 C 
ATOM     23  C   UNL     1       4.630  -2.594  -1.193  0.00  0.00    +0.163 C 
ATOM     24  N   UNL     1       3.761  -3.060  -0.080  0.00  0.00    -0.222 NA
ATOM     25  N   UNL     1       3.627  -1.928   0.807  0.00  0.00    -0.245 NA
ATOM     26  C   UNL     1       4.289  -4.308   0.446  0.00  0.00    +0.113 C 
ATOM     27  C   UNL     1       4.048  -5.387  -0.622  0.00  0.00    +0.113 C 
ATOM     28  C   UNL     1       4.296  -4.850  -2.002  0.00  0.00    +0.218 C 
ATOM     29  O   UNL     1       4.314  -5.637  -2.925  0.00  0.00    -0.276 OA
ATOM     30  N   UNL     1       4.512  -3.544  -2.283  0.00  0.00    -0.280 N 
ATOM     31  H   UNL     1       2.752  -1.962   1.308  0.00  0.00    +0.142 HD
BRANCH  21  35
ATOM     32  C   UNL     1      -0.017   1.378   0.010  0.00  0.00    +0.000 A 
ATOM     33  C   UNL     1       1.171   2.086   0.002  0.00  0.00    +0.000 A 
ATOM     34  C   UNL     1       2.377   1.411  -0.013  0.00  0.00    +0.005 A 
ATOM     35  C   UNL     1       2.396   0.029  -0.020  0.00  0.00    -0.029 A 
ATOM     36  C   UNL     1       1.208  -0.679  -0.012  0.00  0.00    +0.005 A 
ATOM     37  C   UNL     1       0.002  -0.004   0.002  0.00  0.00    +0.000 A 
ENDBRANCH  21  35
ENDBRANCH  20  30
ENDBRANCH   1  20
TORSDOF 7
