REMARK  Name = ZINC12376140
REMARK  1 active torsions:
REMARK  status: ('A' for Active; 'I' for Inactive)
REMARK    1  A    between atoms: C_4  and  C_7
REMARK                            x       y       z     vdW  Elec       q    Type
REMARK                         _______ _______ _______ _____ _____    ______ ____
ROOT
ATOM      1  C   UNL     1       3.711  -0.707  -0.038  0.00  0.00    +0.068 C 
ATOM      2  C   UNL     1       4.535  -0.324   1.200  0.00  0.00    +0.109 C 
ATOM      3  C   UNL     1       5.176   1.022   1.012  0.00  0.00    +0.219 C 
ATOM      4  O   UNL     1       5.242   1.768   1.966  0.00  0.00    -0.275 OA
ATOM      5  N   UNL     1       5.680   1.440  -0.163  0.00  0.00    -0.270 N 
ATOM      6  C   UNL     1       5.408   0.682  -1.333  0.00  0.00    +0.138 A 
ATOM      7  C   UNL     1       4.486  -0.324  -1.251  0.00  0.00    +0.041 A 
ATOM      8  S   UNL     1       4.484  -0.986  -2.890  0.00  0.00    -0.055 S 
ATOM      9  C   UNL     1       5.671   0.095  -3.560  0.00  0.00    +0.158 A 
ATOM     10  N   UNL     1       5.976   0.856  -2.522  0.00  0.00    -0.210 NA
ATOM     11  N   UNL     1       6.170   0.145  -4.851  0.00  0.00    -0.337 N 
ATOM     12  H   UNL     1       6.221   2.244  -0.210  0.00  0.00    +0.156 HD
ATOM     13  H   UNL     1       5.853  -0.483  -5.519  0.00  0.00    +0.144 HD
ATOM     14  H   UNL     1       6.837   0.809  -5.088  0.00  0.00    +0.144 HD
ENDROOT
BRANCH   1  18
ATOM     15  C   UNL     1      -0.017   1.378   0.010  0.00  0.00    +0.000 A 
ATOM     16  C   UNL     1       1.171   2.086   0.002  0.00  0.00    +0.000 A 
ATOM     17  C   UNL     1       2.377   1.411  -0.015  0.00  0.00    +0.004 A 
ATOM     18  C   UNL     1       2.396   0.029  -0.022  0.00  0.00    -0.039 A 
ATOM     19  C   UNL     1       1.208  -0.679  -0.013  0.00  0.00    +0.004 A 
ATOM     20  C   UNL     1       0.002  -0.004   0.002  0.00  0.00    +0.000 A 
ENDBRANCH   1  18
TORSDOF 1
