REMARK  Name = ZINC04390244
REMARK  4 active torsions:
REMARK  status: ('A' for Active; 'I' for Inactive)
REMARK    1  A    between atoms: C_6  and  C_7
REMARK    2  A    between atoms: N_8  and  N_9
REMARK    3  A    between atoms: N_9  and  C_10
REMARK    4  A    between atoms: C_13  and  C_17
REMARK                            x       y       z     vdW  Elec       q    Type
REMARK                         _______ _______ _______ _____ _____    ______ ____
ROOT
ATOM      1  N   UNL     1      -4.865   4.554   0.074  0.00  0.00    -0.235 N 
ATOM      2  H   UNL     1      -4.874   5.524   0.080  0.00  0.00    +0.174 HD
ENDROOT
BRANCH   1   3
ATOM      3  C   UNL     1      -6.067   3.845   0.082  0.00  0.00    +0.085 A 
ATOM      4  C   UNL     1      -6.080   2.493  -0.243  0.00  0.00    +0.065 A 
ATOM      5  C   UNL     1      -7.272   1.792  -0.228  0.00  0.00    +0.034 A 
ATOM      6  C   UNL     1      -8.451   2.437   0.097  0.00  0.00    +0.058 A 
ATOM      7  C   UNL     1      -8.443   3.783   0.415  0.00  0.00    +0.034 A 
ATOM      8  C   UNL     1      -7.255   4.489   0.408  0.00  0.00    +0.065 A 
ATOM      9 CL   UNL     1      -7.246   6.178   0.808  0.00  0.00    -0.082 Cl
ATOM     10 CL   UNL     1      -4.602   1.684  -0.659  0.00  0.00    -0.082 Cl
BRANCH   6  11
ATOM     11  C   UNL     1      -9.749   1.671   0.105  0.00  0.00    +0.418 C 
ATOM     12  F   UNL     1     -10.336   1.735  -1.163  0.00  0.00    -0.166 F 
ATOM     13  F   UNL     1      -9.499   0.335   0.437  0.00  0.00    -0.166 F 
ATOM     14  F   UNL     1     -10.616   2.231   1.050  0.00  0.00    -0.166 F 
ENDBRANCH   6  11
ENDBRANCH   1   3
BRANCH   1  16
ATOM     15  C   UNL     1      -2.527   4.526   0.051  0.00  0.00    +0.138 C 
ATOM     16  N   UNL     1      -3.645   3.866   0.058  0.00  0.00    -0.190 NA
BRANCH  15  22
ATOM     17  C   UNL     1      -0.038   4.509   0.027  0.00  0.00    +0.012 A 
ATOM     18  C   UNL     1       1.160   3.826   0.011  0.00  0.00    +0.040 A 
ATOM     19  C   UNL     1       1.171   2.441   0.004  0.00  0.00    +0.142 A 
ATOM     20  C   UNL     1      -0.021   1.732   0.012  0.00  0.00    +0.077 A 
ATOM     21  C   UNL     1      -1.226   2.404   0.021  0.00  0.00    +0.032 A 
ATOM     22  C   UNL     1      -1.243   3.801   0.034  0.00  0.00    -0.004 A 
ATOM     23 CL   UNL     1       0.002  -0.004   0.002  0.00  0.00    -0.081 Cl
ATOM     24  F   UNL     1       2.348   1.777  -0.011  0.00  0.00    -0.204 F 
ENDBRANCH  15  22
ENDBRANCH   1  16
TORSDOF 4
