REMARK  Name = ZINC13398065
REMARK  7 active torsions:
REMARK  status: ('A' for Active; 'I' for Inactive)
REMARK    1  A    between atoms: C_3  and  S_22
REMARK    2  A    between atoms: C_6  and  N_7
REMARK    3  A    between atoms: C_8  and  C_10
REMARK    4  A    between atoms: C_10  and  S_11
REMARK    5  A    between atoms: S_11  and  C_12
REMARK    6  A    between atoms: S_22  and  N_25
REMARK    7  A    between atoms: C_29  and  C_32
REMARK                            x       y       z     vdW  Elec       q    Type
REMARK                         _______ _______ _______ _____ _____    ______ ____
ROOT
ATOM      1  C   UNL     1       6.985  -4.908   0.062  0.00  0.00    +0.025 A 
ATOM      2  C   UNL     1       8.145  -5.654   0.137  0.00  0.00    +0.030 A 
ATOM      3  C   UNL     1       8.082  -7.036   0.122  0.00  0.00    +0.106 A 
ATOM      4  C   UNL     1       6.858  -7.674   0.038  0.00  0.00    +0.030 A 
ATOM      5  C   UNL     1       5.694  -6.934  -0.031  0.00  0.00    +0.025 A 
ATOM      6  C   UNL     1       5.754  -5.546  -0.016  0.00  0.00    +0.034 A 
ENDROOT
BRANCH   6   7
ATOM      7  N   UNL     1       4.577  -4.793  -0.087  0.00  0.00    -0.285 N 
ATOM      8  C   UNL     1       3.454  -5.240   0.510  0.00  0.00    +0.227 C 
ATOM      9  O   UNL     1       3.441  -6.334   1.035  0.00  0.00    -0.275 OA
ATOM     10  H   UNL     1       4.569  -3.949  -0.565  0.00  0.00    +0.155 HD
BRANCH   8  11
ATOM     11  C   UNL     1       2.215  -4.383   0.524  0.00  0.00    +0.170 C 
BRANCH  11  12
ATOM     12  S   UNL     1       0.885  -5.256   1.394  0.00  0.00    -0.116 S 
BRANCH  12  13
ATOM     13  C   UNL     1      -0.475  -4.138   1.325  0.00  0.00    +0.012 A 
ATOM     14  C   UNL     1      -0.334  -2.909   0.692  0.00  0.00    +0.018 A 
ATOM     15  C   UNL     1      -1.400  -2.032   0.640  0.00  0.00    +0.050 A 
ATOM     16  C   UNL     1      -2.613  -2.373   1.219  0.00  0.00    +0.162 A 
ATOM     17  C   UNL     1      -2.759  -3.603   1.851  0.00  0.00    +0.163 A 
ATOM     18  C   UNL     1      -1.689  -4.483   1.905  0.00  0.00    +0.064 A 
ATOM     19  O   UNL     1      -3.944  -3.959   2.417  0.00  0.00    -0.485 OA
ATOM     20  C   UNL     1      -4.878  -2.904   2.672  0.00  0.00    +0.270 C 
ATOM     21  C   UNL     1      -4.956  -2.019   1.421  0.00  0.00    +0.270 C 
ATOM     22  O   UNL     1      -3.650  -1.491   1.164  0.00  0.00    -0.485 OA
ENDBRANCH  12  13
ENDBRANCH  11  12
ENDBRANCH   8  11
ENDBRANCH   6   7
BRANCH   3  23
ATOM     23  S   UNL     1       9.564  -7.984   0.211  0.00  0.00    +0.061 S 
ATOM     24  O   UNL     1      10.539  -7.157   0.832  0.00  0.00    -0.153 OA
ATOM     25  O   UNL     1       9.202  -9.256   0.730  0.00  0.00    -0.153 OA
BRANCH  23  26
ATOM     26  N   UNL     1      10.078  -8.236  -1.343  0.00  0.00    -0.176 NA
ATOM     27  C   UNL     1       9.637  -9.418  -2.095  0.00  0.00    +0.109 C 
ATOM     28  C   UNL     1       9.032  -8.952  -3.428  0.00  0.00    +0.018 C 
ATOM     29  C   UNL     1      10.052  -8.082  -4.167  0.00  0.00    +0.017 C 
ATOM     30  C   UNL     1      10.374  -6.845  -3.326  0.00  0.00    +0.118 C 
ATOM     31  C   UNL     1      10.989  -7.284  -1.993  0.00  0.00    +0.124 C 
BRANCH  30  32
ATOM     32  C   UNL     1      11.353  -5.972  -4.068  0.00  0.00    +0.360 C 
ATOM     33  O   UNL     1      12.432  -5.727  -3.583  0.00  0.00    -0.246 OA
ATOM     34  O   UNL     1      11.026  -5.468  -5.269  0.00  0.00    -0.246 OA
ENDBRANCH  30  32
ENDBRANCH  23  26
ENDBRANCH   3  23
TORSDOF 7
