REMARK  Name = ZINC33265611
REMARK  7 active torsions:
REMARK  status: ('A' for Active; 'I' for Inactive)
REMARK    1  A    between atoms: C_1  and  C_2
REMARK    2  A    between atoms: C_2  and  O_3
REMARK    3  A    between atoms: O_3  and  C_4
REMARK    4  A    between atoms: C_4  and  C_6
REMARK    5  A    between atoms: C_11  and  N_12
REMARK    6  A    between atoms: C_27  and  C_29
REMARK    7  A    between atoms: N_31  and  C_34
REMARK                            x       y       z     vdW  Elec       q    Type
REMARK                         _______ _______ _______ _____ _____    ______ ____
ROOT
ATOM      1  N   UNL     1      -4.341   1.757   0.284  0.00  0.00    -0.269 N 
ATOM      2  C   UNL     1      -4.427   0.572  -0.352  0.00  0.00    +0.307 C 
ATOM      3  O   UNL     1      -5.333   0.368  -1.137  0.00  0.00    -0.252 OA
ATOM      4  N   UNL     1      -3.509  -0.387  -0.118  0.00  0.00    -0.273 N 
ATOM      5  C   UNL     1      -2.397  -0.177   0.825  0.00  0.00    +0.148 C 
ATOM      6  C   UNL     1      -1.094  -0.767   0.333  0.00  0.00    +0.004 A 
ATOM      7  C   UNL     1       0.008   0.019  -0.056  0.00  0.00    -0.034 A 
ATOM      8  C   UNL     1       1.141  -0.627  -0.445  0.00  0.00    -0.021 A 
ATOM      9  S   UNL     1       0.722  -2.344  -0.298  0.00  0.00    -0.077 S 
ATOM     10  C   UNL     1      -0.937  -2.117   0.266  0.00  0.00    +0.090 A 
ATOM     11  N   UNL     1      -1.932  -3.033   0.583  0.00  0.00    -0.312 N 
ATOM     12  C   UNL     1      -1.908  -4.154   1.341  0.00  0.00    +0.092 A 
ATOM     13  C   UNL     1      -3.170  -4.635   1.416  0.00  0.00    +0.020 A 
ATOM     14  C   UNL     1      -3.996  -3.781   0.653  0.00  0.00    +0.025 A 
ATOM     15  C   UNL     1      -3.214  -2.827   0.129  0.00  0.00    +0.044 A 
ATOM     16  C   UNL     1      -3.570  -1.703  -0.798  0.00  0.00    +0.122 C 
ATOM     17  C   UNL     1      -2.594  -1.701  -1.976  0.00  0.00    +0.035 C 
ATOM     18  C   UNL     1       2.423  -0.003  -0.889  0.00  0.00    -0.036 C 
ATOM     19  N   UNL     1       2.161   1.419  -1.185  0.00  0.00    +0.381 N 
ATOM     20  C   UNL     1       1.424   2.051  -0.083  0.00  0.00    -0.074 C 
ATOM     21  C   UNL     1      -0.020   1.545  -0.050  0.00  0.00    +0.018 C 
ATOM     22  C   UNL     1       3.412   2.138  -1.462  0.00  0.00    -0.096 C 
ATOM     23  H   UNL     1      -3.579   1.910   1.062  0.00  0.00    +0.156 HD
ATOM     24  H   UNL     1       1.537   1.477  -2.089  0.00  0.00    -0.082 HD
ENDROOT
BRANCH   1  30
ATOM     25  C   UNL     1      -5.510   3.790   0.894  0.00  0.00    +0.080 A 
ATOM     26  C   UNL     1      -6.391   4.819   0.552  0.00  0.00    +0.017 A 
ATOM     27  C   UNL     1      -6.966   4.845  -0.700  0.00  0.00    +0.001 A 
ATOM     28  C   UNL     1      -6.675   3.854  -1.624  0.00  0.00    +0.002 A 
ATOM     29  C   UNL     1      -5.802   2.834  -1.303  0.00  0.00    +0.024 A 
ATOM     30  C   UNL     1      -5.218   2.788  -0.044  0.00  0.00    +0.049 A 
BRANCH  25  31
ATOM     31  C   UNL     1      -4.892   3.757   2.231  0.00  0.00    +0.341 C 
ATOM     32  O   UNL     1      -4.058   2.913   2.494  0.00  0.00    -0.245 OA
BRANCH  31  33
ATOM     33  O   UNL     1      -5.251   4.663   3.162  0.00  0.00    -0.461 OA
BRANCH  33  35
ATOM     34  C   UNL     1      -5.133   5.673   5.375  0.00  0.00    +0.048 C 
ATOM     35  C   UNL     1      -4.601   4.570   4.457  0.00  0.00    +0.229 C 
ENDBRANCH  33  35
ENDBRANCH  31  33
ENDBRANCH  25  31
ENDBRANCH   1  30
TORSDOF 4
