REMARK  Name = ZINC16042101
REMARK  7 active torsions:
REMARK  status: ('A' for Active; 'I' for Inactive)
REMARK    1  A    between atoms: C_1  and  C_2
REMARK    2  A    between atoms: C_5  and  N_34
REMARK    3  A    between atoms: C_7  and  N_8
REMARK    4  A    between atoms: C_13  and  C_30
REMARK    5  A    between atoms: C_30  and  C_31
REMARK    6  A    between atoms: C_31  and  S_32
REMARK    7  A    between atoms: S_32  and  C_33
REMARK                            x       y       z     vdW  Elec       q    Type
REMARK                         _______ _______ _______ _____ _____    ______ ____
ROOT
ATOM      1  N   UNL     1       0.808  -0.440   2.902  0.00  0.00    -0.209 N 
ATOM      2  C   UNL     1      -0.219   0.349   3.239  0.00  0.00    +0.232 C 
ATOM      3  O   UNL     1      -1.147   0.638   2.515  0.00  0.00    -0.274 OA
ATOM      4  C   UNL     1      -0.042   0.823   4.663  0.00  0.00    +0.107 C 
ATOM      5  C   UNL     1      -1.137   0.195   5.550  0.00  0.00    +0.068 C 
ATOM      6  N   UNL     1      -0.580  -1.118   5.973  0.00  0.00    -0.295 NA
ATOM      7  C   UNL     1       0.849  -0.842   6.211  0.00  0.00    +0.136 C 
ATOM      8  C   UNL     1       1.287   0.148   5.104  0.00  0.00    +0.123 C 
ATOM      9  C   UNL     1       1.709  -0.624   3.873  0.00  0.00    +0.233 C 
ATOM     10  O   UNL     1       2.710  -1.301   3.781  0.00  0.00    -0.274 OA
ATOM     11  C   UNL     1       1.666  -2.102   6.185  0.00  0.00    +0.003 A 
ATOM     12  C   UNL     1       1.884  -3.072   5.231  0.00  0.00    +0.008 A 
ATOM     13  C   UNL     1       2.712  -4.145   5.511  0.00  0.00    +0.000 A 
ATOM     14  C   UNL     1       3.318  -4.242   6.750  0.00  0.00    +0.002 A 
ATOM     15  C   UNL     1       3.104  -3.273   7.708  0.00  0.00    +0.023 A 
ATOM     16  C   UNL     1       2.273  -2.188   7.434  0.00  0.00    +0.039 A 
ATOM     17  N   UNL     1       1.907  -1.097   8.225  0.00  0.00    -0.283 N 
ATOM     18  C   UNL     1       1.074  -0.259   7.580  0.00  0.00    +0.243 C 
ATOM     19  O   UNL     1       0.596   0.767   8.017  0.00  0.00    -0.273 OA
ATOM     20  H   UNL     1      -1.030  -1.447   6.814  0.00  0.00    +0.123 HD
ATOM     21  H   UNL     1       2.217  -0.959   9.134  0.00  0.00    +0.155 HD
ENDROOT
BRANCH   1  28
ATOM     22  C   UNL     1       2.203   0.989   0.874  0.00  0.00    +0.045 C 
ATOM     23  C   UNL     1       1.599  -0.368   0.619  0.00  0.00    -0.028 A 
ATOM     24  C   UNL     1       1.719  -0.956  -0.626  0.00  0.00    +0.007 A 
ATOM     25  C   UNL     1       1.165  -2.201  -0.860  0.00  0.00    +0.033 A 
ATOM     26  C   UNL     1       0.490  -2.861   0.149  0.00  0.00    +0.128 A 
ATOM     27  C   UNL     1       0.366  -2.279   1.396  0.00  0.00    +0.057 A 
ATOM     28  C   UNL     1       0.926  -1.031   1.636  0.00  0.00    +0.049 A 
BRANCH  26  29
ATOM     29  N   UNL     1      -0.102  -4.194  -0.106  0.00  0.00    +0.056 N 
ATOM     30  O   UNL     1       0.005  -4.704  -1.196  0.00  0.00    -0.126 OA
ATOM     31  O   UNL     1      -0.693  -4.772   0.776  0.00  0.00    -0.126 OA
ENDBRANCH  26  29
ENDBRANCH   1  28
BRANCH   5  32
ATOM     32  C   UNL     1      -1.406   1.079   6.770  0.00  0.00    +0.030 C 
BRANCH  32  33
ATOM     33  C   UNL     1      -2.552   2.043   6.457  0.00  0.00    +0.070 C 
BRANCH  33  34
ATOM     34  S   UNL     1      -2.871   3.091   7.903  0.00  0.00    -0.164 S 
ATOM     35  C   UNL     1      -4.237   4.163   7.375  0.00  0.00    +0.084 C 
ENDBRANCH  33  34
ENDBRANCH  32  33
ENDBRANCH   5  32
TORSDOF 5
