REMARK  Name = ZINC11911918
REMARK  5 active torsions:
REMARK  status: ('A' for Active; 'I' for Inactive)
REMARK    1  A    between atoms: C_6  and  C_10
REMARK    2  A    between atoms: C_10  and  N_50
REMARK    3  A    between atoms: C_11  and  C_12
REMARK    4  A    between atoms: C_11  and  N_50
REMARK    5  A    between atoms: C_21  and  C_22
REMARK                            x       y       z     vdW  Elec       q    Type
REMARK                         _______ _______ _______ _____ _____    ______ ____
ROOT
ATOM      1  C   UNL     1       3.203   8.752  -2.870  0.00  0.00    -0.038 A 
ATOM      2  C   UNL     1       4.390   8.668  -3.535  0.00  0.00    +0.014 A 
ATOM      3  C   UNL     1       4.471   9.217  -4.829  0.00  0.00    +0.004 A 
ATOM      4  C   UNL     1       5.663   9.162  -5.569  0.00  0.00    +0.059 A 
ATOM      5  C   UNL     1       5.711   9.704  -6.821  0.00  0.00    +0.167 A 
ATOM      6  C   UNL     1       4.576  10.319  -7.379  0.00  0.00    +0.168 A 
ATOM      7  C   UNL     1       3.405  10.386  -6.681  0.00  0.00    +0.078 A 
ATOM      8  C   UNL     1       3.325   9.836  -5.390  0.00  0.00    +0.075 A 
ATOM      9  N   UNL     1       2.187   9.890  -4.691  0.00  0.00    -0.246 NA
ATOM     10  C   UNL     1       2.102   9.371  -3.481  0.00  0.00    +0.073 A 
ATOM     11  O   UNL     1       4.901  10.770  -8.626  0.00  0.00    -0.453 OA
ATOM     12  C   UNL     1       6.103  10.067  -8.990  0.00  0.00    +0.466 C 
ATOM     13  O   UNL     1       6.730   9.777  -7.727  0.00  0.00    -0.453 OA
ENDROOT
BRANCH  10  14
ATOM     14  C   UNL     1       0.816   9.450  -2.748  0.00  0.00    +0.001 A 
ATOM     15  C   UNL     1      -0.367   9.050  -3.367  0.00  0.00    +0.013 A 
ATOM     16  C   UNL     1      -1.561   9.120  -2.679  0.00  0.00    +0.039 A 
ATOM     17  C   UNL     1      -1.587   9.598  -1.379  0.00  0.00    +0.123 A 
ATOM     18  C   UNL     1      -0.414  10.001  -0.761  0.00  0.00    +0.039 A 
ATOM     19  C   UNL     1       0.785   9.930  -1.439  0.00  0.00    +0.013 A 
ATOM     20  F   UNL     1      -2.759   9.670  -0.711  0.00  0.00    -0.205 F 
ENDBRANCH  10  14
BRANCH   1  21
ATOM     21  C   UNL     1       3.072   8.176  -1.483  0.00  0.00    -0.044 C 
BRANCH  21  22
ATOM     22  N   UNL     1       2.262   6.945  -1.546  0.00  0.00    +0.385 N 
ATOM     23  H   UNL     1       1.332   7.170  -1.919  0.00  0.00    -0.085 HD
ATOM     24  H   UNL     1       2.724   6.267  -2.163  0.00  0.00    -0.085 HD
BRANCH  22  25
ATOM     25  C   UNL     1       2.117   6.359  -0.200  0.00  0.00    -0.024 C 
BRANCH  25  31
ATOM     26  C   UNL     1      -1.799   1.831  -0.535  0.00  0.00    +0.005 A 
ATOM     27  C   UNL     1      -0.629   1.057  -0.612  0.00  0.00    +0.018 A 
ATOM     28  C   UNL     1       0.583   1.650  -0.579  0.00  0.00    +0.092 A 
ATOM     29  N   UNL     1       0.691   3.006  -0.465  0.00  0.00    -0.306 N 
ATOM     30  C   UNL     1       1.768   3.847  -0.409  0.00  0.00    +0.114 A 
ATOM     31  C   UNL     1       1.287   5.105  -0.295  0.00  0.00    +0.043 A 
ATOM     32  N   UNL     1      -0.047   5.051  -0.280  0.00  0.00    -0.235 NA
ATOM     33  C   UNL     1      -0.433   3.787  -0.382  0.00  0.00    +0.138 A 
ATOM     34  C   UNL     1      -1.706   3.182  -0.414  0.00  0.00    +0.047 A 
ENDBRANCH  25  31
ENDBRANCH  22  25
ENDBRANCH  21  22
ENDBRANCH   1  21
TORSDOF 5
