REMARK  Name = ZINC03296575
REMARK  6 active torsions:
REMARK  status: ('A' for Active; 'I' for Inactive)
REMARK    1  A    between atoms: C_1  and  C_2
REMARK    2  A    between atoms: N_14  and  C_15
REMARK    3  A    between atoms: C_15  and  C_16
REMARK    4  A    between atoms: C_16  and  C_17
REMARK    5  A    between atoms: C_20  and  O_24
REMARK    6  A    between atoms: C_21  and  O_23
REMARK                            x       y       z     vdW  Elec       q    Type
REMARK                         _______ _______ _______ _____ _____    ______ ____
ROOT
ATOM      1  C   UNL     1      -4.222   4.785  -6.161  0.00  0.00    +0.088 C 
ATOM      2  C   UNL     1      -4.917   5.170  -4.880  0.00  0.00    +0.129 A 
ATOM      3  N   UNL     1      -4.357   4.860  -3.724  0.00  0.00    -0.217 NA
ATOM      4  C   UNL     1      -4.916   5.170  -2.565  0.00  0.00    +0.131 A 
ATOM      5  C   UNL     1      -6.162   5.854  -2.562  0.00  0.00    +0.051 A 
ATOM      6  C   UNL     1      -6.959   6.300  -1.408  0.00  0.00    -0.025 A 
ATOM      7  C   UNL     1      -8.108   6.941  -1.674  0.00  0.00    -0.004 A 
ATOM      8  S   UNL     1      -8.206   6.998  -3.449  0.00  0.00    -0.073 S 
ATOM      9  C   UNL     1      -6.693   6.156  -3.829  0.00  0.00    +0.114 A 
ATOM     10  N   UNL     1      -6.069   5.810  -4.939  0.00  0.00    -0.225 NA
ATOM     11  C   UNL     1      -8.836   7.347  -0.421  0.00  0.00    +0.043 C 
ATOM     12  C   UNL     1      -7.771   7.255   0.693  0.00  0.00    +0.010 C 
ATOM     13  C   UNL     1      -6.801   6.207   0.113  0.00  0.00    +0.037 C 
ATOM     14  N   UNL     1      -4.300   4.828  -1.375  0.00  0.00    -0.328 N 
ATOM     15  H   UNL     1      -4.716   5.059  -0.529  0.00  0.00    +0.147 HD
ENDROOT
BRANCH  14  16
ATOM     16  C   UNL     1      -3.019   4.118  -1.390  0.00  0.00    +0.107 C 
BRANCH  16  17
ATOM     17  C   UNL     1      -2.559   3.864   0.047  0.00  0.00    +0.054 C 
BRANCH  17  18
ATOM     18  C   UNL     1      -1.241   3.133   0.031  0.00  0.00    -0.042 A 
ATOM     19  C   UNL     1      -1.219   1.751   0.017  0.00  0.00    +0.007 A 
ATOM     20  C   UNL     1      -0.013   1.076   0.008  0.00  0.00    +0.049 A 
ATOM     21  C   UNL     1       1.178   1.785   0.000  0.00  0.00    +0.158 A 
ATOM     22  C   UNL     1       1.155   3.176   0.008  0.00  0.00    +0.158 A 
ATOM     23  C   UNL     1      -0.057   3.846   0.023  0.00  0.00    +0.052 A 
BRANCH  22  24
ATOM     24  O   UNL     1       2.321   3.877   0.001  0.00  0.00    -0.503 OA
ATOM     25  H   UNL     1       2.650   4.084  -0.884  0.00  0.00    +0.292 HD
ENDBRANCH  22  24
BRANCH  21  26
ATOM     26  O   UNL     1       2.365   1.123  -0.015  0.00  0.00    -0.503 OA
ATOM     27  H   UNL     1       2.700   0.936  -0.903  0.00  0.00    +0.292 HD
ENDBRANCH  21  26
ENDBRANCH  17  18
ENDBRANCH  16  17
ENDBRANCH  14  16
TORSDOF 5
