REMARK  Name = ZINC36492752
REMARK  7 active torsions:
REMARK  status: ('A' for Active; 'I' for Inactive)
REMARK    1  A    between atoms: C_6  and  C_7
REMARK    2  A    between atoms: C_7  and  C_9
REMARK    3  A    between atoms: C_7  and  N_18
REMARK    4  A    between atoms: N_11  and  C_12
REMARK    5  A    between atoms: N_18  and  C_19
REMARK    6  A    between atoms: C_25  and  C_27
REMARK    7  A    between atoms: C_30  and  N_33
REMARK                            x       y       z     vdW  Elec       q    Type
REMARK                         _______ _______ _______ _____ _____    ______ ____
ROOT
ATOM      1  C   UNL     1      -0.954  -0.339   0.362  0.00  0.00    +0.193 C 
ENDROOT
BRANCH   1   7
ATOM      2  C   UNL     1       0.160   1.266   1.927  0.00  0.00    +0.007 A 
ATOM      3  C   UNL     1       1.276   1.946   2.377  0.00  0.00    +0.020 A 
ATOM      4  C   UNL     1       2.497   1.763   1.751  0.00  0.00    +0.041 A 
ATOM      5  C   UNL     1       2.599   0.900   0.675  0.00  0.00    +0.020 A 
ATOM      6  C   UNL     1       1.482   0.220   0.226  0.00  0.00    +0.007 A 
ATOM      7  C   UNL     1       0.263   0.403   0.852  0.00  0.00    -0.018 A 
ATOM      8 CL   UNL     1       3.898   2.618   2.315  0.00  0.00    -0.084 Cl
ENDBRANCH   1   7
BRANCH   1   9
ATOM      9  C   UNL     1      -0.662  -0.948  -0.985  0.00  0.00    +0.238 C 
ATOM     10  O   UNL     1      -0.358  -2.119  -1.068  0.00  0.00    -0.273 OA
ATOM     11  N   UNL     1      -0.740  -0.191  -2.098  0.00  0.00    -0.311 N 
ATOM     12  H   UNL     1      -0.983   0.745  -2.031  0.00  0.00    +0.149 HD
BRANCH  11  13
ATOM     13  C   UNL     1      -0.457  -0.784  -3.407  0.00  0.00    +0.073 C 
ATOM     14  C   UNL     1       1.050  -0.750  -3.667  0.00  0.00    +0.022 C 
ATOM     15  C   UNL     1       1.346  -1.369  -5.035  0.00  0.00    +0.002 C 
ATOM     16  C   UNL     1       0.624  -0.571  -6.122  0.00  0.00    +0.000 C 
ATOM     17  C   UNL     1      -0.884  -0.604  -5.862  0.00  0.00    +0.002 C 
ATOM     18  C   UNL     1      -1.179   0.014  -4.495  0.00  0.00    +0.022 C 
ENDBRANCH  11  13
ENDBRANCH   1   9
BRANCH   1  19
ATOM     19  N   UNL     1      -1.295  -1.399   1.314  0.00  0.00    -0.279 N 
ATOM     20  C   UNL     1      -2.530  -1.449   1.852  0.00  0.00    +0.248 C 
ATOM     21  O   UNL     1      -3.436  -0.807   1.357  0.00  0.00    -0.270 OA
BRANCH  19  22
ATOM     22  C   UNL     1      -0.295  -2.404   1.681  0.00  0.00    +0.077 C 
ATOM     23  C   UNL     1      -0.582  -3.707   0.932  0.00  0.00    +0.022 C 
ATOM     24  C   UNL     1       0.463  -4.756   1.315  0.00  0.00    +0.002 C 
ATOM     25  C   UNL     1       1.857  -4.249   0.941  0.00  0.00    +0.000 C 
ATOM     26  C   UNL     1       2.144  -2.946   1.690  0.00  0.00    +0.002 C 
ATOM     27  C   UNL     1       1.099  -1.897   1.306  0.00  0.00    +0.022 C 
ENDBRANCH  19  22
BRANCH  20  28
ATOM     28  C   UNL     1      -2.783  -2.285   3.045  0.00  0.00    +0.037 A 
ATOM     29  C   UNL     1      -2.142  -3.517   3.186  0.00  0.00    +0.015 A 
ATOM     30  C   UNL     1      -2.383  -4.292   4.302  0.00  0.00    +0.033 A 
ATOM     31  C   UNL     1      -3.257  -3.851   5.279  0.00  0.00    +0.126 A 
ATOM     32  C   UNL     1      -3.896  -2.631   5.145  0.00  0.00    +0.033 A 
ATOM     33  C   UNL     1      -3.659  -1.844   4.037  0.00  0.00    +0.015 A 
BRANCH  31  34
ATOM     34  N   UNL     1      -3.510  -4.688   6.473  0.00  0.00    +0.056 N 
ATOM     35  O   UNL     1      -2.954  -5.755   6.593  0.00  0.00    -0.126 OA
ATOM     36  O   UNL     1      -4.274  -4.305   7.329  0.00  0.00    -0.126 OA
ENDBRANCH  31  34
ENDBRANCH  20  28
ENDBRANCH   1  19
TORSDOF 7
