REMARK  Name = ZINC63786752
REMARK  6 active torsions:
REMARK  status: ('A' for Active; 'I' for Inactive)
REMARK    1  A    between atoms: C_7  and  C_10
REMARK    2  A    between atoms: C_10  and  C_11
REMARK    3  A    between atoms: C_11  and  C_13
REMARK    4  A    between atoms: C_11  and  N_28
REMARK    5  A    between atoms: N_18  and  C_21
REMARK    6  A    between atoms: C_29  and  C_31
REMARK                            x       y       z     vdW  Elec       q    Type
REMARK                         _______ _______ _______ _____ _____    ______ ____
ROOT
ATOM      1  C   UNL     1       0.457  -3.653  -1.462  0.00  0.00    +0.163 C 
ENDROOT
BRANCH   1   2
ATOM      2  C   UNL     1      -0.578  -4.750  -1.471  0.00  0.00    +0.236 C 
ATOM      3  O   UNL     1      -0.231  -5.909  -1.548  0.00  0.00    -0.274 OA
ATOM      4  N   UNL     1      -1.887  -4.441  -1.394  0.00  0.00    -0.297 N 
ATOM      5  C   UNL     1      -2.322  -3.040  -1.306  0.00  0.00    +0.126 C 
ATOM      6  C   UNL     1      -3.314  -2.762  -2.443  0.00  0.00    +0.124 C 
ATOM      7  N   UNL     1      -4.333  -3.821  -2.445  0.00  0.00    -0.325 N 
ATOM      8  C   UNL     1      -3.899  -5.222  -2.533  0.00  0.00    +0.124 C 
ATOM      9  C   UNL     1      -2.907  -5.500  -1.403  0.00  0.00    +0.126 C 
BRANCH   7  10
ATOM     10  C   UNL     1      -5.692  -3.501  -2.365  0.00  0.00    +0.065 A 
ATOM     11  C   UNL     1      -6.426  -3.289  -3.524  0.00  0.00    +0.026 A 
ATOM     12  C   UNL     1      -7.769  -2.974  -3.442  0.00  0.00    +0.002 A 
ATOM     13  C   UNL     1      -8.382  -2.868  -2.208  0.00  0.00    +0.003 A 
ATOM     14  C   UNL     1      -7.655  -3.077  -1.050  0.00  0.00    +0.040 A 
ATOM     15  C   UNL     1      -6.312  -3.399  -1.125  0.00  0.00    +0.144 A 
ATOM     16  F   UNL     1      -5.603  -3.609   0.006  0.00  0.00    -0.204 F 
ENDBRANCH   7  10
ENDBRANCH   1   2
BRANCH   1  17
ATOM     17  N   UNL     1       1.712  -4.162  -2.020  0.00  0.00    -0.299 N 
ATOM     18  C   UNL     1       2.336  -5.203  -1.437  0.00  0.00    +0.251 C 
ATOM     19  O   UNL     1       1.857  -5.722  -0.445  0.00  0.00    -0.270 OA
ATOM     20  H   UNL     1       2.094  -3.748  -2.811  0.00  0.00    +0.150 HD
BRANCH  18  21
ATOM     21  C   UNL     1       3.592  -5.712  -1.996  0.00  0.00    +0.074 A 
ATOM     22  C   UNL     1       4.382  -6.764  -1.557  0.00  0.00    +0.021 A 
ATOM     23  C   UNL     1       5.516  -7.007  -2.294  0.00  0.00    +0.008 A 
ATOM     24  C   UNL     1       5.782  -6.227  -3.370  0.00  0.00    +0.046 A 
ATOM     25  S   UNL     1       4.499  -5.144  -3.421  0.00  0.00    -0.092 S 
ENDBRANCH  18  21
ENDBRANCH   1  17
BRANCH   1  26
ATOM     26  C   UNL     1       0.691  -3.186  -0.024  0.00  0.00    +0.065 C 
BRANCH  26  33
ATOM     27  C   UNL     1      -0.016   1.348   0.009  0.00  0.00    +0.001 A 
ATOM     28  C   UNL     1       1.166   2.101   0.002  0.00  0.00    +0.002 A 
ATOM     29  C   UNL     1       2.391   1.535  -0.013  0.00  0.00    +0.026 A 
ATOM     30  C   UNL     1       2.529   0.120  -0.022  0.00  0.00    +0.043 A 
ATOM     31  N   UNL     1       3.587  -0.654  -0.037  0.00  0.00    -0.380 N 
ATOM     32  C   UNL     1       3.143  -2.053  -0.041  0.00  0.00    +0.144 C 
ATOM     33  C   UNL     1       1.631  -2.008  -0.025  0.00  0.00    -0.039 C 
ATOM     34  C   UNL     1       1.295  -0.698  -0.014  0.00  0.00    -0.001 A 
ATOM     35  C   UNL     1       0.002  -0.004   0.002  0.00  0.00    +0.010 A 
ATOM     36  H   UNL     1       4.509  -0.353  -0.045  0.00  0.00    +0.160 HD
ENDBRANCH  26  33
ENDBRANCH   1  26
TORSDOF 6
