REMARK  Name = ZINC38918107
REMARK  7 active torsions:
REMARK  status: ('A' for Active; 'I' for Inactive)
REMARK    1  A    between atoms: C_1  and  C_2
REMARK    2  A    between atoms: C_2  and  C_3
REMARK    3  A    between atoms: C_2  and  C_4
REMARK    4  A    between atoms: C_4  and  N_5
REMARK    5  A    between atoms: C_14  and  C_18
REMARK    6  A    between atoms: C_18  and  N_20
REMARK    7  A    between atoms: C_24  and  C_27
REMARK                            x       y       z     vdW  Elec       q    Type
REMARK                         _______ _______ _______ _____ _____    ______ ____
ROOT
ATOM      1  C   UNL     1      -0.233  -4.772   1.828  0.00  0.00    +0.258 C 
ATOM      2  O   UNL     1       0.546  -5.537   1.292  0.00  0.00    -0.272 OA
ENDROOT
BRANCH   1  11
ATOM      3  N   UNL     1      -1.416  -1.993  -0.116  0.00  0.00    -0.297 N 
ATOM      4  C   UNL     1      -1.566  -2.548  -1.447  0.00  0.00    +0.086 C 
ATOM      5  C   UNL     1      -2.411  -1.650  -2.340  0.00  0.00    +0.023 C 
ATOM      6  C   UNL     1      -3.862  -1.642  -1.855  0.00  0.00    +0.002 C 
ATOM      7  C   UNL     1      -4.408  -3.072  -1.891  0.00  0.00    +0.001 C 
ATOM      8  C   UNL     1      -3.581  -3.948  -0.951  0.00  0.00    +0.013 C 
ATOM      9  C   UNL     1      -2.142  -3.960  -1.409  0.00  0.00    +0.077 C 
ATOM     10  C   UNL     1      -1.359  -4.742  -0.367  0.00  0.00    +0.159 C 
ATOM     11  C   UNL     1      -1.391  -4.206   1.048  0.00  0.00    +0.229 C 
ATOM     12  C   UNL     1      -1.260  -2.706   1.000  0.00  0.00    +0.235 C 
ATOM     13  O   UNL     1      -1.038  -2.112   2.035  0.00  0.00    -0.274 OA
ATOM     14  O   UNL     1      -0.743  -5.740  -0.654  0.00  0.00    -0.296 OA
BRANCH   3  15
ATOM     15  C   UNL     1      -1.433  -0.534   0.013  0.00  0.00    +0.111 C 
BRANCH  15  17
ATOM     16  C   UNL     1      -0.083   1.550  -0.267  0.00  0.00    +0.009 C 
ATOM     17  C   UNL     1      -0.037   0.020  -0.279  0.00  0.00    +0.000 C 
ATOM     18  C   UNL     1       0.940  -0.469   0.792  0.00  0.00    +0.009 C 
ENDBRANCH  15  17
ENDBRANCH   3  15
ENDBRANCH   1  11
BRANCH   1  19
ATOM     19  N   UNL     1      -0.062  -4.436   3.100  0.00  0.00    -0.156 NA
ATOM     20  C   UNL     1       0.963  -4.937   3.792  0.00  0.00    +0.163 A 
ATOM     21  N   UNL     1       1.931  -5.793   3.367  0.00  0.00    -0.339 N 
ATOM     22  H   UNL     1       1.934  -6.120   2.453  0.00  0.00    +0.167 HD
ATOM     23  C   UNL     1       2.894  -6.183   4.244  0.00  0.00    +0.031 A 
ATOM     24  C   UNL     1       2.828  -5.691   5.486  0.00  0.00    +0.070 A 
ATOM     25  S   UNL     1       1.377  -4.658   5.397  0.00  0.00    -0.060 S 
BRANCH  23  26
ATOM     26  C   UNL     1       3.993  -7.129   3.833  0.00  0.00    +0.012 C 
ATOM     27  C   UNL     1       3.379  -8.454   3.376  0.00  0.00    +0.016 C 
ATOM     28  C   UNL     1       4.494  -9.415   2.959  0.00  0.00    -0.010 C 
ATOM     29  C   UNL     1       5.422  -9.667   4.149  0.00  0.00    +0.007 C 
ATOM     30  C   UNL     1       6.035  -8.342   4.606  0.00  0.00    -0.010 C 
ATOM     31  C   UNL     1       4.921  -7.381   5.023  0.00  0.00    +0.016 C 
ATOM     32  C   UNL     1       6.836  -7.727   3.456  0.00  0.00    +0.007 C 
ATOM     33  C   UNL     1       5.908  -7.475   2.266  0.00  0.00    -0.010 C 
ATOM     34  C   UNL     1       5.294  -8.800   1.809  0.00  0.00    +0.007 C 
ATOM     35  C   UNL     1       4.793  -6.514   2.683  0.00  0.00    +0.016 C 
ENDBRANCH  23  26
ENDBRANCH   1  19
TORSDOF 5
