REMARK  Name = ZINC03639973
REMARK  10 active torsions:
REMARK  status: ('A' for Active; 'I' for Inactive)
REMARK    1  A    between atoms: C_1  and  C_2
REMARK    2  A    between atoms: C_3  and  C_32
REMARK    3  A    between atoms: C_4  and  C_23
REMARK    4  A    between atoms: C_10  and  C_15
REMARK    5  A    between atoms: C_20  and  O_21
REMARK    6  A    between atoms: O_21  and  C_22
REMARK    7  A    between atoms: C_26  and  N_29
REMARK    8  A    between atoms: C_32  and  O_34
REMARK    9  A    between atoms: O_34  and  C_35
REMARK   10  A    between atoms: C_35  and  C_36
REMARK                            x       y       z     vdW  Elec       q    Type
REMARK                         _______ _______ _______ _____ _____    ______ ____
ROOT
ATOM      1  C   UNL     1       1.068   8.217  -0.519  0.00  0.00    +0.061 C 
ATOM      2  C   UNL     1       0.324   7.756   0.708  0.00  0.00    +0.016 C 
ATOM      3  C   UNL     1       0.102   6.444   0.901  0.00  0.00    +0.065 C 
ATOM      4  C   UNL     1      -0.645   5.950   2.104  0.00  0.00    +0.092 C 
ATOM      5  C   UNL     1      -0.681   7.003   3.186  0.00  0.00    +0.024 C 
ATOM      6  C   UNL     1      -0.433   8.298   2.895  0.00  0.00    +0.016 C 
ATOM      7  N   UNL     1      -0.120   8.675   1.617  0.00  0.00    -0.321 N 
ATOM      8  C   UNL     1      -0.496   9.360   3.965  0.00  0.00    +0.060 C 
ATOM      9  C   UNL     1      -0.093   8.756   5.312  0.00  0.00    +0.035 C 
ATOM     10  C   UNL     1      -1.040   7.593   5.626  0.00  0.00    +0.088 C 
ATOM     11  C   UNL     1      -0.988   6.600   4.498  0.00  0.00    +0.162 C 
ATOM     12  O   UNL     1      -1.215   5.428   4.724  0.00  0.00    -0.292 OA
ATOM     13  H   UNL     1      -0.229   9.730   1.325  0.00  0.00    +0.152 HD
ENDROOT
BRANCH   9  14
ATOM     14  C   UNL     1      -0.204   9.804   6.390  0.00  0.00    -0.002 A 
ATOM     15  C   UNL     1      -1.420  10.410   6.643  0.00  0.00    +0.007 A 
ATOM     16  C   UNL     1      -1.522  11.368   7.634  0.00  0.00    +0.001 A 
ATOM     17  C   UNL     1      -0.408  11.730   8.368  0.00  0.00    +0.004 A 
ATOM     18  C   UNL     1       0.811  11.131   8.115  0.00  0.00    +0.046 A 
ATOM     19  C   UNL     1       0.916  10.165   7.124  0.00  0.00    +0.124 A 
BRANCH  19  20
ATOM     20  O   UNL     1       2.114   9.574   6.874  0.00  0.00    -0.495 OA
ATOM     21  C   UNL     1       3.224   9.995   7.669  0.00  0.00    +0.277 C 
ENDBRANCH  19  20
ENDBRANCH   9  14
BRANCH   4  22
ATOM     22  C   UNL     1      -2.055   5.599   1.702  0.00  0.00    -0.035 A 
ATOM     23  C   UNL     1      -2.883   6.569   1.169  0.00  0.00    +0.007 A 
ATOM     24  C   UNL     1      -4.174   6.246   0.796  0.00  0.00    +0.033 A 
ATOM     25  C   UNL     1      -4.640   4.955   0.964  0.00  0.00    +0.126 A 
ATOM     26  C   UNL     1      -3.813   3.986   1.501  0.00  0.00    +0.033 A 
ATOM     27  C   UNL     1      -2.520   4.309   1.871  0.00  0.00    +0.007 A 
BRANCH  25  28
ATOM     28  N   UNL     1      -6.024   4.610   0.567  0.00  0.00    +0.056 N 
ATOM     29  O   UNL     1      -6.434   3.473   0.715  0.00  0.00    -0.126 OA
ATOM     30  O   UNL     1      -6.752   5.463   0.093  0.00  0.00    -0.126 OA
ENDBRANCH  25  28
ENDBRANCH   4  22
BRANCH   3  31
ATOM     31  C   UNL     1       0.578   5.513  -0.051  0.00  0.00    +0.338 C 
ATOM     32  O   UNL     1       1.549   4.825   0.202  0.00  0.00    -0.245 OA
BRANCH  31  33
ATOM     33  O   UNL     1      -0.046   5.386  -1.241  0.00  0.00    -0.459 OA
BRANCH  33  34
ATOM     34  C   UNL     1       0.488   4.426  -2.155  0.00  0.00    +0.264 C 
BRANCH  34  35
ATOM     35  C   UNL     1      -0.345   4.426  -3.439  0.00  0.00    +0.156 C 
ATOM     36  C   UNL     1       0.204   3.382  -4.445  0.00  0.00    +0.037 C 
ATOM     37  C   UNL     1      -0.287   3.949  -5.800  0.00  0.00    +0.031 C 
ATOM     38  C   UNL     1      -0.558   5.438  -5.511  0.00  0.00    +0.160 C 
ATOM     39  O   UNL     1      -0.199   5.679  -4.140  0.00  0.00    -0.373 OA
ENDBRANCH  34  35
ENDBRANCH  33  34
ENDBRANCH  31  33
ENDBRANCH   3  31
TORSDOF 8
