REMARK  Name = ZINC66263199
REMARK  5 active torsions:
REMARK  status: ('A' for Active; 'I' for Inactive)
REMARK    1  A    between atoms: C_1  and  C_2
REMARK    2  A    between atoms: C_2  and  C_20
REMARK    3  A    between atoms: N_5  and  C_9
REMARK    4  A    between atoms: C_9  and  C_10
REMARK    5  A    between atoms: N_12  and  C_13
REMARK                            x       y       z     vdW  Elec       q    Type
REMARK                         _______ _______ _______ _____ _____    ______ ____
ROOT
ATOM      1  C   UNL     1       0.041   1.506   0.079  0.00  0.00    +0.047 C 
ATOM      2  C   UNL     1       0.048  -0.023   0.057  0.00  0.00    +0.141 C 
ATOM      3  C   UNL     1      -1.364  -0.565   0.164  0.00  0.00    +0.252 C 
ATOM      4  O   UNL     1      -2.278  -0.384  -0.611  0.00  0.00    -0.272 OA
ATOM      5  N   UNL     1      -1.391  -1.289   1.300  0.00  0.00    -0.215 N 
ATOM      6  C   UNL     1      -0.205  -1.282   1.919  0.00  0.00    +0.310 C 
ATOM      7  O   UNL     1       0.017  -1.865   2.962  0.00  0.00    -0.252 OA
ATOM      8  N   UNL     1       0.715  -0.556   1.258  0.00  0.00    -0.281 N 
ATOM      9  H   UNL     1       1.638  -0.412   1.520  0.00  0.00    +0.152 HD
ENDROOT
BRANCH   2  10
ATOM     10  C   UNL     1       0.720  -0.531  -1.192  0.00  0.00    +0.023 A 
ATOM     11  C   UNL     1       2.029  -0.815  -1.402  0.00  0.00    +0.015 A 
ATOM     12  C   UNL     1       2.425  -1.274  -2.644  0.00  0.00    +0.028 A 
ATOM     13  C   UNL     1       1.491  -1.427  -3.617  0.00  0.00    +0.078 A 
ATOM     14  S   UNL     1      -0.001  -0.922  -2.778  0.00  0.00    -0.079 S 
ATOM     15 CL   UNL     1       1.694  -1.978  -5.250  0.00  0.00    -0.076 Cl
ENDBRANCH   2  10
BRANCH   5  16
ATOM     16  C   UNL     1      -2.574  -1.998   1.796  0.00  0.00    +0.214 C 
BRANCH  16  17
ATOM     17  C   UNL     1      -2.592  -3.397   1.237  0.00  0.00    +0.235 C 
ATOM     18  O   UNL     1      -1.704  -3.767   0.498  0.00  0.00    -0.274 OA
ATOM     19  N   UNL     1      -3.594  -4.239   1.560  0.00  0.00    -0.282 N 
ATOM     20  H   UNL     1      -4.270  -3.965   2.199  0.00  0.00    +0.155 HD
BRANCH  19  21
ATOM     21  C   UNL     1      -3.660  -5.507   0.972  0.00  0.00    +0.071 A 
ATOM     22  C   UNL     1      -2.495  -6.204   0.662  0.00  0.00    +0.028 A 
ATOM     23  C   UNL     1      -2.611  -7.456   0.081  0.00  0.00    +0.022 A 
ATOM     24  C   UNL     1      -3.869  -7.970  -0.171  0.00  0.00    +0.112 A 
ATOM     25  N   UNL     1      -4.954  -7.286   0.134  0.00  0.00    -0.242 NA
ATOM     26  C   UNL     1      -4.889  -6.093   0.694  0.00  0.00    +0.150 A 
ATOM     27 CL   UNL     1      -6.353  -5.244   1.079  0.00  0.00    -0.060 Cl
ENDBRANCH  19  21
ENDBRANCH  16  17
ENDBRANCH   5  16
TORSDOF 4
