REMARK  Name = ZINC02063160
REMARK  6 active torsions:
REMARK  status: ('A' for Active; 'I' for Inactive)
REMARK    1  A    between atoms: C_1  and  C_2
REMARK    2  A    between atoms: C_3  and  C_29
REMARK    3  A    between atoms: C_4  and  C_21
REMARK    4  A    between atoms: C_10  and  C_15
REMARK    5  A    between atoms: C_29  and  O_31
REMARK    6  A    between atoms: O_31  and  C_32
REMARK                            x       y       z     vdW  Elec       q    Type
REMARK                         _______ _______ _______ _____ _____    ______ ____
ROOT
ATOM      1  C   UNL     1      -3.595   2.192   0.770  0.00  0.00    +0.061 C 
ATOM      2  C   UNL     1      -2.382   1.386   0.381  0.00  0.00    +0.016 C 
ATOM      3  C   UNL     1      -2.353   0.064   0.624  0.00  0.00    +0.065 C 
ATOM      4  C   UNL     1      -1.166  -0.771   0.244  0.00  0.00    +0.094 C 
ATOM      5  C   UNL     1       0.047   0.092   0.000  0.00  0.00    +0.024 C 
ATOM      6  C   UNL     1      -0.084   1.417  -0.225  0.00  0.00    +0.016 C 
ATOM      7  N   UNL     1      -1.320   2.005  -0.214  0.00  0.00    -0.321 N 
ATOM      8  C   UNL     1       1.123   2.283  -0.487  0.00  0.00    +0.059 C 
ATOM      9  C   UNL     1       2.334   1.717   0.258  0.00  0.00    +0.032 C 
ATOM     10  C   UNL     1       2.567   0.278  -0.214  0.00  0.00    +0.088 C 
ATOM     11  C   UNL     1       1.312  -0.521   0.011  0.00  0.00    +0.162 C 
ATOM     12  O   UNL     1       1.394  -1.717   0.205  0.00  0.00    -0.292 OA
ATOM     13  H   UNL     1      -1.453   2.987  -0.692  0.00  0.00    +0.152 HD
ENDROOT
BRANCH   4  14
ATOM     14  C   UNL     1      -1.485  -1.542  -1.011  0.00  0.00    -0.015 A 
ATOM     15  C   UNL     1      -1.785  -0.867  -2.180  0.00  0.00    +0.006 A 
ATOM     16  C   UNL     1      -2.072  -1.573  -3.333  0.00  0.00    +0.002 A 
ATOM     17  C   UNL     1      -2.070  -2.955  -3.316  0.00  0.00    +0.021 A 
ATOM     18  C   UNL     1      -1.776  -3.632  -2.146  0.00  0.00    +0.060 A 
ATOM     19  C   UNL     1      -1.482  -2.925  -0.993  0.00  0.00    +0.063 A 
ATOM     20 CL   UNL     1      -1.112  -3.773   0.476  0.00  0.00    -0.082 Cl
ATOM     21 CL   UNL     1      -1.773  -5.368  -2.125  0.00  0.00    -0.082 Cl
ENDBRANCH   4  14
BRANCH   9  22
ATOM     22  C   UNL     1       3.551   2.553  -0.044  0.00  0.00    -0.044 A 
ATOM     23  C   UNL     1       3.986   2.694  -1.348  0.00  0.00    +0.004 A 
ATOM     24  C   UNL     1       5.100   3.464  -1.626  0.00  0.00    +0.000 A 
ATOM     25  C   UNL     1       5.784   4.085  -0.598  0.00  0.00    +0.000 A 
ATOM     26  C   UNL     1       5.352   3.940   0.707  0.00  0.00    +0.000 A 
ATOM     27  C   UNL     1       4.235   3.174   0.984  0.00  0.00    +0.004 A 
ENDBRANCH   9  22
BRANCH   3  28
ATOM     28  C   UNL     1      -3.462  -0.551   1.251  0.00  0.00    +0.338 C 
ATOM     29  O   UNL     1      -4.376   0.131   1.675  0.00  0.00    -0.245 OA
BRANCH  28  30
ATOM     30  O   UNL     1      -3.505  -1.893   1.379  0.00  0.00    -0.458 OA
BRANCH  30  31
ATOM     31  C   UNL     1      -4.655  -2.447   2.022  0.00  0.00    +0.177 C 
ATOM     32  C   UNL     1      -4.400  -2.545   3.527  0.00  0.00    +0.044 C 
ATOM     33  C   UNL     1      -5.631  -3.137   4.216  0.00  0.00    +0.004 C 
ATOM     34  C   UNL     1      -5.907  -4.533   3.654  0.00  0.00    +0.000 C 
ATOM     35  C   UNL     1      -6.162  -4.435   2.149  0.00  0.00    +0.004 C 
ATOM     36  C   UNL     1      -4.931  -3.843   1.460  0.00  0.00    +0.044 C 
ENDBRANCH  30  31
ENDBRANCH  28  30
ENDBRANCH   3  28
TORSDOF 5
