REMARK  Name = ZINC52833587
REMARK  2 active torsions:
REMARK  status: ('A' for Active; 'I' for Inactive)
REMARK    1  A    between atoms: C_6  and  N_7
REMARK    2  A    between atoms: N_9  and  O_10
REMARK                            x       y       z     vdW  Elec       q    Type
REMARK                         _______ _______ _______ _____ _____    ______ ____
ROOT
ATOM      1  N   UNL     1      -1.195  -0.730  -0.009  0.00  0.00    -0.324 N 
ATOM      2  C   UNL     1      -2.352  -0.142  -0.481  0.00  0.00    +0.236 C 
ATOM      3  N   UNL     1      -2.307   1.040  -1.022  0.00  0.00    -0.050 NA
ATOM      4  N   UNL     1      -3.557  -0.808  -0.379  0.00  0.00    -0.367 N 
ATOM      5  H   UNL     1      -1.215  -1.641   0.323  0.00  0.00    +0.169 HD
ATOM      6  H   UNL     1      -3.606  -1.650   0.101  0.00  0.00    +0.159 HD
ATOM      7  H   UNL     1      -4.354  -0.435  -0.787  0.00  0.00    +0.159 HD
ENDROOT
BRANCH   1  13
ATOM      8  C   UNL     1      -0.007   1.363   0.187  0.00  0.00    +0.027 A 
ATOM      9  C   UNL     1       1.179   2.070   0.187  0.00  0.00    +0.016 A 
ATOM     10  C   UNL     1       2.379   1.409  -0.008  0.00  0.00    +0.014 A 
ATOM     11  C   UNL     1       2.394   0.040  -0.204  0.00  0.00    +0.016 A 
ATOM     12  C   UNL     1       1.211  -0.672  -0.204  0.00  0.00    +0.027 A 
ATOM     13  C   UNL     1       0.005  -0.012  -0.009  0.00  0.00    +0.042 A 
ATOM     14  I   UNL     1       4.177   2.485  -0.009  0.00  0.00    -0.044 I 
ENDBRANCH   1  13
BRANCH   3  15
ATOM     15  O   UNL     1      -3.493   1.643  -1.506  0.00  0.00    -0.406 OA
ATOM     16  H   UNL     1      -3.360   2.521  -1.890  0.00  0.00    +0.328 HD
ENDBRANCH   3  15
TORSDOF 2
