REMARK  Name = ZINC38688853
REMARK  6 active torsions:
REMARK  status: ('A' for Active; 'I' for Inactive)
REMARK    1  A    between atoms: C_1  and  C_2
REMARK    2  A    between atoms: C_2  and  N_3
REMARK    3  A    between atoms: C_4  and  C_16
REMARK    4  A    between atoms: C_17  and  C_18
REMARK    5  A    between atoms: C_21  and  O_27
REMARK    6  A    between atoms: O_27  and  C_28
REMARK                            x       y       z     vdW  Elec       q    Type
REMARK                         _______ _______ _______ _____ _____    ______ ____
ROOT
ATOM      1  N   UNL     1      -1.372  -0.511   0.012  0.00  0.00    -0.276 N 
ATOM      2  C   UNL     1      -2.036  -0.761   1.292  0.00  0.00    +0.185 C 
ATOM      3  N   UNL     1      -2.992  -1.867   1.162  0.00  0.00    -0.322 N 
ATOM      4  C   UNL     1      -3.826  -1.897   0.050  0.00  0.00    +0.041 A 
ATOM      5  C   UNL     1      -5.087  -2.466   0.095  0.00  0.00    +0.025 A 
ATOM      6  C   UNL     1      -5.877  -2.466  -1.038  0.00  0.00    +0.016 A 
ATOM      7  C   UNL     1      -5.418  -1.902  -2.219  0.00  0.00    +0.014 A 
ATOM      8  C   UNL     1      -4.162  -1.332  -2.280  0.00  0.00    +0.029 A 
ATOM      9  C   UNL     1      -3.355  -1.327  -1.146  0.00  0.00    +0.059 A 
ATOM     10  C   UNL     1      -2.005  -0.734  -1.158  0.00  0.00    +0.250 C 
ATOM     11  O   UNL     1      -1.466  -0.453  -2.212  0.00  0.00    -0.270 OA
ATOM     12  I   UNL     1      -6.638  -1.915  -3.921  0.00  0.00    -0.044 I 
ATOM     13  H   UNL     1      -3.040  -2.562   1.837  0.00  0.00    +0.148 HD
ENDROOT
BRANCH   1  15
ATOM     14  C   UNL     1      -0.019   1.526   0.010  0.00  0.00    +0.024 C 
ATOM     15  C   UNL     1       0.002  -0.004   0.002  0.00  0.00    +0.107 C 
ENDBRANCH   1  15
BRANCH   2  16
ATOM     16  C   UNL     1      -2.771   0.482   1.723  0.00  0.00    +0.015 C 
ATOM     17  C   UNL     1      -2.458   1.078   2.883  0.00  0.00    +0.005 C 
BRANCH  17  18
ATOM     18  C   UNL     1      -3.146   2.241   3.287  0.00  0.00    -0.019 C 
ATOM     19  C   UNL     1      -2.941   2.977   4.446  0.00  0.00    +0.006 A 
ATOM     20  C   UNL     1      -2.044   2.823   5.528  0.00  0.00    +0.056 A 
ATOM     21  C   UNL     1      -2.067   3.716   6.553  0.00  0.00    +0.121 A 
ATOM     22  C   UNL     1      -2.963   4.797   6.566  0.00  0.00    +0.047 A 
ATOM     23  C   UNL     1      -3.847   5.003   5.563  0.00  0.00    +0.029 A 
ATOM     24  C   UNL     1      -3.884   4.111   4.457  0.00  0.00    +0.043 A 
ATOM     25  N   UNL     1      -4.635   4.095   3.378  0.00  0.00    -0.380 N 
ATOM     26  C   UNL     1      -4.257   2.949   2.544  0.00  0.00    +0.149 C 
ATOM     27  H   UNL     1      -5.328   4.740   3.165  0.00  0.00    +0.160 HD
BRANCH  21  28
ATOM     28  O   UNL     1      -1.201   3.559   7.589  0.00  0.00    -0.495 OA
ATOM     29  C   UNL     1      -1.265   4.525   8.640  0.00  0.00    +0.277 C 
ENDBRANCH  21  28
ENDBRANCH  17  18
ENDBRANCH   2  16
TORSDOF 4
