REMARK  Name = ZINC35486600
REMARK  16 active torsions:
REMARK  status: ('A' for Active; 'I' for Inactive)
REMARK    1  A    between atoms: C_1  and  C_2
REMARK    2  A    between atoms: C_2  and  C_3
REMARK    3  A    between atoms: C_3  and  C_4
REMARK    4  A    between atoms: C_4  and  C_5
REMARK    5  A    between atoms: C_5  and  C_6
REMARK    6  A    between atoms: C_6  and  O_7
REMARK    7  A    between atoms: O_7  and  C_8
REMARK    8  A    between atoms: C_11  and  C_16
REMARK    9  A    between atoms: C_13  and  O_14
REMARK   10  A    between atoms: O_14  and  C_15
REMARK   11  A    between atoms: C_23  and  C_37
REMARK   12  A    between atoms: N_31  and  C_32
REMARK   13  A    between atoms: C_32  and  C_33
REMARK   14  A    between atoms: C_33  and  N_34
REMARK   15  A    between atoms: N_34  and  C_35
REMARK   16  A    between atoms: N_34  and  C_36
REMARK                            x       y       z     vdW  Elec       q    Type
REMARK                         _______ _______ _______ _____ _____    ______ ____
ROOT
ATOM      1  C   UNL     1       2.581 -10.091  -4.378  0.00  0.00    +0.145 C 
ATOM      2  C   UNL     1       1.284 -10.655  -4.857  0.00  0.00    +0.072 A 
ATOM      3  C   UNL     1       0.505 -10.392  -6.072  0.00  0.00    +0.199 A 
ATOM      4  O   UNL     1       0.931  -9.739  -7.009  0.00  0.00    -0.287 OA
ATOM      5  C   UNL     1      -0.851 -10.996  -6.052  0.00  0.00    +0.065 A 
ATOM      6  C   UNL     1      -1.782 -10.675  -7.039  0.00  0.00    +0.018 A 
ATOM      7  C   UNL     1      -3.028 -11.236  -7.004  0.00  0.00    -0.050 A 
ATOM      8  C   UNL     1      -3.367 -12.123  -5.991  0.00  0.00    +0.007 A 
ATOM      9  C   UNL     1      -2.459 -12.452  -5.009  0.00  0.00    +0.047 A 
ATOM     10  C   UNL     1      -1.180 -11.895  -5.025  0.00  0.00    +0.139 A 
ATOM     11  O   UNL     1      -0.301 -12.241  -4.057  0.00  0.00    -0.450 OA
ATOM     12  C   UNL     1       0.847 -11.549  -3.921  0.00  0.00    +0.199 A 
ATOM     13  C   UNL     1       1.829 -11.585  -2.823  0.00  0.00    +0.283 C 
ATOM     14  O   UNL     1       1.736 -12.277  -1.829  0.00  0.00    -0.267 OA
ATOM     15  N   UNL     1       2.847 -10.737  -3.082  0.00  0.00    -0.285 N 
ATOM     16  C   UNL     1      -4.038 -10.892  -8.068  0.00  0.00    +0.044 C 
ENDROOT
BRANCH   1  20
ATOM     17  C   UNL     1       2.251  -5.857  -3.871  0.00  0.00    +0.162 A 
ATOM     18  C   UNL     1       1.717  -6.715  -2.922  0.00  0.00    +0.050 A 
ATOM     19  C   UNL     1       1.825  -8.084  -3.089  0.00  0.00    +0.009 A 
ATOM     20  C   UNL     1       2.465  -8.599  -4.201  0.00  0.00    -0.019 A 
ATOM     21  C   UNL     1       3.000  -7.748  -5.151  0.00  0.00    +0.055 A 
ATOM     22  C   UNL     1       2.890  -6.376  -4.993  0.00  0.00    +0.162 A 
BRANCH  22  23
ATOM     23  O   UNL     1       3.410  -5.538  -5.929  0.00  0.00    -0.491 OA
ATOM     24  C   UNL     1       4.052  -6.141  -7.054  0.00  0.00    +0.277 C 
ENDBRANCH  22  23
BRANCH  17  25
ATOM     25  O   UNL     1       2.145  -4.511  -3.708  0.00  0.00    -0.488 OA
BRANCH  25  26
ATOM     26  C   UNL     1       1.476  -4.051  -2.532  0.00  0.00    +0.229 C 
BRANCH  26  27
ATOM     27  C   UNL     1       1.455  -2.521  -2.524  0.00  0.00    +0.041 C 
BRANCH  27  28
ATOM     28  C   UNL     1       0.739  -2.027  -1.265  0.00  0.00    +0.003 C 
BRANCH  28  29
ATOM     29  C   UNL     1       0.718  -0.497  -1.257  0.00  0.00    -0.000 C 
BRANCH  29  31
ATOM     30  C   UNL     1      -0.019   1.526   0.010  0.00  0.00    +0.004 C 
ATOM     31  C   UNL     1       0.002  -0.004   0.002  0.00  0.00    -0.003 C 
ENDBRANCH  29  31
ENDBRANCH  28  29
ENDBRANCH  27  28
ENDBRANCH  26  27
ENDBRANCH  25  26
ENDBRANCH  17  25
ENDBRANCH   1  20
BRANCH  15  32
ATOM     32  C   UNL     1       4.012 -10.500  -2.226  0.00  0.00    +0.090 C 
BRANCH  32  33
ATOM     33  C   UNL     1       3.707  -9.359  -1.254  0.00  0.00    -0.060 C 
BRANCH  33  34
ATOM     34  N   UNL     1       4.875  -9.121  -0.395  0.00  0.00    +0.377 N 
ATOM     35  C   UNL     1       4.627  -7.950   0.456  0.00  0.00    -0.097 C 
ATOM     36  C   UNL     1       5.108 -10.300   0.451  0.00  0.00    -0.097 C 
ATOM     37  H   UNL     1       5.687  -8.954  -0.970  0.00  0.00    -0.083 HD
ENDBRANCH  33  34
ENDBRANCH  32  33
ENDBRANCH  15  32
TORSDOF 11
