REMARK  Name = ZINC21124595
REMARK  12 active torsions:
REMARK  status: ('A' for Active; 'I' for Inactive)
REMARK    1  A    between atoms: C_1  and  C_2
REMARK    2  A    between atoms: C_5  and  N_9
REMARK    3  A    between atoms: C_6  and  C_8
REMARK    4  A    between atoms: C_18  and  S_19
REMARK    5  A    between atoms: S_19  and  C_20
REMARK    6  A    between atoms: C_20  and  C_21
REMARK    7  A    between atoms: N_23  and  C_24
REMARK    8  A    between atoms: C_24  and  C_25
REMARK    9  A    between atoms: C_24  and  C_26
REMARK   10  A    between atoms: C_24  and  C_28
REMARK   11  A    between atoms: C_28  and  C_29
REMARK   12  A    between atoms: C_28  and  C_30
REMARK                            x       y       z     vdW  Elec       q    Type
REMARK                         _______ _______ _______ _____ _____    ______ ____
ROOT
ATOM      1  N   UNL     1       0.804   1.713  -4.643  0.00  0.00    -0.255 N 
ATOM      2  C   UNL     1       0.726   1.479  -3.320  0.00  0.00    +0.268 A 
ATOM      3  O   UNL     1       1.677   1.013  -2.716  0.00  0.00    -0.267 OA
ATOM      4  C   UNL     1      -0.490   1.786  -2.633  0.00  0.00    +0.076 A 
ATOM      5  C   UNL     1      -0.791   1.612  -1.202  0.00  0.00    -0.023 A 
ATOM      6  C   UNL     1      -2.015   1.978  -0.789  0.00  0.00    -0.004 A 
ATOM      7  S   UNL     1      -2.837   2.567  -2.252  0.00  0.00    -0.073 S 
ATOM      8  C   UNL     1      -1.523   2.318  -3.417  0.00  0.00    +0.117 A 
ATOM      9  N   UNL     1      -1.384   2.527  -4.722  0.00  0.00    -0.215 NA
ATOM     10  C   UNL     1      -0.254   2.235  -5.333  0.00  0.00    +0.178 A 
ATOM     11  C   UNL     1      -2.206   1.760   0.688  0.00  0.00    +0.043 C 
ATOM     12  C   UNL     1      -0.772   1.602   1.246  0.00  0.00    +0.010 C 
ATOM     13  C   UNL     1      -0.013   1.086   0.008  0.00  0.00    +0.037 C 
ENDROOT
BRANCH   1  18
ATOM     14  C   UNL     1       5.613   0.510  -7.405  0.00  0.00    +0.044 C 
ATOM     15  C   UNL     1       4.336   0.830  -6.672  0.00  0.00    -0.050 A 
ATOM     16  C   UNL     1       3.348  -0.131  -6.556  0.00  0.00    +0.005 A 
ATOM     17  C   UNL     1       2.176   0.159  -5.884  0.00  0.00    +0.027 A 
ATOM     18  C   UNL     1       1.991   1.416  -5.325  0.00  0.00    +0.055 A 
ATOM     19  C   UNL     1       2.982   2.381  -5.448  0.00  0.00    -0.026 A 
ATOM     20  C   UNL     1       4.154   2.083  -6.116  0.00  0.00    +0.008 A 
ATOM     21  C   UNL     1       2.782   3.749  -4.849  0.00  0.00    +0.046 C 
ENDBRANCH   1  18
BRANCH  10  22
ATOM     22  S   UNL     1      -0.104   2.523  -7.066  0.00  0.00    -0.078 S 
BRANCH  22  23
ATOM     23  C   UNL     1      -1.749   3.191  -7.417  0.00  0.00    +0.173 C 
BRANCH  23  24
ATOM     24  C   UNL     1      -1.855   3.520  -8.883  0.00  0.00    +0.224 C 
ATOM     25  O   UNL     1      -0.912   3.321  -9.619  0.00  0.00    -0.275 OA
ATOM     26  N   UNL     1      -2.999   4.034  -9.378  0.00  0.00    -0.297 N 
ATOM     27  H   UNL     1      -3.855   4.214  -8.711  0.00  0.00    +0.150 HD
BRANCH  26  28
ATOM     28  C   UNL     1      -3.102   4.353 -10.804  0.00  0.00    +0.121 C 
ATOM     29  C   UNL     1      -2.881   3.083 -11.628  0.00  0.00    +0.048 C 
BRANCH  28  30
ATOM     30  C   UNL     1      -4.492   4.918 -11.101  0.00  0.00    +0.020 C 
ATOM     31  C   UNL     1      -4.559   5.367 -12.562  0.00  0.00    +0.010 C 
ATOM     32  C   UNL     1      -5.546   3.838 -10.851  0.00  0.00    +0.010 C 
ENDBRANCH  28  30
BRANCH  28  33
ATOM     33  C   UNL     1      -2.080   5.352 -11.158  0.00  0.00    +0.088 C 
ATOM     34  N   UNL     1      -1.292   6.123 -11.432  0.00  0.00    -0.194 NA
ENDBRANCH  28  33
ENDBRANCH  26  28
ENDBRANCH  23  24
ENDBRANCH  22  23
ENDBRANCH  10  22
TORSDOF 7
