REMARK  Name = ZINC39949354
REMARK  6 active torsions:
REMARK  status: ('A' for Active; 'I' for Inactive)
REMARK    1  A    between atoms: C_3  and  N_18
REMARK    2  A    between atoms: C_4  and  N_15
REMARK    3  A    between atoms: C_6  and  S_7
REMARK    4  A    between atoms: S_7  and  N_10
REMARK    5  A    between atoms: N_18  and  N_19
REMARK    6  A    between atoms: C_20  and  C_21
REMARK                            x       y       z     vdW  Elec       q    Type
REMARK                         _______ _______ _______ _____ _____    ______ ____
ROOT
ATOM      1  C   UNL     1       0.001   1.381  -0.204  0.00  0.00    +0.030 A 
ATOM      2  C   UNL     1       1.198   2.063  -0.268  0.00  0.00    +0.029 A 
ATOM      3  C   UNL     1       2.397   1.381  -0.068  0.00  0.00    +0.079 A 
ATOM      4  C   UNL     1       2.379   0.013   0.195  0.00  0.00    +0.150 A 
ATOM      5  C   UNL     1       1.177  -0.660   0.256  0.00  0.00    +0.063 A 
ATOM      6  C   UNL     1      -0.011   0.022   0.057  0.00  0.00    +0.108 A 
ENDROOT
BRANCH   6   7
ATOM      7  S   UNL     1      -1.544  -0.843   0.136  0.00  0.00    +0.061 S 
ATOM      8  O   UNL     1      -1.319  -1.998   0.933  0.00  0.00    -0.153 OA
ATOM      9  O   UNL     1      -2.539   0.121   0.456  0.00  0.00    -0.153 OA
BRANCH   7  10
ATOM     10  N   UNL     1      -1.882  -1.382  -1.393  0.00  0.00    -0.177 NA
ATOM     11  C   UNL     1      -2.637  -0.642  -2.415  0.00  0.00    +0.109 C 
ATOM     12  C   UNL     1      -2.722  -1.544  -3.665  0.00  0.00    +0.018 C 
ATOM     13  C   UNL     1      -2.499  -2.965  -3.083  0.00  0.00    +0.018 C 
ATOM     14  C   UNL     1      -1.471  -2.680  -1.957  0.00  0.00    +0.109 C 
ENDBRANCH   7  10
ENDBRANCH   6   7
BRANCH   4  15
ATOM     15  N   UNL     1       3.649  -0.718   0.407  0.00  0.00    +0.058 N 
ATOM     16  O   UNL     1       3.790  -1.942  -0.058  0.00  0.00    -0.126 OA
ATOM     17  O   UNL     1       4.638  -0.144   1.061  0.00  0.00    -0.126 OA
ENDBRANCH   4  15
BRANCH   3  18
ATOM     18  N   UNL     1       3.603   2.062  -0.131  0.00  0.00    -0.236 N 
ATOM     19  H   UNL     1       4.439   1.574  -0.070  0.00  0.00    +0.174 HD
BRANCH  18  20
ATOM     20  N   UNL     1       3.614   3.344  -0.271  0.00  0.00    -0.190 NA
ATOM     21  C   UNL     1       4.771   3.997  -0.331  0.00  0.00    +0.136 C 
BRANCH  21  22
ATOM     22  C   UNL     1       4.782   5.368  -0.481  0.00  0.00    +0.000 C 
ATOM     23  C   UNL     1       5.946   6.251  -0.572  0.00  0.00    +0.005 A 
ATOM     24  C   UNL     1       7.313   6.029  -0.542  0.00  0.00    +0.025 A 
ATOM     25  C   UNL     1       8.200   7.098  -0.655  0.00  0.00    +0.019 A 
ATOM     26  C   UNL     1       7.759   8.410  -0.800  0.00  0.00    +0.017 A 
ATOM     27  C   UNL     1       6.433   8.719  -0.840  0.00  0.00    +0.027 A 
ATOM     28  C   UNL     1       5.439   7.635  -0.725  0.00  0.00    +0.043 A 
ATOM     29  N   UNL     1       4.139   7.651  -0.733  0.00  0.00    -0.380 N 
ATOM     30  C   UNL     1       3.593   6.300  -0.594  0.00  0.00    +0.150 C 
ATOM     31 BR   UNL     1      10.059   6.755  -0.609  0.00  0.00    -0.050 Br
ATOM     32  H   UNL     1       3.600   8.453  -0.823  0.00  0.00    +0.160 HD
ENDBRANCH  21  22
ENDBRANCH  18  20
ENDBRANCH   3  18
TORSDOF 6
