REMARK  Name = ZINC08636122
REMARK  8 active torsions:
REMARK  status: ('A' for Active; 'I' for Inactive)
REMARK    1  A    between atoms: C_1  and  C_2
REMARK    2  A    between atoms: C_5  and  N_9
REMARK    3  A    between atoms: C_10  and  C_31
REMARK    4  A    between atoms: C_11  and  C_15
REMARK    5  A    between atoms: C_12  and  C_14
REMARK    6  A    between atoms: C_18  and  N_22
REMARK    7  A    between atoms: N_22  and  S_23
REMARK    8  A    between atoms: S_23  and  C_26
REMARK                            x       y       z     vdW  Elec       q    Type
REMARK                         _______ _______ _______ _____ _____    ______ ____
ROOT
ATOM      1  N   UNL     1      -0.141   1.839   2.441  0.00  0.00    -0.236 N 
ATOM      2  C   UNL     1      -0.718   1.572   1.248  0.00  0.00    +0.046 A 
ATOM      3  C   UNL     1      -2.042   1.824   1.366  0.00  0.00    +0.003 A 
ATOM      4  C   UNL     1      -2.284   2.252   2.676  0.00  0.00    +0.064 A 
ATOM      5  N   UNL     1      -1.145   2.264   3.320  0.00  0.00    -0.171 NA
ATOM      6  C   UNL     1      -3.626   2.637   3.245  0.00  0.00    +0.068 C 
ATOM      7  C   UNL     1      -0.013   1.086   0.008  0.00  0.00    +0.066 C 
ENDROOT
BRANCH   1  12
ATOM      8  C   UNL     1       5.377   1.332   3.673  0.00  0.00    +0.045 C 
ATOM      9  C   UNL     1       3.913   1.467   3.346  0.00  0.00    -0.032 A 
ATOM     10  C   UNL     1       3.168   2.483   3.916  0.00  0.00    +0.007 A 
ATOM     11  C   UNL     1       1.826   2.609   3.618  0.00  0.00    +0.028 A 
ATOM     12  C   UNL     1       1.222   1.714   2.744  0.00  0.00    +0.067 A 
ATOM     13  C   UNL     1       1.970   0.691   2.177  0.00  0.00    +0.048 A 
ATOM     14  C   UNL     1       3.314   0.573   2.475  0.00  0.00    +0.046 A 
ATOM     15 CL   UNL     1       4.252  -0.703   1.763  0.00  0.00    -0.083 Cl
ENDBRANCH   1  12
BRANCH   3  16
ATOM     16  C   UNL     1      -3.074   1.669   0.279  0.00  0.00    +0.047 C 
ATOM     17  C   UNL     1      -4.176   0.677   0.719  0.00  0.00    +0.037 C 
ATOM     18  C   UNL     1      -5.435   1.320   0.093  0.00  0.00    +0.100 C 
ATOM     19  C   UNL     1      -5.089   2.784  -0.048  0.00  0.00    -0.010 C 
ATOM     20  C   UNL     1      -3.799   2.975   0.051  0.00  0.00    -0.021 C 
BRANCH  18  21
ATOM     21  N   UNL     1      -5.711   0.730  -1.219  0.00  0.00    -0.183 NA
ATOM     22  H   UNL     1      -4.977   0.462  -1.794  0.00  0.00    +0.149 HD
BRANCH  21  23
ATOM     23  S   UNL     1      -7.275   0.520  -1.720  0.00  0.00    +0.065 S 
ATOM     24  O   UNL     1      -7.212  -0.041  -3.024  0.00  0.00    -0.153 OA
ATOM     25  O   UNL     1      -7.963  -0.114  -0.651  0.00  0.00    -0.153 OA
BRANCH  23  26
ATOM     26  C   UNL     1      -7.985   2.123  -1.895  0.00  0.00    +0.142 A 
ATOM     27  C   UNL     1      -8.012   2.931  -2.984  0.00  0.00    +0.036 A 
ATOM     28  C   UNL     1      -8.634   4.162  -2.890  0.00  0.00    +0.010 A 
ATOM     29  C   UNL     1      -9.199   4.525  -1.712  0.00  0.00    +0.047 A 
ATOM     30  S   UNL     1      -8.863   3.102  -0.688  0.00  0.00    -0.077 S 
ENDBRANCH  23  26
ENDBRANCH  21  23
ENDBRANCH  18  21
ENDBRANCH   3  16
TORSDOF 5
