REMARK  Name = ZINC41586335
REMARK  9 active torsions:
REMARK  status: ('A' for Active; 'I' for Inactive)
REMARK    1  A    between atoms: C_1  and  C_2
REMARK    2  A    between atoms: C_2  and  O_3
REMARK    3  A    between atoms: O_3  and  C_4
REMARK    4  A    between atoms: C_4  and  C_6
REMARK    5  A    between atoms: N_11  and  C_13
REMARK    6  A    between atoms: C_13  and  C_14
REMARK    7  A    between atoms: C_15  and  O_34
REMARK    8  A    between atoms: C_17  and  C_33
REMARK    9  A    between atoms: C_22  and  C_23
REMARK                            x       y       z     vdW  Elec       q    Type
REMARK                         _______ _______ _______ _____ _____    ______ ____
ROOT
ATOM      1  C   UNL     1      -5.877  -5.783  -0.224  0.00  0.00    +0.020 A 
ATOM      2  C   UNL     1      -6.683  -5.966   0.889  0.00  0.00    +0.122 A 
ATOM      3  C   UNL     1      -7.928  -6.577   0.769  0.00  0.00    +0.050 A 
ATOM      4  C   UNL     1      -8.368  -7.004  -0.452  0.00  0.00    -0.033 A 
ATOM      5  C   UNL     1      -7.568  -6.826  -1.581  0.00  0.00    +0.071 A 
ATOM      6  C   UNL     1      -6.312  -6.206  -1.473  0.00  0.00    +0.145 A 
ATOM      7  O   UNL     1      -5.731  -6.141  -2.691  0.00  0.00    -0.451 OA
ATOM      8  C   UNL     1      -6.516  -6.679  -3.653  0.00  0.00    +0.176 C 
ATOM      9  C   UNL     1      -6.218  -6.767  -4.974  0.00  0.00    +0.059 C 
ATOM     10  C   UNL     1      -7.743  -7.165  -3.005  0.00  0.00    +0.232 C 
ATOM     11  O   UNL     1      -8.698  -7.712  -3.529  0.00  0.00    -0.283 OA
ATOM     12  C   UNL     1      -9.716  -7.666  -0.579  0.00  0.00    +0.045 C 
ENDROOT
BRANCH   9  13
ATOM     13  C   UNL     1      -5.016  -6.108  -5.502  0.00  0.00    -0.003 A 
ATOM     14  C   UNL     1      -3.998  -5.699  -4.631  0.00  0.00    +0.011 A 
ATOM     15  C   UNL     1      -2.874  -5.082  -5.133  0.00  0.00    +0.020 A 
ATOM     16  C   UNL     1      -2.748  -4.864  -6.497  0.00  0.00    +0.042 A 
ATOM     17  C   UNL     1      -3.749  -5.265  -7.365  0.00  0.00    +0.040 A 
ATOM     18  C   UNL     1      -4.879  -5.890  -6.879  0.00  0.00    +0.050 A 
ATOM     19 CL   UNL     1      -6.130  -6.399  -7.969  0.00  0.00    -0.083 Cl
ATOM     20 CL   UNL     1      -1.327  -4.084  -7.118  0.00  0.00    -0.083 Cl
ENDBRANCH   9  13
BRANCH   2  21
ATOM     21  O   UNL     1      -6.255  -5.545   2.106  0.00  0.00    -0.506 OA
ATOM     22  H   UNL     1      -6.504  -4.635   2.318  0.00  0.00    +0.292 HD
ENDBRANCH   2  21
BRANCH   1  23
ATOM     23  C   UNL     1      -4.532  -5.120  -0.079  0.00  0.00    -0.036 C 
BRANCH  23  28
ATOM     24  C   UNL     1      -3.499  -1.535  -0.489  0.00  0.00    +0.081 C 
ATOM     25  C   UNL     1      -4.371  -0.918   0.609  0.00  0.00    +0.011 C 
ATOM     26  C   UNL     1      -5.725  -1.634   0.635  0.00  0.00    -0.018 C 
ATOM     27  C   UNL     1      -5.498  -3.132   0.848  0.00  0.00    -0.078 C 
ATOM     28  N   UNL     1      -4.681  -3.668  -0.246  0.00  0.00    +0.383 N 
ATOM     29  C   UNL     1      -3.356  -3.037  -0.235  0.00  0.00    -0.064 C 
ATOM     30  H   UNL     1      -5.134  -3.478  -1.128  0.00  0.00    -0.081 HD
BRANCH  24  31
ATOM     31  C   UNL     1      -2.138  -0.889  -0.472  0.00  0.00    +0.308 C 
ATOM     32  O   UNL     1      -1.153  -1.562  -0.279  0.00  0.00    -0.251 OA
BRANCH  31  33
ATOM     33  O   UNL     1      -2.020   0.433  -0.673  0.00  0.00    -0.465 OA
BRANCH  33  35
ATOM     34  C   UNL     1      -0.764   2.486  -0.890  0.00  0.00    +0.048 C 
ATOM     35  C   UNL     1      -0.699   0.978  -0.644  0.00  0.00    +0.229 C 
ENDBRANCH  33  35
ENDBRANCH  31  33
ENDBRANCH  24  31
ENDBRANCH  23  28
ENDBRANCH   1  23
TORSDOF 7
