REMARK  Name = ZINC25462174
REMARK  13 active torsions:
REMARK  status: ('A' for Active; 'I' for Inactive)
REMARK    1  A    between atoms: C_1  and  C_2
REMARK    2  A    between atoms: C_2  and  C_4
REMARK    3  A    between atoms: C_2  and  O_11
REMARK    4  A    between atoms: O_11  and  C_12
REMARK    5  A    between atoms: C_12  and  C_13
REMARK    6  A    between atoms: C_13  and  C_15
REMARK    7  A    between atoms: C_13  and  O_27
REMARK    8  A    between atoms: C_15  and  N_16
REMARK    9  A    between atoms: N_16  and  C_17
REMARK   10  A    between atoms: C_19  and  C_25
REMARK   11  A    between atoms: C_19  and  C_26
REMARK   12  A    between atoms: C_21  and  C_23
REMARK   13  A    between atoms: C_21  and  C_24
REMARK                            x       y       z     vdW  Elec       q    Type
REMARK                         _______ _______ _______ _____ _____    ______ ____
ROOT
ATOM      1  C   UNL     1       0.026   5.553  -2.553  0.00  0.00    +0.114 C 
ENDROOT
BRANCH   1   2
ATOM      2  N   UNL     1       0.376   5.054  -1.216  0.00  0.00    -0.311 NA
ATOM      3  H   UNL     1       1.377   5.417  -0.940  0.00  0.00    +0.122 HD
BRANCH   2   4
ATOM      4  C   UNL     1       0.383   3.582  -1.188  0.00  0.00    +0.051 C 
ATOM      5  C   UNL     1       1.307   3.104  -0.068  0.00  0.00    +0.006 C 
ATOM      6  C   UNL     1       1.318   1.579  -0.002  0.00  0.00    -0.072 C 
ATOM      7  N   UNL     1      -0.012   1.005   0.008  0.00  0.00    +0.386 N 
ATOM      8  C   UNL     1      -1.049   1.551  -0.842  0.00  0.00    -0.072 C 
ATOM      9  C   UNL     1      -1.030   3.077  -0.900  0.00  0.00    +0.006 C 
ATOM     10  C   UNL     1      -0.958   0.983  -2.263  0.00  0.00    -0.010 C 
ATOM     11  C   UNL     1      -2.418   1.125  -0.266  0.00  0.00    -0.010 C 
ATOM     12  C   UNL     1       2.027   1.175   1.309  0.00  0.00    -0.010 C 
ATOM     13  C   UNL     1       2.153   1.022  -1.161  0.00  0.00    -0.010 C 
ATOM     14  H   UNL     1       0.043  -0.052  -0.292  0.00  0.00    -0.084 HD
ATOM     15  H   UNL     1      -0.435   1.078   1.020  0.00  0.00    -0.084 HD
ENDBRANCH   2   4
ENDBRANCH   1   2
BRANCH   1  16
ATOM     16  C   UNL     1       0.029   7.083  -2.543  0.00  0.00    +0.154 C 
BRANCH  16  17
ATOM     17  O   UNL     1       1.356   7.555  -2.298  0.00  0.00    -0.388 OA
ATOM     18  H   UNL     1       1.874   7.282  -1.367  0.00  0.00    +0.210 HD
ENDBRANCH  16  17
BRANCH  16  19
ATOM     19  C   UNL     1      -0.455   7.603  -3.898  0.00  0.00    +0.193 C 
BRANCH  19  20
ATOM     20  O   UNL     1      -0.564   9.027  -3.851  0.00  0.00    -0.370 OA
BRANCH  20  22
ATOM     21  C   UNL     1       0.197   9.945  -5.953  0.00  0.00    +0.043 C 
ATOM     22  C   UNL     1      -1.011   9.616  -5.073  0.00  0.00    +0.145 C 
BRANCH  22  23
ATOM     23  C   UNL     1      -1.772  10.881  -4.771  0.00  0.00    -0.019 A 
ATOM     24  C   UNL     1      -1.330  11.733  -3.776  0.00  0.00    +0.007 A 
ATOM     25  C   UNL     1      -2.025  12.896  -3.503  0.00  0.00    +0.020 A 
ATOM     26  C   UNL     1      -3.169  13.203  -4.217  0.00  0.00    +0.041 A 
ATOM     27  C   UNL     1      -3.615  12.347  -5.209  0.00  0.00    +0.020 A 
ATOM     28  C   UNL     1      -2.916  11.187  -5.485  0.00  0.00    +0.007 A 
ATOM     29 CL   UNL     1      -4.047  14.659  -3.869  0.00  0.00    -0.084 Cl
ENDBRANCH  22  23
ENDBRANCH  20  22
ENDBRANCH  19  20
ENDBRANCH  16  19
ENDBRANCH   1  16
TORSDOF 8
