REMARK  Name = ZINC13274595
REMARK  8 active torsions:
REMARK  status: ('A' for Active; 'I' for Inactive)
REMARK    1  A    between atoms: C_3  and  C_29
REMARK    2  A    between atoms: C_4  and  N_8
REMARK    3  A    between atoms: C_9  and  C_11
REMARK    4  A    between atoms: C_11  and  O_12
REMARK    5  A    between atoms: O_12  and  C_13
REMARK    6  A    between atoms: C_16  and  S_21
REMARK    7  A    between atoms: C_18  and  C_19
REMARK    8  A    between atoms: S_21  and  N_24
REMARK                            x       y       z     vdW  Elec       q    Type
REMARK                         _______ _______ _______ _____ _____    ______ ____
ROOT
ATOM      1  C   UNL     1      -2.300   2.680   3.719  0.00  0.00    +0.135 A 
ATOM      2  C   UNL     1      -1.363   3.536   3.159  0.00  0.00    +0.048 A 
ATOM      3  C   UNL     1      -0.638   3.141   2.053  0.00  0.00    +0.032 A 
ATOM      4  C   UNL     1      -0.848   1.894   1.486  0.00  0.00    +0.106 A 
ATOM      5  C   UNL     1      -1.774   1.030   2.029  0.00  0.00    +0.047 A 
ATOM      6  C   UNL     1      -2.511   1.415   3.153  0.00  0.00    +0.107 A 
ENDROOT
BRANCH   6   7
ATOM      7  C   UNL     1      -3.503   0.497   3.739  0.00  0.00    +0.390 C 
ATOM      8  O   UNL     1      -4.142   0.835   4.716  0.00  0.00    -0.240 OA
ATOM      9  O   UNL     1      -3.702  -0.719   3.192  0.00  0.00    -0.240 OA
ENDBRANCH   6   7
BRANCH   4  10
ATOM     10  S   UNL     1       0.080   1.407   0.070  0.00  0.00    +0.061 S 
ATOM     11  O   UNL     1       0.094  -0.014   0.062  0.00  0.00    -0.153 OA
ATOM     12  O   UNL     1       1.272   2.180   0.080  0.00  0.00    -0.153 OA
BRANCH  10  13
ATOM     13  N   UNL     1      -0.779   1.879  -1.264  0.00  0.00    -0.177 NA
ATOM     14  C   UNL     1      -1.784   1.069  -1.967  0.00  0.00    +0.109 C 
ATOM     15  C   UNL     1      -2.299   1.906  -3.157  0.00  0.00    +0.018 C 
ATOM     16  C   UNL     1      -1.143   2.913  -3.396  0.00  0.00    +0.018 C 
ATOM     17  C   UNL     1      -0.658   3.179  -1.948  0.00  0.00    +0.109 C 
ENDBRANCH  10  13
ENDBRANCH   4  10
BRANCH   1  18
ATOM     18  O   UNL     1      -3.009   3.066   4.809  0.00  0.00    -0.482 OA
BRANCH  18  19
ATOM     19  C   UNL     1      -2.740   4.368   5.331  0.00  0.00    +0.324 C 
BRANCH  19  21
ATOM     20  N   UNL     1      -3.534   5.791   7.192  0.00  0.00    -0.282 N 
ATOM     21  C   UNL     1      -3.615   4.619   6.532  0.00  0.00    +0.255 C 
ATOM     22  O   UNL     1      -4.393   3.766   6.904  0.00  0.00    -0.272 OA
ATOM     23  H   UNL     1      -2.868   6.448   6.935  0.00  0.00    +0.155 HD
BRANCH  20  27
ATOM     24  C   UNL     1      -6.148   6.599  10.342  0.00  0.00    +0.039 A 
ATOM     25  C   UNL     1      -5.755   7.623   9.510  0.00  0.00    +0.020 A 
ATOM     26  C   UNL     1      -4.880   7.366   8.451  0.00  0.00    +0.084 A 
ATOM     27  C   UNL     1      -4.406   6.060   8.244  0.00  0.00    +0.050 A 
ATOM     28  C   UNL     1      -4.816   5.039   9.088  0.00  0.00    +0.062 A 
ATOM     29  C   UNL     1      -5.679   5.309  10.135  0.00  0.00    +0.125 A 
ATOM     30  F   UNL     1      -6.070   4.311  10.957  0.00  0.00    -0.205 F 
BRANCH  26  31
ATOM     31  C   UNL     1      -4.456   8.458   7.559  0.00  0.00    +0.388 C 
ATOM     32  O   UNL     1      -3.774   8.214   6.583  0.00  0.00    -0.241 OA
ATOM     33  O   UNL     1      -4.824   9.726   7.824  0.00  0.00    -0.241 OA
ENDBRANCH  26  31
ENDBRANCH  20  27
ENDBRANCH  19  21
ENDBRANCH  18  19
ENDBRANCH   1  18
TORSDOF 8
