REMARK  Name = ZINC11687786
REMARK  9 active torsions:
REMARK  status: ('A' for Active; 'I' for Inactive)
REMARK    1  A    between atoms: C_1  and  N_2
REMARK    2  A    between atoms: C_6  and  C_7
REMARK    3  A    between atoms: C_11  and  C_31
REMARK    4  A    between atoms: C_16  and  C_18
REMARK    5  A    between atoms: C_18  and  C_19
REMARK    6  A    between atoms: C_19  and  C_21
REMARK    7  A    between atoms: C_19  and  N_60
REMARK    8  A    between atoms: C_21  and  C_22
REMARK    9  A    between atoms: C_31  and  C_32
REMARK                            x       y       z     vdW  Elec       q    Type
REMARK                         _______ _______ _______ _____ _____    ______ ____
ROOT
ATOM      1  C   UNL     1       1.098  -4.230  -6.999  0.00  0.00    +0.150 C 
ATOM      2  N   UNL     1       1.237  -4.651  -5.603  0.00  0.00    -0.327 N 
ATOM      3  C   UNL     1       1.458  -3.840  -4.531  0.00  0.00    +0.045 A 
ATOM      4  C   UNL     1       1.523  -4.636  -3.442  0.00  0.00    +0.084 A 
ATOM      5  N   UNL     1       1.342  -5.897  -3.838  0.00  0.00    -0.227 NA
ATOM      6  C   UNL     1       1.170  -5.918  -5.134  0.00  0.00    +0.215 A 
ATOM      7  C   UNL     1       1.773  -4.122  -2.039  0.00  0.00    +0.131 C 
ATOM      8  N   UNL     1       1.636  -2.656  -2.084  0.00  0.00    -0.292 N 
ATOM      9  C   UNL     1       2.272  -1.927  -3.192  0.00  0.00    +0.114 C 
ATOM     10  C   UNL     1       1.608  -2.341  -4.511  0.00  0.00    +0.074 C 
ATOM     11  C   UNL     1       0.949  -1.997  -1.130  0.00  0.00    +0.215 C 
ATOM     12  O   UNL     1       0.429  -2.612  -0.223  0.00  0.00    -0.276 OA
ENDROOT
BRANCH   6  13
ATOM     13  C   UNL     1       0.934  -7.151  -5.968  0.00  0.00    +0.451 C 
ATOM     14  F   UNL     1       0.589  -8.220  -5.134  0.00  0.00    -0.163 F 
ATOM     15  F   UNL     1      -0.106  -6.910  -6.872  0.00  0.00    -0.163 F 
ATOM     16  F   UNL     1       2.101  -7.467  -6.673  0.00  0.00    -0.163 F 
ENDBRANCH   6  13
BRANCH  11  17
ATOM     17  C   UNL     1       0.825  -0.496  -1.190  0.00  0.00    +0.080 C 
BRANCH  17  18
ATOM     18  C   UNL     1       0.002  -0.004   0.002  0.00  0.00    -0.062 C 
BRANCH  18  21
ATOM     19  H   UNL     1      -1.919  -0.254   0.700  0.00  0.00    -0.090 HD
ATOM     20  H   UNL     1      -1.809  -0.190  -0.959  0.00  0.00    -0.090 HD
ATOM     21  N   UNL     1      -1.367  -0.537  -0.109  0.00  0.00    +0.381 N 
ATOM     22  H   UNL     1      -1.329  -1.562  -0.146  0.00  0.00    -0.090 HD
ENDBRANCH  18  21
BRANCH  18  23
ATOM     23  C   UNL     1      -0.019   1.526   0.010  0.00  0.00    +0.022 C 
BRANCH  23  24
ATOM     24  C   UNL     1      -0.724   2.012   1.250  0.00  0.00    -0.011 A 
ATOM     25  C   UNL     1       0.011   2.442   2.339  0.00  0.00    +0.047 A 
ATOM     26  C   UNL     1      -0.636   2.889   3.478  0.00  0.00    +0.159 A 
ATOM     27  C   UNL     1      -2.022   2.904   3.527  0.00  0.00    +0.161 A 
ATOM     28  C   UNL     1      -2.756   2.473   2.437  0.00  0.00    +0.080 A 
ATOM     29  C   UNL     1      -2.107   2.032   1.296  0.00  0.00    +0.129 A 
ATOM     30  F   UNL     1      -2.825   1.617   0.229  0.00  0.00    -0.205 F 
ATOM     31  F   UNL     1      -2.654   3.340   4.638  0.00  0.00    -0.202 F 
ATOM     32  F   UNL     1       0.083   3.309   4.542  0.00  0.00    -0.202 F 
ENDBRANCH  23  24
ENDBRANCH  18  23
ENDBRANCH  17  18
ENDBRANCH  11  17
BRANCH   7  33
ATOM     33  C   UNL     1       3.185  -4.500  -1.586  0.00  0.00    +0.064 C 
BRANCH  33  34
ATOM     34  C   UNL     1       3.396  -4.041  -0.166  0.00  0.00    -0.045 A 
ATOM     35  C   UNL     1       3.908  -2.781   0.085  0.00  0.00    +0.004 A 
ATOM     36  C   UNL     1       4.097  -2.359   1.387  0.00  0.00    +0.000 A 
ATOM     37  C   UNL     1       3.784  -3.200   2.439  0.00  0.00    +0.000 A 
ATOM     38  C   UNL     1       3.277  -4.461   2.188  0.00  0.00    +0.000 A 
ATOM     39  C   UNL     1       3.083  -4.882   0.886  0.00  0.00    +0.004 A 
ENDBRANCH  33  34
ENDBRANCH   7  33
TORSDOF 8
