REMARK  Name = ZINC57819966
REMARK  8 active torsions:
REMARK  status: ('A' for Active; 'I' for Inactive)
REMARK    1  A    between atoms: C_1  and  C_2
REMARK    2  A    between atoms: C_2  and  C_3
REMARK    3  A    between atoms: C_2  and  C_4
REMARK    4  A    between atoms: C_4  and  C_6
REMARK    5  A    between atoms: C_4  and  N_16
REMARK    6  A    between atoms: C_17  and  C_19
REMARK    7  A    between atoms: C_22  and  S_25
REMARK    8  A    between atoms: S_25  and  C_27
REMARK                            x       y       z     vdW  Elec       q    Type
REMARK                         _______ _______ _______ _____ _____    ______ ____
ROOT
ATOM      1  C   UNL     1      -1.433  -0.534   0.013  0.00  0.00    +0.106 C 
ENDROOT
BRANCH   1   2
ATOM      2  C   UNL     1      -2.175   0.051   1.187  0.00  0.00    -0.023 A 
ATOM      3  C   UNL     1      -2.690   1.331   1.110  0.00  0.00    +0.009 A 
ATOM      4  C   UNL     1      -3.370   1.871   2.185  0.00  0.00    +0.050 A 
ATOM      5  C   UNL     1      -3.538   1.129   3.345  0.00  0.00    +0.162 A 
ATOM      6  C   UNL     1      -3.023  -0.159   3.421  0.00  0.00    +0.162 A 
ATOM      7  C   UNL     1      -2.345  -0.697   2.337  0.00  0.00    +0.055 A 
ATOM      8  O   UNL     1      -3.183  -0.907   4.547  0.00  0.00    -0.485 OA
ATOM      9  C   UNL     1      -3.546  -0.205   5.740  0.00  0.00    +0.270 C 
ATOM     10  C   UNL     1      -4.681   0.770   5.399  0.00  0.00    +0.270 C 
ATOM     11  O   UNL     1      -4.207   1.676   4.397  0.00  0.00    -0.485 OA
ENDBRANCH   1   2
BRANCH   1  12
ATOM     12  N   UNL     1      -2.105  -0.148  -1.230  0.00  0.00    -0.304 N 
ATOM     13  C   UNL     1      -1.970  -0.910  -2.334  0.00  0.00    +0.245 C 
ATOM     14  O   UNL     1      -1.290  -1.917  -2.297  0.00  0.00    -0.270 OA
ATOM     15  H   UNL     1      -2.648   0.655  -1.260  0.00  0.00    +0.150 HD
BRANCH  13  16
ATOM     16  C   UNL     1      -2.648  -0.521  -3.589  0.00  0.00    +0.037 A 
ATOM     17  C   UNL     1      -3.425   0.637  -3.636  0.00  0.00    +0.014 A 
ATOM     18  C   UNL     1      -4.055   0.995  -4.810  0.00  0.00    +0.018 A 
ATOM     19  C   UNL     1      -3.918   0.207  -5.939  0.00  0.00    +0.039 A 
ATOM     20  C   UNL     1      -3.150  -0.943  -5.899  0.00  0.00    +0.018 A 
ATOM     21  C   UNL     1      -2.510  -1.308  -4.733  0.00  0.00    +0.014 A 
BRANCH  19  22
ATOM     22  S   UNL     1      -4.726   0.671  -7.435  0.00  0.00    +0.051 S 
ATOM     23  O   UNL     1      -4.873  -0.554  -8.140  0.00  0.00    -0.252 OA
ATOM     24  C   UNL     1      -3.512   1.716  -8.284  0.00  0.00    +0.127 C 
ENDBRANCH  19  22
ENDBRANCH  13  16
ENDBRANCH   1  12
BRANCH   1  26
ATOM     25  C   UNL     1      -0.019   1.526   0.010  0.00  0.00    +0.009 C 
ATOM     26  C   UNL     1       0.002  -0.004   0.002  0.00  0.00    +0.008 C 
ATOM     27  C   UNL     1       0.742  -0.511   1.242  0.00  0.00    +0.009 C 
ENDBRANCH   1  26
TORSDOF 5
