REMARK  Name = ZINC02715922
REMARK  7 active torsions:
REMARK  status: ('A' for Active; 'I' for Inactive)
REMARK    1  A    between atoms: C_1  and  C_2
REMARK    2  A    between atoms: C_5  and  C_34
REMARK    3  A    between atoms: C_6  and  N_8
REMARK    4  A    between atoms: C_9  and  C_11
REMARK    5  A    between atoms: C_11  and  S_12
REMARK    6  A    between atoms: S_12  and  C_13
REMARK    7  A    between atoms: N_26  and  C_27
REMARK                            x       y       z     vdW  Elec       q    Type
REMARK                         _______ _______ _______ _____ _____    ______ ____
ROOT
ATOM      1  C   UNL     1      -4.359   5.194   0.101  0.00  0.00    +0.177 A 
ATOM      2  N   UNL     1      -3.636   4.095   0.094  0.00  0.00    -0.219 NA
ATOM      3  C   UNL     1      -2.297   4.150   0.093  0.00  0.00    +0.125 A 
ATOM      4  C   UNL     1      -1.230   3.137   0.086  0.00  0.00    +0.046 A 
ATOM      5  C   UNL     1      -1.216   1.744   0.073  0.00  0.00    +0.014 A 
ATOM      6  C   UNL     1      -0.012   1.074   0.073  0.00  0.00    +0.001 A 
ATOM      7  C   UNL     1       1.181   1.781   0.076  0.00  0.00    +0.004 A 
ATOM      8  C   UNL     1       1.180   3.159   0.083  0.00  0.00    +0.047 A 
ATOM      9  C   UNL     1      -0.023   3.855   0.088  0.00  0.00    +0.138 A 
ATOM     10  O   UNL     1      -0.314   5.173   0.096  0.00  0.00    -0.448 OA
ATOM     11  C   UNL     1      -1.648   5.383   0.099  0.00  0.00    +0.219 A 
ATOM     12  C   UNL     1      -2.434   6.552   0.106  0.00  0.00    +0.302 A 
ATOM     13  O   UNL     1      -1.910   7.654   0.111  0.00  0.00    -0.263 OA
ATOM     14  N   UNL     1      -3.779   6.430   0.106  0.00  0.00    -0.250 N 
ENDROOT
BRANCH  14  15
ATOM     15  C   UNL     1      -4.583   7.578   0.114  0.00  0.00    +0.087 A 
ATOM     16  C   UNL     1      -4.985   8.138   1.319  0.00  0.00    +0.029 A 
ATOM     17  C   UNL     1      -5.774   9.272   1.323  0.00  0.00    +0.002 A 
ATOM     18  C   UNL     1      -6.172   9.844   0.129  0.00  0.00    +0.003 A 
ATOM     19  C   UNL     1      -5.778   9.287  -1.074  0.00  0.00    +0.040 A 
ATOM     20  C   UNL     1      -4.984   8.155  -1.086  0.00  0.00    +0.147 A 
ATOM     21  F   UNL     1      -4.600   7.610  -2.261  0.00  0.00    -0.203 F 
ENDBRANCH  14  15
BRANCH   1  22
ATOM     22  S   UNL     1      -6.117   5.068   0.103  0.00  0.00    -0.078 S 
BRANCH  22  23
ATOM     23  C   UNL     1      -6.303   3.268   0.094  0.00  0.00    +0.173 C 
BRANCH  23  25
ATOM     24  N   UNL     1      -8.150   1.622   0.088  0.00  0.00    -0.285 N 
ATOM     25  C   UNL     1      -7.768   2.915   0.094  0.00  0.00    +0.227 C 
ATOM     26  O   UNL     1      -8.604   3.794   0.100  0.00  0.00    -0.275 OA
ATOM     27  H   UNL     1      -7.485   0.921   0.003  0.00  0.00    +0.155 HD
BRANCH  24  33
ATOM     28  C   UNL     1     -12.678   2.799   1.600  0.00  0.00    +0.044 C 
ATOM     29  C   UNL     1     -11.721   1.844   0.933  0.00  0.00    -0.049 A 
ATOM     30  C   UNL     1     -12.183   0.639   0.437  0.00  0.00    +0.004 A 
ATOM     31  C   UNL     1     -11.309  -0.241  -0.175  0.00  0.00    +0.005 A 
ATOM     32  C   UNL     1      -9.971   0.082  -0.292  0.00  0.00    -0.029 A 
ATOM     33  C   UNL     1      -9.504   1.292   0.205  0.00  0.00    +0.037 A 
ATOM     34  C   UNL     1     -10.384   2.171   0.824  0.00  0.00    +0.027 A 
ATOM     35  C   UNL     1      -9.019  -0.877  -0.959  0.00  0.00    +0.045 C 
ENDBRANCH  24  33
ENDBRANCH  23  25
ENDBRANCH  22  23
ENDBRANCH   1  22
TORSDOF 5
