REMARK  Name = ZINC47138782
REMARK  7 active torsions:
REMARK  status: ('A' for Active; 'I' for Inactive)
REMARK    1  A    between atoms: C_4  and  C_7
REMARK    2  A    between atoms: C_8  and  C_9
REMARK    3  A    between atoms: N_10  and  N_11
REMARK    4  A    between atoms: N_13  and  C_27
REMARK    5  A    between atoms: C_17  and  C_18
REMARK    6  A    between atoms: C_23  and  O_24
REMARK    7  A    between atoms: C_27  and  C_28
REMARK                            x       y       z     vdW  Elec       q    Type
REMARK                         _______ _______ _______ _____ _____    ______ ____
ROOT
ATOM      1  N   UNL     1       3.922  -4.735   0.506  0.00  0.00    -0.126 NA
ATOM      2  C   UNL     1       3.929  -6.048   0.364  0.00  0.00    +0.190 C 
ATOM      3  N   UNL     1       5.011  -6.896   0.300  0.00  0.00    -0.237 N 
ATOM      4  C   UNL     1       4.840  -8.199   0.154  0.00  0.00    +0.259 C 
ATOM      5  O   UNL     1       5.786  -8.963   0.096  0.00  0.00    -0.269 OA
ATOM      6  C   UNL     1       3.450  -8.685   0.065  0.00  0.00    +0.078 C 
ATOM      7  C   UNL     1       2.988  -9.954  -0.086  0.00  0.00    +0.032 C 
ATOM      8  S   UNL     1       2.537  -7.156   0.215  0.00  0.00    -0.047 S 
ENDROOT
BRANCH   7   9
ATOM      9  C   UNL     1       1.551 -10.230   0.031  0.00  0.00    +0.019 A 
ATOM     10  C   UNL     1       0.704  -9.304   0.650  0.00  0.00    +0.026 A 
ATOM     11  C   UNL     1      -0.645  -9.571   0.755  0.00  0.00    +0.019 A 
ATOM     12  C   UNL     1      -1.165 -10.753   0.249  0.00  0.00    +0.019 A 
ATOM     13  C   UNL     1      -0.340 -11.675  -0.364  0.00  0.00    +0.047 A 
ATOM     14  C   UNL     1       1.017 -11.423  -0.484  0.00  0.00    +0.124 A 
ATOM     15 BR   UNL     1      -1.789  -8.321   1.593  0.00  0.00    -0.050 Br
BRANCH  14  16
ATOM     16  O   UNL     1       1.827 -12.326  -1.093  0.00  0.00    -0.506 OA
ATOM     17  H   UNL     1       2.201 -12.986  -0.492  0.00  0.00    +0.292 HD
ENDBRANCH  14  16
ENDBRANCH   7   9
BRANCH   1  19
ATOM     18  C   UNL     1       5.029  -2.786   0.741  0.00  0.00    +0.135 C 
ATOM     19  N   UNL     1       5.036  -4.090   0.600  0.00  0.00    -0.155 NA
BRANCH  18  21
ATOM     20  C   UNL     1       3.796  -0.744   0.937  0.00  0.00    +0.009 C 
ATOM     21  C   UNL     1       3.803  -2.089   0.791  0.00  0.00    +0.022 C 
BRANCH  20  25
ATOM     22  C   UNL     1       0.113   1.353   1.086  0.00  0.00    +0.000 A 
ATOM     23  C   UNL     1       1.306   2.049   1.187  0.00  0.00    +0.001 A 
ATOM     24  C   UNL     1       2.507   1.375   1.140  0.00  0.00    +0.008 A 
ATOM     25  C   UNL     1       2.519  -0.017   0.989  0.00  0.00    -0.025 A 
ATOM     26  C   UNL     1       1.309  -0.712   0.888  0.00  0.00    +0.008 A 
ATOM     27  C   UNL     1       0.116  -0.023   0.937  0.00  0.00    +0.001 A 
ENDBRANCH  20  25
ENDBRANCH  18  21
ENDBRANCH   1  19
BRANCH   3  28
ATOM     28  C   UNL     1       6.367  -6.350   0.395  0.00  0.00    +0.190 C 
BRANCH  28  29
ATOM     29  C   UNL     1       6.795  -6.316   1.840  0.00  0.00    +0.123 A 
ATOM     30  C   UNL     1       7.436  -7.302   2.494  0.00  0.00    +0.046 A 
ATOM     31  C   UNL     1       7.640  -6.850   3.818  0.00  0.00    +0.041 A 
ATOM     32  C   UNL     1       7.112  -5.615   3.894  0.00  0.00    +0.195 A 
ATOM     33  O   UNL     1       6.607  -5.295   2.691  0.00  0.00    -0.466 OA
ENDBRANCH  28  29
ENDBRANCH   3  28
TORSDOF 7
