REMARK  Name = ZINC40120460
REMARK  7 active torsions:
REMARK  status: ('A' for Active; 'I' for Inactive)
REMARK    1  A    between atoms: C_3  and  N_13
REMARK    2  A    between atoms: C_5  and  N_7
REMARK    3  A    between atoms: N_16  and  C_17
REMARK    4  A    between atoms: C_17  and  C_18
REMARK    5  A    between atoms: C_18  and  C_19
REMARK    6  A    between atoms: C_22  and  S_25
REMARK    7  A    between atoms: S_25  and  N_28
REMARK                            x       y       z     vdW  Elec       q    Type
REMARK                         _______ _______ _______ _____ _____    ______ ____
ROOT
ATOM      1  N   UNL     1       3.541   2.021  -0.027  0.00  0.00    -0.269 N 
ATOM      2  C   UNL     1       3.584   3.364  -0.124  0.00  0.00    +0.304 C 
ATOM      3  O   UNL     1       2.553   4.008  -0.112  0.00  0.00    -0.253 OA
ATOM      4  N   UNL     1       4.770   3.994  -0.234  0.00  0.00    -0.299 N 
ATOM      5  H   UNL     1       4.365   1.513   0.042  0.00  0.00    +0.156 HD
ATOM      6  H   UNL     1       5.593   3.481  -0.243  0.00  0.00    +0.150 HD
ENDROOT
BRANCH   1   9
ATOM      7  C   UNL     1       0.029   1.210  -0.762  0.00  0.00    +0.004 A 
ATOM      8  C   UNL     1       1.246   1.864  -0.763  0.00  0.00    +0.023 A 
ATOM      9  C   UNL     1       2.309   1.358  -0.025  0.00  0.00    +0.037 A 
ATOM     10  C   UNL     1       2.147   0.195   0.714  0.00  0.00    +0.047 A 
ATOM     11  C   UNL     1       0.923  -0.459   0.713  0.00  0.00    +0.040 A 
ATOM     12  C   UNL     1      -0.136   0.052  -0.027  0.00  0.00    +0.024 A 
BRANCH  11  13
ATOM     13  N   UNL     1       0.756  -1.633   1.456  0.00  0.00    -0.254 N 
ATOM     14  C   UNL     1      -0.441  -2.487   1.442  0.00  0.00    +0.134 C 
ATOM     15  C   UNL     1      -0.095  -3.624   2.424  0.00  0.00    +0.125 C 
ATOM     16  N   UNL     1       1.260  -3.289   2.888  0.00  0.00    -0.297 N 
ATOM     17  C   UNL     1       1.663  -2.160   2.290  0.00  0.00    +0.307 C 
ATOM     18  O   UNL     1       2.752  -1.657   2.488  0.00  0.00    -0.252 OA
ATOM     19  H   UNL     1       1.780  -3.806   3.522  0.00  0.00    +0.150 HD
ENDBRANCH  11  13
ENDBRANCH   1   9
BRANCH   4  20
ATOM     20  C   UNL     1       4.817   5.455  -0.340  0.00  0.00    +0.110 C 
BRANCH  20  21
ATOM     21  C   UNL     1       6.272   5.912  -0.452  0.00  0.00    +0.054 C 
BRANCH  21  22
ATOM     22  C   UNL     1       6.320   7.414  -0.561  0.00  0.00    -0.046 A 
ATOM     23  C   UNL     1       6.271   8.019  -1.803  0.00  0.00    +0.005 A 
ATOM     24  C   UNL     1       6.314   9.397  -1.903  0.00  0.00    +0.029 A 
ATOM     25  C   UNL     1       6.408  10.170  -0.760  0.00  0.00    +0.105 A 
ATOM     26  C   UNL     1       6.456   9.565   0.481  0.00  0.00    +0.029 A 
ATOM     27  C   UNL     1       6.408   8.187   0.582  0.00  0.00    +0.005 A 
BRANCH  25  28
ATOM     28  S   UNL     1       6.465  11.927  -0.887  0.00  0.00    +0.056 S 
ATOM     29  O   UNL     1       7.101  12.399   0.292  0.00  0.00    -0.153 OA
ATOM     30  O   UNL     1       6.954  12.224  -2.188  0.00  0.00    -0.153 OA
BRANCH  28  31
ATOM     31  N   UNL     1       4.902  12.473  -0.833  0.00  0.00    -0.204 NA
ATOM     32  H   UNL     1       4.706  13.347  -0.462  0.00  0.00    +0.144 HD
ATOM     33  H   UNL     1       4.183  11.918  -1.173  0.00  0.00    +0.144 HD
ENDBRANCH  28  31
ENDBRANCH  25  28
ENDBRANCH  21  22
ENDBRANCH  20  21
ENDBRANCH   4  20
TORSDOF 7
