REMARK  Name = ZINC04236681
REMARK  14 active torsions:
REMARK  status: ('A' for Active; 'I' for Inactive)
REMARK    1  A    between atoms: C_1  and  C_2
REMARK    2  A    between atoms: C_2  and  C_3
REMARK    3  A    between atoms: C_3  and  N_4
REMARK    4  A    between atoms: C_5  and  O_7
REMARK    5  A    between atoms: O_7  and  C_8
REMARK    6  A    between atoms: C_12  and  C_36
REMARK    7  A    between atoms: C_15  and  C_16
REMARK    8  A    between atoms: C_15  and  C_17
REMARK    9  A    between atoms: C_17  and  O_18
REMARK   10  A    between atoms: C_21  and  O_35
REMARK   11  A    between atoms: C_23  and  C_25
REMARK   12  A    between atoms: C_25  and  C_26
REMARK   13  A    between atoms: N_28  and  C_29
REMARK   14  A    between atoms: C_29  and  C_30
REMARK                            x       y       z     vdW  Elec       q    Type
REMARK                         _______ _______ _______ _____ _____    ______ ____
ROOT
ATOM      1  C   UNL     1      -2.142   5.407   1.104  0.00  0.00    +0.186 C 
ATOM      2  C   UNL     1      -1.419   4.945   2.370  0.00  0.00    +0.046 C 
ATOM      3  C   UNL     1      -1.398   3.415   2.417  0.00  0.00    +0.011 C 
ATOM      4  C   UNL     1      -0.665   2.878   1.185  0.00  0.00    -0.023 C 
ATOM      5  C   UNL     1      -1.389   3.340  -0.081  0.00  0.00    +0.007 C 
ATOM      6  C   UNL     1      -1.410   4.870  -0.127  0.00  0.00    +0.031 C 
ATOM      7  C   UNL     1      -2.133   5.332  -1.393  0.00  0.00    +0.017 C 
ATOM      8  C   UNL     1      -0.656   2.803  -1.312  0.00  0.00    +0.007 C 
ATOM      9  C   UNL     1      -0.635   1.274  -1.266  0.00  0.00    +0.032 C 
ATOM     10  C   UNL     1       0.088   0.812   0.000  0.00  0.00    +0.119 C 
ATOM     11  C   UNL     1      -0.644   1.349   1.232  0.00  0.00    +0.032 C 
ATOM     12  C   UNL     1       0.770   3.408   1.175  0.00  0.00    +0.012 C 
ENDROOT
BRANCH  10  13
ATOM     13  O   UNL     1       1.429   1.306  -0.010  0.00  0.00    -0.391 OA
ATOM     14  H   UNL     1       1.954   1.005  -0.764  0.00  0.00    +0.210 HD
ENDBRANCH  10  13
BRANCH   1  15
ATOM     15  O   UNL     1      -2.162   6.858   1.060  0.00  0.00    -0.446 OA
BRANCH  15  17
ATOM     16  N   UNL     1      -3.291   8.818   1.633  0.00  0.00    -0.281 N 
ATOM     17  C   UNL     1      -3.211   7.473   1.638  0.00  0.00    +0.401 C 
ATOM     18  O   UNL     1      -4.087   6.814   2.165  0.00  0.00    -0.226 OA
ATOM     19  H   UNL     1      -2.592   9.344   1.213  0.00  0.00    +0.152 HD
BRANCH  16  20
ATOM     20  C   UNL     1      -4.433   9.487   2.262  0.00  0.00    +0.107 C 
BRANCH  20  22
ATOM     21  C   UNL     1      -5.472  11.701   2.773  0.00  0.00    +0.005 C 
ATOM     22  C   UNL     1      -4.279  11.002   2.116  0.00  0.00    +0.015 C 
ENDBRANCH  20  22
ENDBRANCH  16  20
ENDBRANCH  15  17
ENDBRANCH   1  15
BRANCH   6  23
ATOM     23  C   UNL     1       0.026   5.399  -0.138  0.00  0.00    +0.166 C 
BRANCH  23  24
ATOM     24  O   UNL     1       0.012   6.808  -0.378  0.00  0.00    -0.394 OA
ATOM     25  H   UNL     1       0.890   7.212  -0.399  0.00  0.00    +0.209 HD
ENDBRANCH  23  24
ENDBRANCH   6  23
BRANCH  11  26
ATOM     26  C   UNL     1       0.080   0.887   2.498  0.00  0.00    +0.102 C 
BRANCH  26  27
ATOM     27  C   UNL     1      -0.006  -0.614   2.606  0.00  0.00    +0.214 C 
ATOM     28  O   UNL     1      -0.589  -1.251   1.754  0.00  0.00    -0.276 OA
ATOM     29  N   UNL     1       0.564  -1.248   3.650  0.00  0.00    -0.308 N 
ATOM     30  H   UNL     1       1.030  -0.739   4.331  0.00  0.00    +0.149 HD
BRANCH  29  31
ATOM     31  C   UNL     1       0.481  -2.707   3.755  0.00  0.00    +0.178 C 
BRANCH  31  32
ATOM     32  C   UNL     1       1.194  -3.162   5.002  0.00  0.00    +0.122 A 
ATOM     33  C   UNL     1       0.638  -3.301   6.219  0.00  0.00    +0.046 A 
ATOM     34  C   UNL     1       1.660  -3.749   7.087  0.00  0.00    +0.041 A 
ATOM     35  C   UNL     1       2.781  -3.849   6.350  0.00  0.00    +0.195 A 
ATOM     36  O   UNL     1       2.492  -3.493   5.088  0.00  0.00    -0.466 OA
ENDBRANCH  31  32
ENDBRANCH  29  31
ENDBRANCH  26  27
ENDBRANCH  11  26
TORSDOF 11
