REMARK  Name = ZINC00494692
REMARK  7 active torsions:
REMARK  status: ('A' for Active; 'I' for Inactive)
REMARK    1  A    between atoms: C_1  and  C_2
REMARK    2  A    between atoms: C_2  and  N_3
REMARK    3  A    between atoms: N_6  and  C_14
REMARK    4  A    between atoms: C_7  and  C_12
REMARK    5  A    between atoms: C_7  and  O_13
REMARK    6  A    between atoms: C_9  and  C_10
REMARK    7  A    between atoms: C_9  and  C_11
REMARK                            x       y       z     vdW  Elec       q    Type
REMARK                         _______ _______ _______ _____ _____    ______ ____
ROOT
ATOM      1  N   UNL     1      -0.347   1.995  -1.055  0.00  0.00    -0.280 N 
ATOM      2  C   UNL     1      -1.145   3.071  -1.120  0.00  0.00    +0.312 C 
ATOM      3  O   UNL     1      -1.521   3.454  -2.212  0.00  0.00    -0.252 OA
ATOM      4  N   UNL     1      -1.545   3.742  -0.030  0.00  0.00    -0.227 N 
ATOM      5  C   UNL     1      -1.117   3.340   1.311  0.00  0.00    +0.140 C 
ATOM      6  C   UNL     1      -0.863   1.829   1.327  0.00  0.00    +0.080 C 
ATOM      7  C   UNL     1       0.150   1.493   0.227  0.00  0.00    +0.037 C 
ATOM      8  C   UNL     1       0.333  -0.024   0.146  0.00  0.00    +0.031 C 
ATOM      9  C   UNL     1       1.492   2.153   0.549  0.00  0.00    +0.031 C 
ATOM     10  C   UNL     1      -2.212   3.685   2.322  0.00  0.00    +0.064 C 
ENDROOT
BRANCH   4  11
ATOM     11  C   UNL     1      -2.389   4.849  -0.177  0.00  0.00    +0.042 A 
ATOM     12  C   UNL     1      -1.857   6.132  -0.188  0.00  0.00    +0.024 A 
ATOM     13  C   UNL     1      -2.692   7.222  -0.339  0.00  0.00    +0.003 A 
ATOM     14  C   UNL     1      -4.056   7.038  -0.467  0.00  0.00    +0.020 A 
ATOM     15  C   UNL     1      -4.590   5.762  -0.451  0.00  0.00    +0.043 A 
ATOM     16  C   UNL     1      -3.759   4.666  -0.306  0.00  0.00    +0.043 A 
ATOM     17 CL   UNL     1      -6.303   5.535  -0.612  0.00  0.00    -0.083 Cl
ENDBRANCH   4  11
BRANCH   1  19
ATOM     18  C   UNL     1      -0.989   0.218  -2.607  0.00  0.00    +0.024 C 
ATOM     19  C   UNL     1       0.036   1.309  -2.291  0.00  0.00    +0.106 C 
ENDBRANCH   1  19
BRANCH   5  20
ATOM     20  O   UNL     1       0.086   4.030   1.656  0.00  0.00    -0.371 OA
ATOM     21  H   UNL     1      -0.001   4.993   1.662  0.00  0.00    +0.212 HD
ENDBRANCH   5  20
TORSDOF 3
