REMARK  Name = ZINC08772701
REMARK  15 active torsions:
REMARK  status: ('A' for Active; 'I' for Inactive)
REMARK    1  A    between atoms: C_1  and  C_2
REMARK    2  A    between atoms: C_2  and  C_3
REMARK    3  A    between atoms: C_3  and  C_5
REMARK    4  A    between atoms: C_3  and  N_68
REMARK    5  A    between atoms: N_9  and  C_10
REMARK    6  A    between atoms: C_10  and  C_11
REMARK    7  A    between atoms: C_11  and  O_13
REMARK    8  A    between atoms: O_13  and  C_14
REMARK    9  A    between atoms: C_14  and  C_15
REMARK   10  A    between atoms: C_16  and  C_17
REMARK   11  A    between atoms: C_16  and  N_68
REMARK   12  A    between atoms: C_20  and  C_29
REMARK   13  A    between atoms: C_22  and  C_28
REMARK   14  A    between atoms: C_26  and  O_27
REMARK   15  A    between atoms: C_30  and  N_68
REMARK                            x       y       z     vdW  Elec       q    Type
REMARK                         _______ _______ _______ _____ _____    ______ ____
ROOT
ATOM      1  N   UNL     1      -5.508   4.097  -1.383  0.00  0.00    +0.391 N 
ATOM      2  H   UNL     1      -5.443   3.098  -1.609  0.00  0.00    -0.080 HD
ENDROOT
BRANCH   1   3
ATOM      3  C   UNL     1      -4.585   4.848  -2.259  0.00  0.00    -0.067 C 
ATOM      4  C   UNL     1      -4.746   6.370  -2.062  0.00  0.00    -0.015 C 
ATOM      5  C   UNL     1      -4.570   6.958  -3.485  0.00  0.00    -0.002 C 
ATOM      6  C   UNL     1      -5.281   5.911  -4.378  0.00  0.00    -0.002 C 
ATOM      7  C   UNL     1      -4.924   4.557  -3.732  0.00  0.00    -0.015 C 
ENDBRANCH   1   3
BRANCH   1   8
ATOM      8  C   UNL     1      -6.897   4.550  -1.607  0.00  0.00    +0.003 C 
BRANCH   8   9
ATOM      9  C   UNL     1      -7.203   5.753  -0.753  0.00  0.00    +0.139 A 
ATOM     10  N   UNL     1      -6.974   5.879   0.532  0.00  0.00    -0.115 NA
ATOM     11  N   UNL     1      -7.374   7.049   0.894  0.00  0.00    -0.023 NA
ATOM     12  N   UNL     1      -7.851   7.673  -0.126  0.00  0.00    -0.043 NA
ATOM     13  N   UNL     1      -7.758   6.909  -1.161  0.00  0.00    -0.220 N 
BRANCH  13  14
ATOM     14  C   UNL     1      -8.182   7.237  -2.525  0.00  0.00    +0.267 C 
BRANCH  14  15
ATOM     15  C   UNL     1      -9.619   6.826  -2.717  0.00  0.00    +0.329 C 
ATOM     16  O   UNL     1     -10.227   6.312  -1.808  0.00  0.00    -0.249 OA
BRANCH  15  17
ATOM     17  O   UNL     1     -10.223   7.031  -3.898  0.00  0.00    -0.464 OA
BRANCH  17  18
ATOM     18  C   UNL     1     -11.608   6.610  -4.011  0.00  0.00    +0.229 C 
ATOM     19  C   UNL     1     -12.123   6.922  -5.418  0.00  0.00    +0.048 C 
ENDBRANCH  17  18
ENDBRANCH  15  17
ENDBRANCH  14  15
ENDBRANCH  13  14
ENDBRANCH   8   9
BRANCH   8  21
ATOM     20  C   UNL     1      -7.612   2.225  -2.181  0.00  0.00    +0.002 C 
ATOM     21  C   UNL     1      -7.848   3.409  -1.240  0.00  0.00    -0.011 C 
ENDBRANCH   8  21
ENDBRANCH   1   8
BRANCH   1  22
ATOM     22  C   UNL     1      -5.135   4.296   0.033  0.00  0.00    -0.036 C 
BRANCH  22  23
ATOM     23  C   UNL     1      -3.882   3.508   0.318  0.00  0.00    -0.002 A 
ATOM     24  C   UNL     1      -2.679   4.144   0.400  0.00  0.00    +0.017 A 
ATOM     25  C   UNL     1      -1.532   3.371   0.668  0.00  0.00    +0.004 A 
ATOM     26  C   UNL     1      -0.262   3.960   0.765  0.00  0.00    -0.041 A 
ATOM     27  C   UNL     1       0.824   3.181   1.026  0.00  0.00    +0.007 A 
ATOM     28  C   UNL     1       0.691   1.805   1.197  0.00  0.00    -0.048 A 
ATOM     29  C   UNL     1      -0.526   1.201   1.110  0.00  0.00    +0.031 A 
ATOM     30  C   UNL     1      -1.669   1.972   0.837  0.00  0.00    +0.075 A 
ATOM     31  N   UNL     1      -2.878   1.405   0.751  0.00  0.00    -0.213 NA
ATOM     32  C   UNL     1      -3.952   2.122   0.500  0.00  0.00    +0.214 A 
ATOM     33  C   UNL     1       1.913   0.972   1.484  0.00  0.00    +0.044 C 
ATOM     34  C   UNL     1      -0.101   5.447   0.581  0.00  0.00    +0.044 C 
BRANCH  32  35
ATOM     35  O   UNL     1      -5.155   1.503   0.417  0.00  0.00    -0.492 OA
ATOM     36  H   UNL     1      -5.383   1.204  -0.474  0.00  0.00    +0.294 HD
ENDBRANCH  32  35
ENDBRANCH  22  23
ENDBRANCH   1  22
TORSDOF 11
