REMARK  Name = ZINC35591792
REMARK  13 active torsions:
REMARK  status: ('A' for Active; 'I' for Inactive)
REMARK    1  A    between atoms: C_1  and  C_2
REMARK    2  A    between atoms: C_6  and  C_8
REMARK    3  A    between atoms: C_8  and  O_9
REMARK    4  A    between atoms: O_9  and  C_10
REMARK    5  A    between atoms: C_10  and  C_37
REMARK    6  A    between atoms: C_16  and  O_19
REMARK    7  A    between atoms: O_19  and  C_20
REMARK    8  A    between atoms: C_20  and  C_21
REMARK    9  A    between atoms: C_25  and  O_27
REMARK   10  A    between atoms: O_27  and  C_28
REMARK   11  A    between atoms: C_33  and  C_35
REMARK   12  A    between atoms: C_33  and  C_36
REMARK   13  A    between atoms: N_39  and  C_40
REMARK                            x       y       z     vdW  Elec       q    Type
REMARK                         _______ _______ _______ _____ _____    ______ ____
ROOT
ATOM      1  C   UNL     1       1.525  -3.680   4.170  0.00  0.00    +0.150 C 
ATOM      2  C   UNL     1       2.965  -3.709   4.682  0.00  0.00    +0.079 C 
ATOM      3  C   UNL     1       3.549  -2.320   4.771  0.00  0.00    +0.156 C 
ATOM      4  C   UNL     1       2.667  -1.331   5.553  0.00  0.00    +0.179 C 
ATOM      5  C   UNL     1       1.214  -1.403   5.076  0.00  0.00    +0.153 C 
ATOM      6  C   UNL     1       0.691  -2.825   5.131  0.00  0.00    +0.079 C 
ATOM      7  O   UNL     1       3.194  -0.053   5.104  0.00  0.00    -0.341 OA
ATOM      8  C   UNL     1       3.787  -0.278   3.817  0.00  0.00    +0.165 C 
ATOM      9  O   UNL     1       3.663  -1.673   3.492  0.00  0.00    -0.343 OA
ATOM     10  C   UNL     1       3.057   0.555   2.762  0.00  0.00    +0.074 C 
ATOM     11  C   UNL     1       5.263   0.124   3.853  0.00  0.00    +0.074 C 
ENDROOT
BRANCH   1  12
ATOM     12  C   UNL     1       0.972  -5.081   4.126  0.00  0.00    +0.245 C 
ATOM     13  O   UNL     1       0.332  -5.510   5.063  0.00  0.00    -0.273 OA
ATOM     14  N   UNL     1       1.189  -5.858   3.046  0.00  0.00    -0.316 N 
ATOM     15  C   UNL     1       0.737  -7.251   3.043  0.00  0.00    +0.128 C 
ATOM     16  H   UNL     1       1.645  -5.494   2.271  0.00  0.00    +0.148 HD
ENDBRANCH   1  12
BRANCH   1  17
ATOM     17  O   UNL     1       1.490  -3.107   2.862  0.00  0.00    -0.359 OA
BRANCH  17  18
ATOM     18  C   UNL     1       0.179  -3.023   2.299  0.00  0.00    +0.196 C 
BRANCH  18  24
ATOM     19  C   UNL     1       0.077   1.112  -0.518  0.00  0.00    +0.044 C 
ATOM     20  C   UNL     1       0.205  -0.385  -0.402  0.00  0.00    -0.050 A 
ATOM     21  C   UNL     1       0.393  -1.153  -1.536  0.00  0.00    +0.003 A 
ATOM     22  C   UNL     1       0.510  -2.526  -1.429  0.00  0.00    +0.001 A 
ATOM     23  C   UNL     1       0.441  -3.131  -0.188  0.00  0.00    +0.006 A 
ATOM     24  C   UNL     1       0.255  -2.363   0.946  0.00  0.00    -0.022 A 
ATOM     25  C   UNL     1       0.141  -0.989   0.840  0.00  0.00    +0.009 A 
ENDBRANCH  18  24
ENDBRANCH  17  18
ENDBRANCH   1  17
BRANCH   5  26
ATOM     26  O   UNL     1       0.403  -0.577   5.913  0.00  0.00    -0.369 OA
BRANCH  26  27
ATOM     27  C   UNL     1      -0.734  -0.018   5.251  0.00  0.00    +0.195 C 
BRANCH  27  28
ATOM     28  C   UNL     1      -1.514   0.831   6.222  0.00  0.00    -0.018 A 
ATOM     29  C   UNL     1      -2.518   0.263   6.984  0.00  0.00    +0.006 A 
ATOM     30  C   UNL     1      -3.235   1.039   7.876  0.00  0.00    +0.004 A 
ATOM     31  C   UNL     1      -2.949   2.384   8.008  0.00  0.00    +0.046 A 
ATOM     32  C   UNL     1      -1.942   2.956   7.245  0.00  0.00    +0.130 A 
ATOM     33  C   UNL     1      -1.220   2.174   6.355  0.00  0.00    +0.051 A 
BRANCH  32  34
ATOM     34  O   UNL     1      -1.659   4.279   7.373  0.00  0.00    -0.406 OA
BRANCH  34  35
ATOM     35  C   UNL     1      -2.439   5.022   8.312  0.00  0.00    +0.575 C 
ATOM     36  F   UNL     1      -2.273   4.476   9.590  0.00  0.00    -0.133 F 
ATOM     37  F   UNL     1      -2.018   6.356   8.316  0.00  0.00    -0.133 F 
ATOM     38  F   UNL     1      -3.789   4.959   7.950  0.00  0.00    -0.133 F 
ENDBRANCH  34  35
ENDBRANCH  32  34
ENDBRANCH  27  28
ENDBRANCH  26  27
ENDBRANCH   5  26
TORSDOF 9
