REMARK  Name = ZINC21374849
REMARK  9 active torsions:
REMARK  status: ('A' for Active; 'I' for Inactive)
REMARK    1  A    between atoms: C_1  and  C_2
REMARK    2  A    between atoms: C_5  and  C_8
REMARK    3  A    between atoms: C_9  and  C_36
REMARK    4  A    between atoms: C_17  and  C_19
REMARK    5  A    between atoms: C_19  and  S_20
REMARK    6  A    between atoms: S_20  and  C_21
REMARK    7  A    between atoms: N_27  and  C_28
REMARK    8  A    between atoms: C_28  and  C_29
REMARK    9  A    between atoms: C_29  and  C_30
REMARK                            x       y       z     vdW  Elec       q    Type
REMARK                         _______ _______ _______ _____ _____    ______ ____
ROOT
ATOM      1  C   UNL     1       0.060  -4.255  -0.021  0.00  0.00    +0.007 A 
ATOM      2  C   UNL     1      -0.988  -4.956  -0.517  0.00  0.00    -0.003 A 
ATOM      3  S   UNL     1      -0.486  -6.653  -0.304  0.00  0.00    -0.073 S 
ATOM      4  C   UNL     1       1.102  -6.384   0.439  0.00  0.00    +0.116 A 
ATOM      5  C   UNL     1       1.209  -4.985   0.499  0.00  0.00    +0.080 A 
ATOM      6  C   UNL     1       2.424  -4.480   1.063  0.00  0.00    +0.260 A 
ATOM      7  O   UNL     1       2.607  -3.279   1.162  0.00  0.00    -0.267 OA
ATOM      8  N   UNL     1       3.360  -5.351   1.484  0.00  0.00    -0.310 N 
ATOM      9  H   UNL     1       4.184  -5.014   1.868  0.00  0.00    +0.170 HD
ATOM     10  C   UNL     1       3.171  -6.692   1.383  0.00  0.00    +0.121 A 
ATOM     11  N   UNL     1       2.070  -7.183   0.881  0.00  0.00    -0.226 NA
ATOM     12  C   UNL     1      -2.270  -4.428  -1.108  0.00  0.00    +0.052 C 
ENDROOT
BRANCH   1  17
ATOM     13  C   UNL     1      -0.018   1.503   0.010  0.00  0.00    +0.044 C 
ATOM     14  C   UNL     1       0.002  -0.004   0.002  0.00  0.00    -0.050 A 
ATOM     15  C   UNL     1       0.006  -0.686  -1.201  0.00  0.00    +0.004 A 
ATOM     16  C   UNL     1       0.024  -2.066  -1.215  0.00  0.00    +0.009 A 
ATOM     17  C   UNL     1       0.040  -2.772  -0.013  0.00  0.00    -0.016 A 
ATOM     18  C   UNL     1       0.037  -2.079   1.196  0.00  0.00    +0.009 A 
ATOM     19  C   UNL     1       0.023  -0.699   1.198  0.00  0.00    +0.004 A 
ENDBRANCH   1  17
BRANCH  10  20
ATOM     20  C   UNL     1       4.247  -7.629   1.867  0.00  0.00    +0.151 C 
BRANCH  20  21
ATOM     21  S   UNL     1       3.718  -9.344   1.605  0.00  0.00    -0.078 S 
BRANCH  21  22
ATOM     22  C   UNL     1       5.064 -10.304   2.214  0.00  0.00    +0.192 A 
ATOM     23  N   UNL     1       6.161  -9.831   2.730  0.00  0.00    -0.145 NA
ATOM     24  N   UNL     1       6.974 -10.915   3.090  0.00  0.00    -0.226 N 
ATOM     25  H   UNL     1       7.853 -10.863   3.498  0.00  0.00    +0.194 HD
ATOM     26  C   UNL     1       6.310 -12.043   2.764  0.00  0.00    +0.345 A 
ATOM     27  O   UNL     1       6.705 -13.184   2.929  0.00  0.00    -0.245 OA
ATOM     28  N   UNL     1       5.128 -11.679   2.228  0.00  0.00    -0.270 N 
BRANCH  28  29
ATOM     29  C   UNL     1       4.091 -12.591   1.740  0.00  0.00    +0.133 C 
BRANCH  29  30
ATOM     30  C   UNL     1       4.333 -12.894   0.260  0.00  0.00    +0.057 C 
BRANCH  30  31
ATOM     31  C   UNL     1       3.265 -13.832  -0.242  0.00  0.00    -0.046 A 
ATOM     32  C   UNL     1       3.455 -15.199  -0.164  0.00  0.00    +0.004 A 
ATOM     33  C   UNL     1       2.476 -16.060  -0.624  0.00  0.00    +0.000 A 
ATOM     34  C   UNL     1       1.307 -15.553  -1.162  0.00  0.00    +0.000 A 
ATOM     35  C   UNL     1       1.118 -14.186  -1.239  0.00  0.00    +0.000 A 
ATOM     36  C   UNL     1       2.095 -13.326  -0.775  0.00  0.00    +0.004 A 
ENDBRANCH  30  31
ENDBRANCH  29  30
ENDBRANCH  28  29
ENDBRANCH  21  22
ENDBRANCH  20  21
ENDBRANCH  10  20
TORSDOF 7
