REMARK  Name = ZINC00699245
REMARK  10 active torsions:
REMARK  status: ('A' for Active; 'I' for Inactive)
REMARK    1  A    between atoms: C_1  and  C_2
REMARK    2  A    between atoms: C_5  and  C_8
REMARK    3  A    between atoms: C_8  and  N_9
REMARK    4  A    between atoms: N_9  and  C_10
REMARK    5  A    between atoms: N_9  and  C_22
REMARK    6  A    between atoms: C_10  and  C_11
REMARK    7  A    between atoms: C_11  and  C_12
REMARK    8  A    between atoms: C_22  and  C_23
REMARK    9  A    between atoms: C_25  and  C_28
REMARK   10  A    between atoms: N_30  and  C_31
REMARK                            x       y       z     vdW  Elec       q    Type
REMARK                         _______ _______ _______ _____ _____    ______ ____
ROOT
ATOM      1  N   UNL     1      -1.045   1.520  -0.683  0.00  0.00    +0.387 N 
ATOM      2  H   UNL     1      -2.118   1.279  -0.674  0.00  0.00    -0.081 HD
ENDROOT
BRANCH   1   3
ATOM      3  C   UNL     1      -0.911   2.975  -0.831  0.00  0.00    -0.042 C 
BRANCH   3   8
ATOM      4  C   UNL     1      -4.436   4.820  -5.022  0.00  0.00    +0.044 C 
ATOM      5  C   UNL     1      -3.517   4.339  -3.929  0.00  0.00    -0.050 A 
ATOM      6  C   UNL     1      -4.000   4.167  -2.645  0.00  0.00    +0.003 A 
ATOM      7  C   UNL     1      -3.157   3.726  -1.643  0.00  0.00    +0.002 A 
ATOM      8  C   UNL     1      -1.830   3.456  -1.924  0.00  0.00    -0.064 A 
ATOM      9  C   UNL     1      -1.346   3.633  -3.206  0.00  0.00    +0.002 A 
ATOM     10  C   UNL     1      -2.190   4.070  -4.210  0.00  0.00    +0.003 A 
ENDBRANCH   3   8
ENDBRANCH   1   3
BRANCH   1  11
ATOM     11  C   UNL     1      -0.469   1.065   0.590  0.00  0.00    -0.073 C 
BRANCH  11  12
ATOM     12  C   UNL     1      -1.292   1.626   1.751  0.00  0.00    +0.019 C 
BRANCH  12  13
ATOM     13  C   UNL     1      -0.701   1.159   3.057  0.00  0.00    -0.024 A 
ATOM     14  C   UNL     1      -1.089   0.092   3.772  0.00  0.00    +0.087 A 
ATOM     15  N   UNL     1      -0.320  -0.020   4.898  0.00  0.00    -0.360 N 
ATOM     16  H   UNL     1      -0.494  -0.846   5.604  0.00  0.00    +0.165 HD
ATOM     17  C   UNL     1       0.599   1.004   4.941  0.00  0.00    +0.047 A 
ATOM     18  C   UNL     1       0.401   1.788   3.789  0.00  0.00    +0.003 A 
ATOM     19  C   UNL     1       1.202   2.909   3.562  0.00  0.00    +0.010 A 
ATOM     20  C   UNL     1       2.175   3.240   4.462  0.00  0.00    +0.001 A 
ATOM     21  C   UNL     1       2.374   2.470   5.600  0.00  0.00    +0.002 A 
ATOM     22  C   UNL     1       1.596   1.360   5.843  0.00  0.00    +0.026 A 
ENDBRANCH  12  13
ENDBRANCH  11  12
ENDBRANCH   1  11
BRANCH   1  23
ATOM     23  C   UNL     1      -0.434   0.817  -1.819  0.00  0.00    -0.014 C 
BRANCH  23  24
ATOM     24  C   UNL     1      -0.992  -0.580  -1.904  0.00  0.00    +0.063 A 
ATOM     25  N   UNL     1      -2.025  -1.007  -2.584  0.00  0.00    -0.241 NA
ATOM     26  C   UNL     1      -2.368  -2.295  -2.536  0.00  0.00    +0.133 A 
ATOM     27  C   UNL     1      -1.609  -3.125  -1.751  0.00  0.00    +0.079 A 
ATOM     28  S   UNL     1      -0.429  -2.020  -1.119  0.00  0.00    -0.082 S 
BRANCH  26  29
ATOM     29  C   UNL     1      -3.521  -2.806  -3.295  0.00  0.00    +0.267 C 
ATOM     30  O   UNL     1      -3.874  -3.962  -3.159  0.00  0.00    -0.268 OA
ATOM     31  N   UNL     1      -4.186  -1.993  -4.139  0.00  0.00    -0.278 N 
ATOM     32  H   UNL     1      -3.815  -0.975  -4.330  0.00  0.00    +0.155 HD
BRANCH  31  33
ATOM     33  C   UNL     1      -5.349  -2.444  -4.775  0.00  0.00    +0.069 A 
ATOM     34  C   UNL     1      -6.053  -3.523  -4.255  0.00  0.00    +0.026 A 
ATOM     35  C   UNL     1      -7.202  -3.963  -4.882  0.00  0.00    +0.002 A 
ATOM     36  C   UNL     1      -7.649  -3.337  -6.031  0.00  0.00    +0.003 A 
ATOM     37  C   UNL     1      -6.949  -2.266  -6.556  0.00  0.00    +0.040 A 
ATOM     38  C   UNL     1      -5.800  -1.817  -5.931  0.00  0.00    +0.144 A 
ATOM     39  F   UNL     1      -5.116  -0.770  -6.444  0.00  0.00    -0.204 F 
ENDBRANCH  31  33
ENDBRANCH  26  29
ENDBRANCH  23  24
ENDBRANCH   1  23
TORSDOF 9
