REMARK  Name = ZINC64667914
REMARK  4 active torsions:
REMARK  status: ('A' for Active; 'I' for Inactive)
REMARK    1  A    between atoms: N_7  and  C_22
REMARK    2  A    between atoms: C_13  and  C_15
REMARK    3  A    between atoms: C_22  and  C_23
REMARK    4  A    between atoms: N_25  and  C_26
REMARK                            x       y       z     vdW  Elec       q    Type
REMARK                         _______ _______ _______ _____ _____    ______ ____
ROOT
ATOM      1  C   UNL     1       0.018   1.366   0.032  0.00  0.00    +0.002 A 
ATOM      2  C   UNL     1       1.207   2.076   0.020  0.00  0.00    +0.002 A 
ATOM      3  C   UNL     1       2.416   1.410  -0.005  0.00  0.00    +0.028 A 
ATOM      4  C   UNL     1       2.439   0.022  -0.019  0.00  0.00    +0.076 A 
ATOM      5  C   UNL     1       1.242  -0.694  -0.007  0.00  0.00    +0.069 A 
ATOM      6  C   UNL     1       0.031  -0.014   0.018  0.00  0.00    +0.028 A 
ATOM      7  N   UNL     1       1.570  -2.044  -0.026  0.00  0.00    -0.302 N 
ATOM      8  C   UNL     1       2.935  -2.157  -0.048  0.00  0.00    +0.197 A 
ATOM      9  N   UNL     1       3.477  -0.908  -0.045  0.00  0.00    -0.246 N 
ATOM     10  C   UNL     1       4.817  -0.746  -0.064  0.00  0.00    +0.260 A 
ATOM     11  O   UNL     1       5.306   0.373  -0.060  0.00  0.00    -0.267 OA
ATOM     12  C   UNL     1       5.638  -1.879  -0.087  0.00  0.00    +0.097 A 
ATOM     13  C   UNL     1       5.039  -3.133  -0.090  0.00  0.00    +0.054 A 
ATOM     14  N   UNL     1       3.706  -3.231  -0.071  0.00  0.00    -0.326 N 
ATOM     15  H   UNL     1       3.295  -4.110  -0.073  0.00  0.00    +0.169 HD
ENDROOT
BRANCH  13  16
ATOM     16  C   UNL     1       5.874  -4.356  -0.116  0.00  0.00    -0.001 A 
ATOM     17  C   UNL     1       5.272  -5.614  -0.124  0.00  0.00    +0.013 A 
ATOM     18  C   UNL     1       6.053  -6.750  -0.148  0.00  0.00    +0.039 A 
ATOM     19  C   UNL     1       7.435  -6.643  -0.164  0.00  0.00    +0.123 A 
ATOM     20  C   UNL     1       8.038  -5.395  -0.155  0.00  0.00    +0.039 A 
ATOM     21  C   UNL     1       7.265  -4.253  -0.136  0.00  0.00    +0.013 A 
ATOM     22  F   UNL     1       8.197  -7.758  -0.187  0.00  0.00    -0.205 F 
ENDBRANCH  13  16
BRANCH   7  23
ATOM     23  C   UNL     1       0.618  -3.158  -0.021  0.00  0.00    +0.221 C 
BRANCH  23  24
ATOM     24  C   UNL     1       0.269  -3.526  -1.440  0.00  0.00    +0.237 C 
ATOM     25  O   UNL     1       0.766  -2.918  -2.364  0.00  0.00    -0.274 OA
ATOM     26  N   UNL     1      -0.596  -4.531  -1.682  0.00  0.00    -0.282 N 
ATOM     27  H   UNL     1      -0.944  -5.059  -0.947  0.00  0.00    +0.155 HD
BRANCH  26  28
ATOM     28  C   UNL     1      -0.993  -4.813  -2.997  0.00  0.00    +0.069 A 
ATOM     29  C   UNL     1      -0.095  -4.651  -4.043  0.00  0.00    +0.029 A 
ATOM     30  C   UNL     1      -0.488  -4.930  -5.338  0.00  0.00    +0.040 A 
ATOM     31  C   UNL     1      -1.776  -5.370  -5.594  0.00  0.00    +0.126 A 
ATOM     32  C   UNL     1      -2.674  -5.532  -4.552  0.00  0.00    +0.078 A 
ATOM     33  C   UNL     1      -2.284  -5.261  -3.253  0.00  0.00    +0.147 A 
ATOM     34  F   UNL     1      -3.158  -5.425  -2.236  0.00  0.00    -0.203 F 
ATOM     35  F   UNL     1      -2.156  -5.642  -6.861  0.00  0.00    -0.205 F 
ENDBRANCH  26  28
ENDBRANCH  23  24
ENDBRANCH   7  23
TORSDOF 4
