REMARK  Name = ZINC09155913
REMARK  7 active torsions:
REMARK  status: ('A' for Active; 'I' for Inactive)
REMARK    1  A    between atoms: C_1  and  C_2
REMARK    2  A    between atoms: C_9  and  C_11
REMARK    3  A    between atoms: C_14  and  S_16
REMARK    4  A    between atoms: S_16  and  C_17
REMARK    5  A    between atoms: C_17  and  C_18
REMARK    6  A    between atoms: N_28  and  C_29
REMARK    7  A    between atoms: C_29  and  C_30
REMARK                            x       y       z     vdW  Elec       q    Type
REMARK                         _______ _______ _______ _____ _____    ______ ____
ROOT
ATOM      1  C   UNL     1       0.656   2.772   9.629  0.00  0.00    +0.153 C 
ENDROOT
BRANCH   1   2
ATOM      2  C   UNL     1       0.487   3.120  11.086  0.00  0.00    +0.124 A 
ATOM      3  N   UNL     1      -0.655   3.595  11.477  0.00  0.00    -0.233 NA
ATOM      4  C   UNL     1      -0.882   3.927  12.773  0.00  0.00    +0.078 A 
ATOM      5  C   UNL     1      -2.112   4.434  13.196  0.00  0.00    +0.028 A 
ATOM      6  C   UNL     1      -2.296   4.761  14.520  0.00  0.00    +0.002 A 
ATOM      7  C   UNL     1      -1.272   4.594  15.444  0.00  0.00    +0.001 A 
ATOM      8  C   UNL     1      -0.049   4.095  15.051  0.00  0.00    +0.015 A 
ATOM      9  C   UNL     1       0.158   3.758  13.715  0.00  0.00    +0.065 A 
ATOM     10  C   UNL     1       1.441   3.222  13.237  0.00  0.00    +0.262 A 
ATOM     11  O   UNL     1       2.377   3.052  13.997  0.00  0.00    -0.267 OA
ATOM     12  N   UNL     1       1.541   2.925  11.921  0.00  0.00    -0.287 N 
BRANCH  12  13
ATOM     13  C   UNL     1       2.797   2.389  11.391  0.00  0.00    +0.222 C 
BRANCH  13  14
ATOM     14  C   UNL     1       3.681   3.525  10.946  0.00  0.00    +0.230 C 
ATOM     15  O   UNL     1       3.299   4.671  11.060  0.00  0.00    -0.274 OA
ATOM     16  N   UNL     1       4.896   3.269  10.421  0.00  0.00    -0.328 N 
ATOM     17  H   UNL     1       5.201   2.353  10.330  0.00  0.00    +0.145 HD
ATOM     18  H   UNL     1       5.465   4.000  10.134  0.00  0.00    +0.145 HD
ENDBRANCH  13  14
ENDBRANCH  12  13
ENDBRANCH   1   2
BRANCH   1  19
ATOM     19  S   UNL     1      -0.883   3.123   8.743  0.00  0.00    -0.058 S 
BRANCH  19  23
ATOM     20  C   UNL     1      -0.437   2.223   4.995  0.00  0.00    +0.256 A 
ATOM     21  N   UNL     1       0.739   1.912   5.490  0.00  0.00    -0.106 NA
ATOM     22  N   UNL     1       0.752   2.165   6.751  0.00  0.00    -0.101 NA
ATOM     23  C   UNL     1      -0.416   2.638   7.115  0.00  0.00    +0.278 A 
ATOM     24  O   UNL     1      -1.194   2.686   6.016  0.00  0.00    -0.410 OA
BRANCH  20  32
ATOM     25  C   UNL     1      -0.149   0.967  -2.482  0.00  0.00    +0.008 C 
ATOM     26  C   UNL     1      -0.758   1.595  -1.226  0.00  0.00    -0.009 C 
ATOM     27  C   UNL     1      -2.239   1.218  -1.137  0.00  0.00    +0.009 C 
ATOM     28  C   UNL     1      -2.897   2.062  -0.035  0.00  0.00    +0.043 C 
ATOM     29  C   UNL     1      -2.029   2.007   1.181  0.00  0.00    -0.006 A 
ATOM     30  C   UNL     1      -0.733   1.581   1.260  0.00  0.00    -0.036 A 
ATOM     31  C   UNL     1      -0.136   1.625   2.510  0.00  0.00    +0.024 A 
ATOM     32  C   UNL     1      -0.856   2.087   3.592  0.00  0.00    +0.076 A 
ATOM     33  S   UNL     1      -2.430   2.476   2.843  0.00  0.00    -0.088 S 
ATOM     34  C   UNL     1      -0.013   1.086   0.008  0.00  0.00    +0.039 C 
ENDBRANCH  20  32
ENDBRANCH  19  23
ENDBRANCH   1  19
TORSDOF 6
