REMARK  Name = ZINC46539304
REMARK  12 active torsions:
REMARK  status: ('A' for Active; 'I' for Inactive)
REMARK    1  A    between atoms: C_1  and  C_2
REMARK    2  A    between atoms: C_2  and  C_3
REMARK    3  A    between atoms: C_3  and  C_4
REMARK    4  A    between atoms: C_3  and  C_5
REMARK    5  A    between atoms: C_3  and  C_6
REMARK    6  A    between atoms: N_14  and  C_18
REMARK    7  A    between atoms: C_18  and  C_19
REMARK    8  A    between atoms: N_21  and  C_22
REMARK    9  A    between atoms: C_27  and  C_28
REMARK   10  A    between atoms: C_28  and  N_29
REMARK   11  A    between atoms: N_29  and  C_30
REMARK   12  A    between atoms: N_29  and  C_31
REMARK                            x       y       z     vdW  Elec       q    Type
REMARK                         _______ _______ _______ _____ _____    ______ ____
ROOT
ATOM      1  C   UNL     1       0.399  -8.316   4.876  0.00  0.00    +0.235 C 
ATOM      2  O   UNL     1       1.326  -7.566   5.097  0.00  0.00    -0.274 OA
ATOM      3  N   UNL     1       0.409  -9.566   5.379  0.00  0.00    -0.284 N 
ATOM      4  H   UNL     1      -0.360 -10.144   5.257  0.00  0.00    +0.155 HD
ENDROOT
BRANCH   3   5
ATOM      5  C   UNL     1       1.530 -10.031   6.076  0.00  0.00    +0.035 A 
ATOM      6  C   UNL     1       2.268  -9.160   6.866  0.00  0.00    +0.023 A 
ATOM      7  C   UNL     1       3.374  -9.622   7.553  0.00  0.00    +0.002 A 
ATOM      8  C   UNL     1       3.747 -10.950   7.453  0.00  0.00    +0.000 A 
ATOM      9  C   UNL     1       3.014 -11.819   6.666  0.00  0.00    +0.003 A 
ATOM     10  C   UNL     1       1.903 -11.365   5.982  0.00  0.00    -0.043 A 
BRANCH  10  11
ATOM     11  C   UNL     1       1.101 -12.315   5.131  0.00  0.00    -0.041 C 
BRANCH  11  12
ATOM     12  N   UNL     1       1.481 -12.149   3.722  0.00  0.00    +0.382 N 
ATOM     13  C   UNL     1       2.881 -12.553   3.541  0.00  0.00    -0.095 C 
ATOM     14  H   UNL     1       1.373 -11.182   3.456  0.00  0.00    -0.081 HD
BRANCH  12  15
ATOM     15  C   UNL     1       0.617 -12.987   2.880  0.00  0.00    -0.069 C 
ATOM     16  C   UNL     1       1.012 -12.814   1.412  0.00  0.00    -0.015 C 
ATOM     17  C   UNL     1       0.112 -13.687   0.535  0.00  0.00    -0.002 C 
ATOM     18  C   UNL     1      -1.347 -13.267   0.723  0.00  0.00    -0.000 C 
ATOM     19  C   UNL     1      -1.742 -13.440   2.191  0.00  0.00    -0.002 C 
ATOM     20  C   UNL     1      -0.842 -12.567   3.068  0.00  0.00    -0.015 C 
ENDBRANCH  12  15
ENDBRANCH  11  12
ENDBRANCH  10  11
ENDBRANCH   3   5
BRANCH   1  21
ATOM     21  C   UNL     1      -0.765  -7.850   4.040  0.00  0.00    +0.214 C 
BRANCH  21  30
ATOM     22  C   UNL     1       0.743  -2.025   1.260  0.00  0.00    -0.005 C 
ATOM     23  C   UNL     1      -0.693  -2.553   1.275  0.00  0.00    +0.006 C 
ATOM     24  C   UNL     1      -0.673  -4.084   1.250  0.00  0.00    +0.035 C 
ATOM     25  C   UNL     1       0.091  -4.603   2.463  0.00  0.00    +0.113 C 
ATOM     26  C   UNL     1       1.518  -4.067   2.472  0.00  0.00    +0.035 C 
ATOM     27  C   UNL     1       1.490  -2.537   2.493  0.00  0.00    +0.006 C 
ATOM     28  C   UNL     1       0.094  -6.114   2.477  0.00  0.00    +0.247 C 
ATOM     29  O   UNL     1       0.566  -6.855   1.642  0.00  0.00    -0.273 OA
ATOM     30  N   UNL     1      -0.538  -6.465   3.616  0.00  0.00    -0.215 N 
ATOM     31  C   UNL     1      -0.934  -5.392   4.312  0.00  0.00    +0.310 C 
ATOM     32  O   UNL     1      -1.524  -5.454   5.372  0.00  0.00    -0.252 OA
ATOM     33  N   UNL     1      -0.604  -4.236   3.704  0.00  0.00    -0.285 N 
ATOM     34  H   UNL     1      -0.788  -3.339   4.023  0.00  0.00    +0.151 HD
BRANCH  22  35
ATOM     35  C   UNL     1       0.723  -0.495   1.274  0.00  0.00    -0.032 C 
ATOM     36  C   UNL     1       2.159   0.033   1.256  0.00  0.00    +0.011 C 
ATOM     37  C   UNL     1       0.015  -0.006   2.539  0.00  0.00    +0.011 C 
BRANCH  35  39
ATOM     38  C   UNL     1      -0.044   1.547   0.056  0.00  0.00    +0.004 C 
ATOM     39  C   UNL     1      -0.025   0.017   0.042  0.00  0.00    +0.003 C 
ENDBRANCH  35  39
ENDBRANCH  22  35
ENDBRANCH  21  30
ENDBRANCH   1  21
TORSDOF 8
