REMARK  Name = ZINC66697124
REMARK  5 active torsions:
REMARK  status: ('A' for Active; 'I' for Inactive)
REMARK    1  A    between atoms: C_1  and  C_2
REMARK    2  A    between atoms: C_5  and  N_8
REMARK    3  A    between atoms: N_8  and  C_9
REMARK    4  A    between atoms: C_9  and  C_10
REMARK    5  A    between atoms: C_23  and  C_25
REMARK                            x       y       z     vdW  Elec       q    Type
REMARK                         _______ _______ _______ _____ _____    ______ ____
ROOT
ATOM      1  C   UNL     1       0.092  -6.387   0.960  0.00  0.00    +0.237 C 
ATOM      2  O   UNL     1       0.092  -6.785  -0.185  0.00  0.00    -0.274 OA
ATOM      3  N   UNL     1       0.109  -7.268   1.980  0.00  0.00    -0.265 N 
ATOM      4  C   UNL     1       0.104  -6.822   3.309  0.00  0.00    +0.058 A 
ATOM      5  C   UNL     1       1.228  -6.229   3.859  0.00  0.00    +0.025 A 
ATOM      6  C   UNL     1       1.212  -5.816   5.179  0.00  0.00    +0.002 A 
ATOM      7  C   UNL     1       0.078  -5.995   5.951  0.00  0.00    +0.002 A 
ATOM      8  C   UNL     1      -1.051  -6.578   5.407  0.00  0.00    +0.025 A 
ATOM      9  C   UNL     1      -1.046  -6.984   4.082  0.00  0.00    +0.055 A 
ATOM     10  N   UNL     1      -2.195  -7.526   3.494  0.00  0.00    -0.284 N 
ATOM     11  C   UNL     1      -2.122  -8.665   2.771  0.00  0.00    +0.219 C 
ATOM     12  O   UNL     1      -3.107  -9.078   2.197  0.00  0.00    -0.275 OA
ATOM     13  C   UNL     1      -0.825  -9.424   2.673  0.00  0.00    +0.118 C 
ATOM     14  C   UNL     1       0.127  -8.709   1.720  0.00  0.00    +0.087 C 
ATOM     15  C   UNL     1       1.545  -9.245   1.927  0.00  0.00    +0.029 C 
ATOM     16  H   UNL     1      -3.049  -7.080   3.606  0.00  0.00    +0.155 HD
ENDROOT
BRANCH   1  17
ATOM     17  C   UNL     1       0.074  -4.907   1.244  0.00  0.00    +0.198 C 
BRANCH  17  18
ATOM     18  N   UNL     1       0.058  -4.167  -0.021  0.00  0.00    -0.335 N 
ATOM     19  H   UNL     1       0.060  -4.648  -0.864  0.00  0.00    +0.147 HD
BRANCH  18  24
ATOM     20  C   UNL     1      -0.018   1.503   0.010  0.00  0.00    +0.044 C 
ATOM     21  C   UNL     1       0.002  -0.004   0.002  0.00  0.00    -0.050 A 
ATOM     22  C   UNL     1       0.006  -0.687  -1.200  0.00  0.00    +0.005 A 
ATOM     23  C   UNL     1       0.024  -2.068  -1.212  0.00  0.00    +0.023 A 
ATOM     24  C   UNL     1       0.040  -2.771  -0.013  0.00  0.00    +0.028 A 
ATOM     25  C   UNL     1       0.036  -2.081   1.193  0.00  0.00    +0.023 A 
ATOM     26  C   UNL     1       0.023  -0.700   1.197  0.00  0.00    +0.005 A 
ENDBRANCH  18  24
ENDBRANCH  17  18
ENDBRANCH   1  17
TORSDOF 3
