REMARK  Name = ZINC49765449
REMARK  5 active torsions:
REMARK  status: ('A' for Active; 'I' for Inactive)
REMARK    1  A    between atoms: C_4  and  C_7
REMARK    2  A    between atoms: C_7  and  N_8
REMARK    3  A    between atoms: N_16  and  C_17
REMARK    4  A    between atoms: C_17  and  C_19
REMARK    5  A    between atoms: C_26  and  C_28
REMARK                            x       y       z     vdW  Elec       q    Type
REMARK                         _______ _______ _______ _____ _____    ______ ____
ROOT
ATOM      1  N   UNL     1       3.802  -1.232   1.254  0.00  0.00    +0.386 N 
ATOM      2  C   UNL     1       4.930  -2.164   1.120  0.00  0.00    -0.072 C 
ATOM      3  C   UNL     1       5.673  -2.291   2.453  0.00  0.00    +0.035 C 
ATOM      4  C   UNL     1       4.651  -2.626   3.532  0.00  0.00    +0.024 A 
ATOM      5  C   UNL     1       3.344  -2.417   3.299  0.00  0.00    -0.004 A 
ATOM      6  S   UNL     1       2.564  -2.944   4.797  0.00  0.00    -0.059 S 
ATOM      7  C   UNL     1       3.946  -3.401   5.643  0.00  0.00    +0.163 A 
ATOM      8  N   UNL     1       4.949  -3.140   4.763  0.00  0.00    -0.339 N 
ATOM      9  N   UNL     1       4.035  -3.898   6.878  0.00  0.00    -0.156 NA
ATOM     10  C   UNL     1       2.735  -1.865   2.052  0.00  0.00    -0.033 C 
ATOM     11  H   UNL     1       5.871  -3.318   5.007  0.00  0.00    +0.167 HD
ATOM     12  H   UNL     1       4.114  -0.391   1.716  0.00  0.00    -0.081 HD
ENDROOT
BRANCH   9  13
ATOM     13  C   UNL     1       5.222  -4.203   7.386  0.00  0.00    +0.243 C 
ATOM     14  O   UNL     1       6.229  -4.030   6.726  0.00  0.00    -0.273 OA
BRANCH  13  15
ATOM     15  C   UNL     1       5.323  -4.765   8.781  0.00  0.00    +0.094 C 
ATOM     16  C   UNL     1       6.792  -5.027   9.121  0.00  0.00    +0.016 C 
ATOM     17  C   UNL     1       6.893  -5.628  10.525  0.00  0.00    +0.020 C 
ATOM     18  C   UNL     1       6.330  -4.632  11.544  0.00  0.00    +0.108 C 
ATOM     19  N   UNL     1       4.966  -4.264  11.142  0.00  0.00    -0.297 N 
ATOM     20  C   UNL     1       4.742  -3.760   9.780  0.00  0.00    +0.121 C 
ATOM     21  C   UNL     1       3.939  -4.386  12.006  0.00  0.00    +0.247 C 
ATOM     22  O   UNL     1       2.827  -4.013  11.685  0.00  0.00    -0.270 OA
BRANCH  21  23
ATOM     23  C   UNL     1       4.164  -4.973  13.344  0.00  0.00    +0.037 A 
ATOM     24  C   UNL     1       5.196  -4.495  14.154  0.00  0.00    +0.014 A 
ATOM     25  C   UNL     1       5.401  -5.047  15.401  0.00  0.00    +0.021 A 
ATOM     26  C   UNL     1       4.586  -6.072  15.850  0.00  0.00    +0.041 A 
ATOM     27  C   UNL     1       3.561  -6.551  15.051  0.00  0.00    +0.021 A 
ATOM     28  C   UNL     1       3.342  -6.003  13.804  0.00  0.00    +0.014 A 
ATOM     29 CL   UNL     1       4.851  -6.762  17.421  0.00  0.00    -0.084 Cl
ENDBRANCH  21  23
ENDBRANCH  13  15
ENDBRANCH   9  13
BRANCH   1  30
ATOM     30  C   UNL     1       3.283  -0.896  -0.078  0.00  0.00    -0.043 C 
BRANCH  30  34
ATOM     31  C   UNL     1       0.235   2.074   0.287  0.00  0.00    +0.000 A 
ATOM     32  C   UNL     1       1.554   2.454   0.125  0.00  0.00    +0.000 A 
ATOM     33  C   UNL     1       2.541   1.493   0.007  0.00  0.00    +0.002 A 
ATOM     34  C   UNL     1       2.208   0.152   0.052  0.00  0.00    -0.064 A 
ATOM     35  C   UNL     1       0.889  -0.228   0.215  0.00  0.00    +0.002 A 
ATOM     36  C   UNL     1      -0.098   0.734   0.332  0.00  0.00    +0.000 A 
ENDBRANCH  30  34
ENDBRANCH   1  30
TORSDOF 5
