REMARK  Name = ZINC13625450
REMARK  9 active torsions:
REMARK  status: ('A' for Active; 'I' for Inactive)
REMARK    1  A    between atoms: C_1  and  C_2
REMARK    2  A    between atoms: C_2  and  C_34
REMARK    3  A    between atoms: C_4  and  N_9
REMARK    4  A    between atoms: C_6  and  C_7
REMARK    5  A    between atoms: C_6  and  C_8
REMARK    6  A    between atoms: C_10  and  C_12
REMARK    7  A    between atoms: N_23  and  C_25
REMARK    8  A    between atoms: C_28  and  O_31
REMARK    9  A    between atoms: O_31  and  C_32
REMARK                            x       y       z     vdW  Elec       q    Type
REMARK                         _______ _______ _______ _____ _____    ______ ____
ROOT
ATOM      1  C   UNL     1      -0.013   1.086   0.008  0.00  0.00    +0.122 C 
ATOM      2  C   UNL     1      -0.559   1.637   1.382  0.00  0.00    +0.155 C 
ATOM      3  C   UNL     1       0.056   0.659   2.390  0.00  0.00    +0.004 C 
ATOM      4  C   UNL     1       1.345   0.963   2.420  0.00  0.00    +0.008 C 
ATOM      5  C   UNL     1       1.510   2.152   1.491  0.00  0.00    +0.116 C 
ATOM      6  C   UNL     1       1.387   1.646  -0.002  0.00  0.00    +0.127 C 
ATOM      7  C   UNL     1       2.646   0.890  -0.128  0.00  0.00    +0.227 C 
ATOM      8  O   UNL     1       2.820  -0.119  -0.779  0.00  0.00    -0.275 OA
ATOM      9  N   UNL     1       3.584   1.544   0.633  0.00  0.00    -0.268 N 
ATOM     10  C   UNL     1       2.924   2.637   1.413  0.00  0.00    +0.153 C 
ATOM     11  O   UNL     1       0.288   2.843   1.592  0.00  0.00    -0.359 OA
ENDROOT
BRANCH   9  12
ATOM     12  C   UNL     1       4.950   1.235   0.672  0.00  0.00    +0.037 A 
ATOM     13  C   UNL     1       5.806   1.973   1.478  0.00  0.00    +0.027 A 
ATOM     14  C   UNL     1       7.152   1.665   1.520  0.00  0.00    +0.047 A 
ATOM     15  C   UNL     1       7.649   0.625   0.749  0.00  0.00    +0.120 A 
ATOM     16  C   UNL     1       6.795  -0.110  -0.061  0.00  0.00    +0.047 A 
ATOM     17  C   UNL     1       5.449   0.194  -0.100  0.00  0.00    +0.027 A 
BRANCH  15  18
ATOM     18  O   UNL     1       8.975   0.325   0.787  0.00  0.00    -0.495 OA
ATOM     19  C   UNL     1       9.796   1.122   1.643  0.00  0.00    +0.277 C 
ENDBRANCH  15  18
ENDBRANCH   9  12
BRANCH   1  21
ATOM     20  N   UNL     1      -2.118   1.286  -1.276  0.00  0.00    -0.312 N 
ATOM     21  C   UNL     1      -0.818   1.619  -1.149  0.00  0.00    +0.220 C 
ATOM     22  O   UNL     1      -0.296   2.348  -1.966  0.00  0.00    -0.275 OA
ATOM     23  H   UNL     1      -2.535   0.703  -0.623  0.00  0.00    +0.149 HD
BRANCH  20  27
ATOM     24  C   UNL     1      -4.117   1.215  -5.164  0.00  0.00    -0.010 C 
ATOM     25  C   UNL     1      -4.893   1.384  -3.858  0.00  0.00    -0.072 C 
ATOM     26  C   UNL     1      -4.067   0.856  -2.684  0.00  0.00    +0.009 C 
ATOM     27  C   UNL     1      -2.902   1.806  -2.403  0.00  0.00    +0.070 C 
ATOM     28  C   UNL     1      -3.470   3.176  -2.032  0.00  0.00    +0.009 C 
ATOM     29  C   UNL     1      -4.339   3.725  -3.160  0.00  0.00    -0.072 C 
ATOM     30  C   UNL     1      -3.450   4.249  -4.292  0.00  0.00    -0.010 C 
ATOM     31  C   UNL     1      -5.118   4.935  -2.595  0.00  0.00    -0.010 C 
ATOM     32  C   UNL     1      -6.164   0.512  -3.959  0.00  0.00    -0.010 C 
ATOM     33  N   UNL     1      -5.373   2.779  -3.658  0.00  0.00    +0.386 N 
ATOM     34  H   UNL     1      -6.143   2.758  -2.978  0.00  0.00    -0.084 HD
ATOM     35  H   UNL     1      -5.721   3.130  -4.558  0.00  0.00    -0.084 HD
ENDBRANCH  20  27
ENDBRANCH   1  21
TORSDOF 4
