REMARK  Name = ZINC08958679
REMARK  12 active torsions:
REMARK  status: ('A' for Active; 'I' for Inactive)
REMARK    1  A    between atoms: C_1  and  C_2
REMARK    2  A    between atoms: C_2  and  O_3
REMARK    3  A    between atoms: O_3  and  C_4
REMARK    4  A    between atoms: C_4  and  C_5
REMARK    5  A    between atoms: C_5  and  N_6
REMARK    6  A    between atoms: C_8  and  C_35
REMARK    7  A    between atoms: N_15  and  C_16
REMARK    8  A    between atoms: C_16  and  C_18
REMARK    9  A    between atoms: C_23  and  N_24
REMARK   10  A    between atoms: N_24  and  S_25
REMARK   11  A    between atoms: S_25  and  C_28
REMARK   12  A    between atoms: C_31  and  C_34
REMARK                            x       y       z     vdW  Elec       q    Type
REMARK                         _______ _______ _______ _____ _____    ______ ____
ROOT
ATOM      1  C   UNL     1      -6.438   2.624  -0.365  0.00  0.00    +0.271 C 
ATOM      2  O   UNL     1      -6.832   3.056   0.705  0.00  0.00    -0.268 OA
ENDROOT
BRANCH   1  12
ATOM      3  N   UNL     1      -2.893   2.932   0.240  0.00  0.00    -0.319 N 
ATOM      4  C   UNL     1      -2.143   3.390   1.307  0.00  0.00    +0.061 A 
ATOM      5  C   UNL     1      -0.746   3.456   1.425  0.00  0.00    -0.026 A 
ATOM      6  C   UNL     1      -0.159   3.937   2.572  0.00  0.00    +0.005 A 
ATOM      7  C   UNL     1      -0.923   4.364   3.644  0.00  0.00    +0.001 A 
ATOM      8  C   UNL     1      -2.303   4.305   3.557  0.00  0.00    +0.017 A 
ATOM      9  C   UNL     1      -2.891   3.825   2.411  0.00  0.00    +0.039 A 
ATOM     10  S   UNL     1      -4.569   3.581   1.888  0.00  0.00    -0.052 S 
ATOM     11  C   UNL     1      -4.252   2.938   0.309  0.00  0.00    +0.167 A 
ATOM     12  N   UNL     1      -5.125   2.545  -0.611  0.00  0.00    -0.152 NA
ATOM     13  C   UNL     1       0.121   3.001   0.279  0.00  0.00    +0.046 C 
BRANCH   3  14
ATOM     14  C   UNL     1      -2.224   2.447  -0.970  0.00  0.00    +0.152 C 
BRANCH  14  15
ATOM     15  C   UNL     1      -1.975   3.619  -1.921  0.00  0.00    +0.181 C 
BRANCH  15  16
ATOM     16  O   UNL     1      -1.323   3.146  -3.100  0.00  0.00    -0.378 OA
BRANCH  16  18
ATOM     17  C   UNL     1      -0.348   3.549  -5.275  0.00  0.00    +0.034 C 
ATOM     18  C   UNL     1      -1.043   4.167  -4.060  0.00  0.00    +0.156 C 
ENDBRANCH  16  18
ENDBRANCH  15  16
ENDBRANCH  14  15
ENDBRANCH   3  14
ENDBRANCH   1  12
BRANCH   1  19
ATOM     19  C   UNL     1      -7.410   2.187  -1.389  0.00  0.00    +0.061 A 
ATOM     20  C   UNL     1      -6.962   1.697  -2.617  0.00  0.00    +0.015 A 
ATOM     21  C   UNL     1      -7.873   1.287  -3.567  0.00  0.00    +0.001 A 
ATOM     22  C   UNL     1      -9.233   1.368  -3.313  0.00  0.00    +0.002 A 
ATOM     23  C   UNL     1      -9.690   1.855  -2.106  0.00  0.00    +0.025 A 
ATOM     24  C   UNL     1      -8.786   2.268  -1.135  0.00  0.00    +0.060 A 
BRANCH  24  25
ATOM     25  N   UNL     1      -9.244   2.760   0.082  0.00  0.00    -0.216 N 
ATOM     26  H   UNL     1      -8.764   3.475   0.528  0.00  0.00    +0.174 HD
BRANCH  25  27
ATOM     27  S   UNL     1     -10.611   2.126   0.769  0.00  0.00    +0.072 S 
ATOM     28  O   UNL     1     -10.757   2.754   2.036  0.00  0.00    -0.150 OA
ATOM     29  O   UNL     1     -11.625   2.172  -0.225  0.00  0.00    -0.150 OA
BRANCH  27  30
ATOM     30  C   UNL     1     -10.292   0.422   1.085  0.00  0.00    +0.109 A 
ATOM     31  C   UNL     1     -10.590  -0.527   0.125  0.00  0.00    +0.029 A 
ATOM     32  C   UNL     1     -10.335  -1.863   0.371  0.00  0.00    +0.005 A 
ATOM     33  C   UNL     1      -9.793  -2.252   1.582  0.00  0.00    -0.050 A 
ATOM     34  C   UNL     1      -9.500  -1.304   2.545  0.00  0.00    +0.005 A 
ATOM     35  C   UNL     1      -9.750   0.033   2.296  0.00  0.00    +0.029 A 
ATOM     36  C   UNL     1      -9.521  -3.709   1.853  0.00  0.00    +0.044 C 
ENDBRANCH  27  30
ENDBRANCH  25  27
ENDBRANCH  24  25
ENDBRANCH   1  19
TORSDOF 9
