REMARK  Name = ZINC12541309
REMARK  8 active torsions:
REMARK  status: ('A' for Active; 'I' for Inactive)
REMARK    1  A    between atoms: C_1  and  C_2
REMARK    2  A    between atoms: C_2  and  N_3
REMARK    3  A    between atoms: N_3  and  C_4
REMARK    4  A    between atoms: N_3  and  S_10
REMARK    5  A    between atoms: S_10  and  C_13
REMARK    6  A    between atoms: C_17  and  N_19
REMARK    7  A    between atoms: C_20  and  C_22
REMARK    8  A    between atoms: C_22  and  C_27
REMARK                            x       y       z     vdW  Elec       q    Type
REMARK                         _______ _______ _______ _____ _____    ______ ____
ROOT
ATOM      1  C   UNL     1       1.613   1.243  -0.095  0.00  0.00    +0.111 A 
ATOM      2  C   UNL     1       0.520   2.091  -0.099  0.00  0.00    +0.030 A 
ATOM      3  C   UNL     1      -0.762   1.571  -0.098  0.00  0.00    +0.024 A 
ATOM      4  C   UNL     1      -0.954   0.202  -0.093  0.00  0.00    +0.062 A 
ATOM      5  C   UNL     1       0.143  -0.651  -0.089  0.00  0.00    +0.054 A 
ATOM      6  C   UNL     1       1.428  -0.125  -0.090  0.00  0.00    +0.053 A 
ATOM      7 CL   UNL     1      -2.563  -0.450  -0.092  0.00  0.00    -0.082 Cl
ENDROOT
BRANCH   5   8
ATOM      8  N   UNL     1      -0.048  -2.038  -0.083  0.00  0.00    -0.284 N 
ATOM      9  C   UNL     1       0.885  -2.844   0.461  0.00  0.00    +0.228 C 
ATOM     10  O   UNL     1       1.928  -2.377   0.867  0.00  0.00    -0.275 OA
ATOM     11  H   UNL     1      -0.851  -2.419  -0.471  0.00  0.00    +0.155 HD
BRANCH   9  12
ATOM     12  C   UNL     1       0.633  -4.326   0.563  0.00  0.00    +0.072 C 
ATOM     13  C   UNL     1      -0.665  -4.587   1.348  0.00  0.00    +0.021 C 
ATOM     14  C   UNL     1      -0.271  -5.412   2.590  0.00  0.00    +0.001 C 
ATOM     15  C   UNL     1       1.228  -5.083   2.805  0.00  0.00    +0.001 C 
ATOM     16  C   UNL     1       1.771  -5.002   1.357  0.00  0.00    +0.021 C 
BRANCH  12  17
ATOM     17  C   UNL     1       0.535  -4.930  -0.814  0.00  0.00    -0.032 A 
ATOM     18  C   UNL     1       0.190  -6.260  -0.963  0.00  0.00    +0.006 A 
ATOM     19  C   UNL     1       0.095  -6.812  -2.226  0.00  0.00    +0.020 A 
ATOM     20  C   UNL     1       0.355  -6.037  -3.341  0.00  0.00    +0.041 A 
ATOM     21  C   UNL     1       0.705  -4.707  -3.192  0.00  0.00    +0.020 A 
ATOM     22  C   UNL     1       0.795  -4.154  -1.928  0.00  0.00    +0.006 A 
ATOM     23 CL   UNL     1       0.241  -6.731  -4.928  0.00  0.00    -0.084 Cl
ENDBRANCH  12  17
ENDBRANCH   9  12
ENDBRANCH   5   8
BRANCH   1  24
ATOM     24  S   UNL     1       3.243   1.911  -0.097  0.00  0.00    +0.075 S 
ATOM     25  O   UNL     1       3.147   3.219   0.449  0.00  0.00    -0.150 OA
ATOM     26  O   UNL     1       4.091   0.914   0.458  0.00  0.00    -0.150 OA
BRANCH  24  27
ATOM     27  N   UNL     1       3.697   2.090  -1.680  0.00  0.00    -0.203 N 
BRANCH  27  28
ATOM     28  C   UNL     1       4.259   1.015  -2.371  0.00  0.00    +0.051 A 
ATOM     29  C   UNL     1       3.649   0.531  -3.522  0.00  0.00    +0.025 A 
ATOM     30  C   UNL     1       4.210  -0.529  -4.206  0.00  0.00    +0.002 A 
ATOM     31  C   UNL     1       5.373  -1.116  -3.741  0.00  0.00    +0.000 A 
ATOM     32  C   UNL     1       5.980  -0.640  -2.593  0.00  0.00    +0.002 A 
ATOM     33  C   UNL     1       5.427   0.423  -1.907  0.00  0.00    +0.025 A 
ENDBRANCH  27  28
BRANCH  27  35
ATOM     34  C   UNL     1       4.802   4.190  -2.272  0.00  0.00    +0.026 C 
ATOM     35  C   UNL     1       3.508   3.377  -2.354  0.00  0.00    +0.128 C 
ENDBRANCH  27  35
ENDBRANCH  24  27
ENDBRANCH   1  24
TORSDOF 7
