REMARK  Name = ZINC20734476
REMARK  13 active torsions:
REMARK  status: ('A' for Active; 'I' for Inactive)
REMARK    1  A    between atoms: C_1  and  C_2
REMARK    2  A    between atoms: C_3  and  N_9
REMARK    3  A    between atoms: N_9  and  C_10
REMARK    4  A    between atoms: C_10  and  N_12
REMARK    5  A    between atoms: N_12  and  C_13
REMARK    6  A    between atoms: N_12  and  C_24
REMARK    7  A    between atoms: C_13  and  C_14
REMARK    8  A    between atoms: C_14  and  C_15
REMARK    9  A    between atoms: C_15  and  N_16
REMARK   10  A    between atoms: N_16  and  C_17
REMARK   11  A    between atoms: N_16  and  C_18
REMARK   12  A    between atoms: C_24  and  C_25
REMARK   13  A    between atoms: N_29  and  C_30
REMARK                            x       y       z     vdW  Elec       q    Type
REMARK                         _______ _______ _______ _____ _____    ______ ____
ROOT
ATOM      1  N   UNL     1       5.584   2.192   2.114  0.00  0.00    -0.307 N 
ENDROOT
BRANCH   1   2
ATOM      2  C   UNL     1       5.610   2.981   3.206  0.00  0.00    +0.137 C 
ATOM      3  S   UNL     1       4.184   3.775   3.722  0.00  0.00    -0.018 S 
BRANCH   2   4
ATOM      4  N   UNL     1       6.758   3.144   3.892  0.00  0.00    -0.296 N 
ATOM      5  H   UNL     1       7.689   2.689   3.523  0.00  0.00    +0.154 HD
BRANCH   4   8
ATOM      6  C   UNL     1       8.780   5.120   4.218  0.00  0.00    +0.047 C 
ATOM      7  C   UNL     1       7.736   4.867   5.274  0.00  0.00    -0.011 A 
ATOM      8  C   UNL     1       6.766   3.892   5.074  0.00  0.00    +0.037 A 
ATOM      9  C   UNL     1       5.809   3.658   6.052  0.00  0.00    +0.023 A 
ATOM     10  C   UNL     1       5.819   4.398   7.219  0.00  0.00    +0.003 A 
ATOM     11  C   UNL     1       6.782   5.371   7.414  0.00  0.00    +0.020 A 
ATOM     12  C   UNL     1       7.738   5.607   6.441  0.00  0.00    +0.046 A 
ATOM     13 CL   UNL     1       8.945   6.830   6.690  0.00  0.00    -0.083 Cl
ENDBRANCH   4   8
ENDBRANCH   2   4
ENDBRANCH   1   2
BRANCH   1  14
ATOM     14  C   UNL     1       4.375   2.122   1.289  0.00  0.00    +0.105 C 
BRANCH  14  15
ATOM     15  C   UNL     1       4.483   3.128   0.141  0.00  0.00    +0.000 C 
BRANCH  15  16
ATOM     16  C   UNL     1       3.278   2.971  -0.789  0.00  0.00    -0.077 C 
BRANCH  16  17
ATOM     17  N   UNL     1       3.408   3.900  -1.920  0.00  0.00    +0.380 N 
ATOM     18  C   UNL     1       4.550   3.538  -2.770  0.00  0.00    -0.096 C 
ATOM     19  H   UNL     1       3.595   4.904  -1.512  0.00  0.00    -0.082 HD
BRANCH  17  20
ATOM     20  C   UNL     1       2.165   3.954  -2.702  0.00  0.00    -0.069 C 
ATOM     21  C   UNL     1       1.019   4.428  -1.807  0.00  0.00    -0.015 C 
ATOM     22  C   UNL     1      -0.275   4.484  -2.621  0.00  0.00    -0.002 C 
ATOM     23  C   UNL     1      -0.101   5.460  -3.787  0.00  0.00    -0.000 C 
ATOM     24  C   UNL     1       1.045   4.985  -4.683  0.00  0.00    -0.002 C 
ATOM     25  C   UNL     1       2.339   4.929  -3.868  0.00  0.00    -0.015 C 
ENDBRANCH  17  20
ENDBRANCH  16  17
ENDBRANCH  15  16
ENDBRANCH  14  15
ENDBRANCH   1  14
BRANCH   1  26
ATOM     26  C   UNL     1       6.765   1.404   1.751  0.00  0.00    +0.160 C 
BRANCH  26  27
ATOM     27  C   UNL     1       6.591  -0.013   2.235  0.00  0.00    +0.036 A 
ATOM     28  C   UNL     1       6.064  -1.031   1.526  0.00  0.00    +0.024 A 
ATOM     29  C   UNL     1       6.090  -2.176   2.347  0.00  0.00    +0.019 A 
ATOM     30  C   UNL     1       6.626  -1.811   3.530  0.00  0.00    +0.086 A 
ATOM     31  N   UNL     1       6.935  -0.484   3.467  0.00  0.00    -0.346 N 
BRANCH  31  32
ATOM     32  C   UNL     1       7.537   0.304   4.545  0.00  0.00    +0.087 C 
ATOM     33  C   UNL     1       8.926  -0.265   4.903  0.00  0.00    +0.025 C 
ATOM     34  C   UNL     1       9.017  -0.105   6.441  0.00  0.00    +0.002 C 
ATOM     35  C   UNL     1       7.575  -0.429   6.904  0.00  0.00    +0.002 C 
ATOM     36  C   UNL     1       6.678   0.199   5.817  0.00  0.00    +0.025 C 
ENDBRANCH  31  32
ENDBRANCH  26  27
ENDBRANCH   1  26
TORSDOF 11
