REMARK  Name = ZINC40103370
REMARK  9 active torsions:
REMARK  status: ('A' for Active; 'I' for Inactive)
REMARK    1  A    between atoms: C_1  and  N_2
REMARK    2  A    between atoms: N_2  and  C_3
REMARK    3  A    between atoms: N_2  and  C_26
REMARK    4  A    between atoms: C_3  and  C_4
REMARK    5  A    between atoms: C_9  and  N_10
REMARK    6  A    between atoms: N_13  and  C_14
REMARK    7  A    between atoms: N_13  and  C_20
REMARK    8  A    between atoms: C_14  and  C_15
REMARK    9  A    between atoms: C_20  and  C_21
REMARK                            x       y       z     vdW  Elec       q    Type
REMARK                         _______ _______ _______ _____ _____    ______ ____
ROOT
ATOM      1  N   UNL     1      -0.981  -1.941  -2.417  0.00  0.00    -0.269 N 
ATOM      2  C   UNL     1      -0.374  -2.335  -3.554  0.00  0.00    +0.307 C 
ATOM      3  O   UNL     1      -0.507  -1.682  -4.571  0.00  0.00    -0.252 OA
ATOM      4  N   UNL     1       0.379  -3.453  -3.564  0.00  0.00    -0.271 N 
ATOM      5  H   UNL     1      -0.810  -2.414  -1.587  0.00  0.00    +0.156 HD
ENDROOT
BRANCH   1  11
ATOM      6  C   UNL     1      -2.083  -0.123  -1.271  0.00  0.00    -0.043 A 
ATOM      7  C   UNL     1      -2.944   0.958  -1.291  0.00  0.00    +0.003 A 
ATOM      8  C   UNL     1      -3.583   1.312  -2.465  0.00  0.00    +0.000 A 
ATOM      9  C   UNL     1      -3.363   0.587  -3.622  0.00  0.00    +0.002 A 
ATOM     10  C   UNL     1      -2.504  -0.494  -3.608  0.00  0.00    +0.023 A 
ATOM     11  C   UNL     1      -1.856  -0.849  -2.432  0.00  0.00    +0.036 A 
BRANCH   6  12
ATOM     12  C   UNL     1      -1.388  -0.509   0.009  0.00  0.00    -0.041 C 
BRANCH  12  14
ATOM     13  C   UNL     1      -0.048   1.480  -0.000  0.00  0.00    -0.095 C 
ATOM     14  N   UNL     1      -0.014   0.012  -0.004  0.00  0.00    +0.382 N 
ATOM     15  H   UNL     1       0.460  -0.311  -0.834  0.00  0.00    -0.081 HD
BRANCH  14  16
ATOM     16  C   UNL     1       0.701  -0.465   1.187  0.00  0.00    -0.069 C 
ATOM     17  C   UNL     1       2.132   0.078   1.173  0.00  0.00    -0.015 C 
ATOM     18  C   UNL     1       2.877  -0.418   2.414  0.00  0.00    -0.002 C 
ATOM     19  C   UNL     1       2.912  -1.948   2.410  0.00  0.00    -0.000 C 
ATOM     20  C   UNL     1       1.482  -2.491   2.423  0.00  0.00    -0.002 C 
ATOM     21  C   UNL     1       0.736  -1.994   1.183  0.00  0.00    -0.015 C 
ENDBRANCH  14  16
ENDBRANCH  12  14
ENDBRANCH   6  12
ENDBRANCH   1  11
BRANCH   4  22
ATOM     22  C   UNL     1       1.038  -3.881  -4.800  0.00  0.00    +0.184 C 
BRANCH  22  23
ATOM     23  C   UNL     1       2.409  -3.259  -4.880  0.00  0.00    +0.122 A 
ATOM     24  C   UNL     1       3.546  -3.798  -4.404  0.00  0.00    +0.046 A 
ATOM     25  C   UNL     1       4.585  -2.884  -4.692  0.00  0.00    +0.041 A 
ATOM     26  C   UNL     1       4.020  -1.841  -5.328  0.00  0.00    +0.195 A 
ATOM     27  O   UNL     1       2.703  -2.076  -5.443  0.00  0.00    -0.466 OA
ENDBRANCH  22  23
ENDBRANCH   4  22
BRANCH   4  28
ATOM     28  C   UNL     1       0.539  -4.239  -2.338  0.00  0.00    +0.184 C 
BRANCH  28  29
ATOM     29  C   UNL     1      -0.551  -5.277  -2.262  0.00  0.00    +0.122 A 
ATOM     30  C   UNL     1      -0.483  -6.527  -2.753  0.00  0.00    +0.046 A 
ATOM     31  C   UNL     1      -1.718  -7.150  -2.462  0.00  0.00    +0.041 A 
ATOM     32  C   UNL     1      -2.467  -6.244  -1.810  0.00  0.00    +0.195 A 
ATOM     33  O   UNL     1      -1.754  -5.113  -1.686  0.00  0.00    -0.466 OA
ENDBRANCH  28  29
ENDBRANCH   4  28
TORSDOF 8
