REMARK  Name = ZINC64139347
REMARK  9 active torsions:
REMARK  status: ('A' for Active; 'I' for Inactive)
REMARK    1  A    between atoms: C_1  and  O_2
REMARK    2  A    between atoms: O_2  and  C_3
REMARK    3  A    between atoms: C_3  and  C_5
REMARK    4  A    between atoms: C_5  and  C_7
REMARK    5  A    between atoms: C_5  and  N_17
REMARK    6  A    between atoms: C_7  and  C_8
REMARK    7  A    between atoms: C_18  and  C_20
REMARK    8  A    between atoms: N_25  and  S_27
REMARK    9  A    between atoms: S_27  and  C_30
REMARK                            x       y       z     vdW  Elec       q    Type
REMARK                         _______ _______ _______ _____ _____    ______ ____
ROOT
ATOM      1  N   UNL     1      -2.643  -2.570   0.013  0.00  0.00    -0.302 N 
ATOM      2  C   UNL     1      -3.328  -2.666  -1.143  0.00  0.00    +0.218 C 
ATOM      3  O   UNL     1      -2.786  -2.393  -2.193  0.00  0.00    -0.275 OA
ATOM      4  H   UNL     1      -3.076  -2.788   0.853  0.00  0.00    +0.150 HD
ENDROOT
BRANCH   2   5
ATOM      5  C   UNL     1      -4.767  -3.113  -1.132  0.00  0.00    +0.091 C 
ATOM      6  C   UNL     1      -4.861  -4.517  -0.530  0.00  0.00    +0.015 C 
ATOM      7  C   UNL     1      -6.326  -4.959  -0.488  0.00  0.00    +0.018 C 
ATOM      8  C   UNL     1      -6.882  -5.006  -1.915  0.00  0.00    +0.109 C 
ATOM      9  N   UNL     1      -6.664  -3.700  -2.551  0.00  0.00    -0.176 NA
ATOM     10  C   UNL     1      -5.306  -3.139  -2.566  0.00  0.00    +0.122 C 
BRANCH   9  11
ATOM     11  S   UNL     1      -7.925  -2.874  -3.238  0.00  0.00    +0.061 S 
ATOM     12  O   UNL     1      -7.359  -2.003  -4.207  0.00  0.00    -0.153 OA
ATOM     13  O   UNL     1      -8.912  -3.842  -3.567  0.00  0.00    -0.153 OA
BRANCH  11  14
ATOM     14  C   UNL     1      -8.621  -1.850  -1.985  0.00  0.00    +0.106 A 
ATOM     15  C   UNL     1      -9.637  -2.334  -1.182  0.00  0.00    +0.031 A 
ATOM     16  C   UNL     1     -10.183  -1.531  -0.199  0.00  0.00    +0.040 A 
ATOM     17  C   UNL     1      -9.713  -0.242  -0.018  0.00  0.00    +0.124 A 
ATOM     18  C   UNL     1      -8.696   0.242  -0.823  0.00  0.00    +0.040 A 
ATOM     19  C   UNL     1      -8.147  -0.564  -1.802  0.00  0.00    +0.031 A 
ATOM     20  F   UNL     1     -10.247   0.544   0.942  0.00  0.00    -0.205 F 
ENDBRANCH  11  14
ENDBRANCH   9  11
ENDBRANCH   2   5
BRANCH   1  21
ATOM     21  C   UNL     1      -1.244  -2.135   0.003  0.00  0.00    +0.186 C 
BRANCH  21  22
ATOM     22  C   UNL     1      -1.185  -0.630   0.010  0.00  0.00    +0.328 C 
ATOM     23  O   UNL     1      -2.208   0.015   0.023  0.00  0.00    -0.249 OA
BRANCH  22  25
ATOM     24  C   UNL     1      -0.017   1.425   0.010  0.00  0.00    +0.280 C 
ATOM     25  O   UNL     1       0.002  -0.004   0.002  0.00  0.00    -0.467 OA
ENDBRANCH  22  25
ENDBRANCH  21  22
BRANCH  21  26
ATOM     26  C   UNL     1      -0.531  -2.680   1.242  0.00  0.00    +0.067 C 
BRANCH  26  27
ATOM     27  C   UNL     1      -0.482  -4.184   1.173  0.00  0.00    -0.039 C 
ATOM     28  C   UNL     1       0.535  -4.944   0.706  0.00  0.00    -0.001 A 
ATOM     29  C   UNL     1       1.848  -4.610   0.142  0.00  0.00    +0.010 A 
ATOM     30  C   UNL     1       2.668  -5.612  -0.249  0.00  0.00    +0.001 A 
ATOM     31  C   UNL     1       2.297  -6.958  -0.129  0.00  0.00    +0.002 A 
ATOM     32  C   UNL     1       1.107  -7.343   0.379  0.00  0.00    +0.026 A 
ATOM     33  C   UNL     1       0.166  -6.373   0.822  0.00  0.00    +0.043 A 
ATOM     34  N   UNL     1      -1.032  -6.492   1.341  0.00  0.00    -0.380 N 
ATOM     35  C   UNL     1      -1.556  -5.151   1.619  0.00  0.00    +0.144 C 
ATOM     36  H   UNL     1      -1.492  -7.328   1.516  0.00  0.00    +0.160 HD
ENDBRANCH  26  27
ENDBRANCH  21  26
ENDBRANCH   1  21
TORSDOF 8
