REMARK  Name = ZINC01177654
REMARK  9 active torsions:
REMARK  status: ('A' for Active; 'I' for Inactive)
REMARK    1  A    between atoms: C_1  and  C_2
REMARK    2  A    between atoms: C_2  and  C_3
REMARK    3  A    between atoms: C_2  and  C_4
REMARK    4  A    between atoms: C_2  and  C_5
REMARK    5  A    between atoms: C_8  and  O_28
REMARK    6  A    between atoms: C_9  and  N_11
REMARK    7  A    between atoms: C_12  and  C_14
REMARK    8  A    between atoms: N_19  and  C_21
REMARK    9  A    between atoms: O_28  and  C_29
REMARK                            x       y       z     vdW  Elec       q    Type
REMARK                         _______ _______ _______ _____ _____    ______ ____
ROOT
ATOM      1  N   UNL     1       0.746  -1.734   2.602  0.00  0.00    -0.282 N 
ATOM      2  C   UNL     1       1.831  -1.213   1.995  0.00  0.00    +0.222 C 
ATOM      3  O   UNL     1       2.840  -1.001   2.634  0.00  0.00    -0.275 OA
ATOM      4  H   UNL     1      -0.031  -1.981   2.077  0.00  0.00    +0.155 HD
ENDROOT
BRANCH   1   9
ATOM      5  C   UNL     1       1.406  -1.213   6.183  0.00  0.00    -0.040 A 
ATOM      6  C   UNL     1       0.733  -2.287   6.736  0.00  0.00    +0.008 A 
ATOM      7  C   UNL     1       0.062  -3.180   5.922  0.00  0.00    +0.048 A 
ATOM      8  C   UNL     1       0.059  -2.999   4.548  0.00  0.00    +0.141 A 
ATOM      9  C   UNL     1       0.742  -1.920   3.990  0.00  0.00    +0.076 A 
ATOM     10  C   UNL     1       1.412  -1.028   4.814  0.00  0.00    +0.031 A 
BRANCH   5  12
ATOM     11  C   UNL     1       1.551   1.160   6.889  0.00  0.00    +0.015 C 
ATOM     12  C   UNL     1       2.135  -0.242   7.076  0.00  0.00    -0.013 C 
ATOM     13  C   UNL     1       1.973  -0.672   8.536  0.00  0.00    +0.015 C 
ATOM     14  C   UNL     1       3.620  -0.229   6.710  0.00  0.00    +0.015 C 
ENDBRANCH   5  12
BRANCH   8  15
ATOM     15  O   UNL     1      -0.605  -3.873   3.747  0.00  0.00    -0.493 OA
ATOM     16  C   UNL     1      -1.283  -4.956   4.388  0.00  0.00    +0.277 C 
ENDBRANCH   8  15
ENDBRANCH   1   9
BRANCH   2  17
ATOM     17  C   UNL     1       1.790  -0.894   0.523  0.00  0.00    +0.102 C 
ATOM     18  C   UNL     1       0.710   0.169   0.217  0.00  0.00    +0.110 C 
ATOM     19  C   UNL     1       1.458   1.483   0.264  0.00  0.00    +0.221 C 
ATOM     20  O   UNL     1       0.938   2.576   0.350  0.00  0.00    -0.275 OA
ATOM     21  N   UNL     1       2.782   1.264   0.191  0.00  0.00    -0.271 N 
ATOM     22  C   UNL     1       3.080  -0.168   0.079  0.00  0.00    +0.127 C 
BRANCH  21  23
ATOM     23  C   UNL     1       3.752   2.273   0.217  0.00  0.00    +0.036 A 
ATOM     24  C   UNL     1       3.368   3.607   0.203  0.00  0.00    +0.024 A 
ATOM     25  C   UNL     1       4.327   4.601   0.235  0.00  0.00    +0.017 A 
ATOM     26  C   UNL     1       5.669   4.267   0.270  0.00  0.00    +0.018 A 
ATOM     27  C   UNL     1       6.055   2.939   0.279  0.00  0.00    +0.017 A 
ATOM     28  C   UNL     1       5.100   1.941   0.253  0.00  0.00    +0.024 A 
ATOM     29 BR   UNL     1       6.980   5.630   0.306  0.00  0.00    -0.050 Br
ENDBRANCH  21  23
ENDBRANCH   2  17
TORSDOF 5
