REMARK  Name = ZINC40983043
REMARK  12 active torsions:
REMARK  status: ('A' for Active; 'I' for Inactive)
REMARK    1  A    between atoms: C_1  and  C_2
REMARK    2  A    between atoms: C_2  and  C_3
REMARK    3  A    between atoms: C_3  and  S_4
REMARK    4  A    between atoms: S_4  and  C_5
REMARK    5  A    between atoms: C_10  and  C_26
REMARK    6  A    between atoms: C_12  and  C_16
REMARK    7  A    between atoms: C_13  and  C_15
REMARK    8  A    between atoms: N_18  and  C_19
REMARK    9  A    between atoms: C_22  and  C_25
REMARK   10  A    between atoms: C_29  and  N_32
REMARK   11  A    between atoms: N_32  and  C_33
REMARK   12  A    between atoms: N_32  and  C_34
REMARK                            x       y       z     vdW  Elec       q    Type
REMARK                         _______ _______ _______ _____ _____    ______ ____
ROOT
ATOM      1  C   UNL     1       1.459  -2.616  -2.862  0.00  0.00    +0.210 A 
ATOM      2  N   UNL     1       2.015  -1.784  -3.754  0.00  0.00    -0.187 NA
ATOM      3  C   UNL     1       2.591  -2.477  -4.698  0.00  0.00    +0.219 A 
ATOM      4  N   UNL     1       2.416  -3.793  -4.421  0.00  0.00    -0.220 N 
ATOM      5  N   UNL     1       1.687  -3.858  -3.234  0.00  0.00    -0.141 NA
ATOM      6  C   UNL     1       2.936  -4.871  -5.257  0.00  0.00    +0.177 C 
ATOM      7  C   UNL     1       3.404  -4.305  -6.571  0.00  0.00    +0.060 C 
ATOM      8  C   UNL     1       3.555  -2.991  -6.790  0.00  0.00    +0.018 C 
ATOM      9  N   UNL     1       3.280  -2.052  -5.825  0.00  0.00    -0.287 N 
ATOM     10  C   UNL     1       4.043  -2.528  -8.138  0.00  0.00    +0.061 C 
ATOM     11  H   UNL     1       3.558  -1.128  -5.928  0.00  0.00    +0.155 HD
ENDROOT
BRANCH   6  12
ATOM     12  C   UNL     1       4.092  -5.538  -4.556  0.00  0.00    -0.018 A 
ATOM     13  C   UNL     1       5.212  -4.800  -4.218  0.00  0.00    +0.008 A 
ATOM     14  C   UNL     1       6.272  -5.407  -3.576  0.00  0.00    +0.023 A 
ATOM     15  C   UNL     1       6.214  -6.761  -3.270  0.00  0.00    +0.029 A 
ATOM     16  C   UNL     1       5.088  -7.499  -3.611  0.00  0.00    +0.023 A 
ATOM     17  C   UNL     1       4.028  -6.884  -4.248  0.00  0.00    +0.008 A 
BRANCH  15  18
ATOM     18  N   UNL     1       7.286  -7.379  -2.621  0.00  0.00    -0.336 N 
ATOM     19  C   UNL     1       8.473  -6.599  -2.262  0.00  0.00    +0.129 C 
ATOM     20  C   UNL     1       7.222  -8.807  -2.299  0.00  0.00    +0.129 C 
ENDBRANCH  15  18
ENDBRANCH   6  12
BRANCH   7  21
ATOM     21  C   UNL     1       3.700  -5.202  -7.625  0.00  0.00    +0.248 C 
ATOM     22  O   UNL     1       2.795  -5.737  -8.241  0.00  0.00    -0.270 OA
ATOM     23  N   UNL     1       4.982  -5.465  -7.947  0.00  0.00    -0.282 N 
ATOM     24  H   UNL     1       5.702  -5.090  -7.415  0.00  0.00    +0.155 HD
BRANCH  23  25
ATOM     25  C   UNL     1       5.274  -6.277  -9.047  0.00  0.00    +0.034 A 
ATOM     26  C   UNL     1       6.396  -6.019  -9.824  0.00  0.00    +0.023 A 
ATOM     27  C   UNL     1       6.681  -6.823 -10.910  0.00  0.00    +0.005 A 
ATOM     28  C   UNL     1       5.853  -7.885 -11.223  0.00  0.00    -0.050 A 
ATOM     29  C   UNL     1       4.735  -8.145 -10.451  0.00  0.00    +0.005 A 
ATOM     30  C   UNL     1       4.447  -7.348  -9.361  0.00  0.00    +0.023 A 
ATOM     31  C   UNL     1       6.167  -8.760 -12.409  0.00  0.00    +0.044 C 
ENDBRANCH  23  25
ENDBRANCH   7  21
BRANCH   1  32
ATOM     32  S   UNL     1       0.573  -2.127  -1.420  0.00  0.00    -0.084 S 
BRANCH  32  33
ATOM     33  C   UNL     1       0.609  -0.314  -1.476  0.00  0.00    +0.077 C 
BRANCH  33  35
ATOM     34  C   UNL     1      -0.105   1.778  -0.312  0.00  0.00    +0.004 C 
ATOM     35  C   UNL     1      -0.136   0.249  -0.264  0.00  0.00    +0.008 C 
ENDBRANCH  33  35
ENDBRANCH  32  33
ENDBRANCH   1  32
TORSDOF 7
