REMARK  Name = ZINC20149334
REMARK  5 active torsions:
REMARK  status: ('A' for Active; 'I' for Inactive)
REMARK    1  A    between atoms: C_4  and  C_7
REMARK    2  A    between atoms: C_7  and  N_8
REMARK    3  A    between atoms: C_11  and  N_14
REMARK    4  A    between atoms: N_14  and  C_15
REMARK    5  A    between atoms: N_26  and  C_29
REMARK                            x       y       z     vdW  Elec       q    Type
REMARK                         _______ _______ _______ _____ _____    ______ ____
ROOT
ATOM      1  C   UNL     1       0.641  -4.977   0.342  0.00  0.00    +0.059 C 
ATOM      2  C   UNL     1       1.826  -4.504  -0.504  0.00  0.00    +0.024 C 
ATOM      3  C   UNL     1       2.277  -3.119  -0.038  0.00  0.00    +0.038 C 
ATOM      4  C   UNL     1       1.068  -2.188  -0.021  0.00  0.00    -0.023 A 
ATOM      5  C   UNL     1      -0.186  -2.687  -0.011  0.00  0.00    -0.003 A 
ATOM      6  S   UNL     1      -1.246  -1.266   0.007  0.00  0.00    -0.073 S 
ATOM      7  C   UNL     1       0.002  -0.004   0.002  0.00  0.00    +0.116 A 
ATOM      8  C   UNL     1       1.202  -0.732  -0.013  0.00  0.00    +0.076 A 
ATOM      9  C   UNL     1       2.403   0.051  -0.021  0.00  0.00    +0.263 A 
ATOM     10  O   UNL     1       3.495  -0.490  -0.033  0.00  0.00    -0.267 OA
ATOM     11  N   UNL     1       2.304   1.393  -0.013  0.00  0.00    -0.296 N 
ATOM     12  C   UNL     1       1.095   2.012   0.002  0.00  0.00    +0.203 A 
ATOM     13  N   UNL     1      -0.016   1.326   0.009  0.00  0.00    -0.230 NA
ATOM     14  C   UNL     1      -0.589  -4.130  -0.015  0.00  0.00    +0.061 C 
ENDROOT
BRANCH  11  15
ATOM     15  C   UNL     1       3.525   2.203  -0.020  0.00  0.00    +0.092 C 
ATOM     16  C   UNL     1       3.543   3.143   1.203  0.00  0.00    +0.025 C 
ATOM     17  C   UNL     1       4.179   4.450   0.668  0.00  0.00    +0.002 C 
ATOM     18  C   UNL     1       3.587   4.559  -0.759  0.00  0.00    +0.002 C 
ATOM     19  C   UNL     1       3.553   3.103  -1.267  0.00  0.00    +0.025 C 
ENDBRANCH  11  15
BRANCH   1  20
ATOM     20  N   UNL     1       0.365  -6.392   0.057  0.00  0.00    -0.310 NA
ATOM     21  H   UNL     1       1.318  -6.903  -0.143  0.00  0.00    +0.122 HD
BRANCH  20  25
ATOM     22  N   UNL     1      -0.721  -9.384   2.823  0.00  0.00    +0.382 N 
ATOM     23  C   UNL     1      -1.764  -8.942   1.888  0.00  0.00    -0.077 C 
ATOM     24  C   UNL     1      -1.115  -8.238   0.694  0.00  0.00    -0.000 C 
ATOM     25  C   UNL     1      -0.308  -7.037   1.192  0.00  0.00    +0.050 C 
ATOM     26  C   UNL     1       0.739  -7.516   2.202  0.00  0.00    -0.000 C 
ATOM     27  C   UNL     1       0.036  -8.242   3.352  0.00  0.00    -0.077 C 
ATOM     28  H   UNL     1      -0.020 -10.022   2.266  0.00  0.00    -0.081 HD
BRANCH  22  29
ATOM     29  C   UNL     1      -1.296 -10.184   3.913  0.00  0.00    -0.043 C 
BRANCH  29  33
ATOM     30  C   UNL     1       1.851 -11.989   6.168  0.00  0.00    +0.000 A 
ATOM     31  C   UNL     1       1.375 -10.741   6.522  0.00  0.00    +0.000 A 
ATOM     32  C   UNL     1       0.356 -10.156   5.792  0.00  0.00    +0.002 A 
ATOM     33  C   UNL     1      -0.186 -10.821   4.708  0.00  0.00    -0.064 A 
ATOM     34  C   UNL     1       0.287 -12.071   4.357  0.00  0.00    +0.002 A 
ATOM     35  C   UNL     1       1.309 -12.653   5.083  0.00  0.00    +0.000 A 
ENDBRANCH  29  33
ENDBRANCH  22  29
ENDBRANCH  20  25
ENDBRANCH   1  20
TORSDOF 5
