REMARK  Name = ZINC35489690
REMARK  13 active torsions:
REMARK  status: ('A' for Active; 'I' for Inactive)
REMARK    1  A    between atoms: C_1  and  C_2
REMARK    2  A    between atoms: C_2  and  C_3
REMARK    3  A    between atoms: C_2  and  C_4
REMARK    4  A    between atoms: C_2  and  O_5
REMARK    5  A    between atoms: O_5  and  C_6
REMARK    6  A    between atoms: N_8  and  C_9
REMARK    7  A    between atoms: C_9  and  C_10
REMARK    8  A    between atoms: C_10  and  C_11
REMARK    9  A    between atoms: C_11  and  N_12
REMARK   10  A    between atoms: N_12  and  C_13
REMARK   11  A    between atoms: C_13  and  C_14
REMARK   12  A    between atoms: C_23  and  C_25
REMARK   13  A    between atoms: N_33  and  C_34
REMARK                            x       y       z     vdW  Elec       q    Type
REMARK                         _______ _______ _______ _____ _____    ______ ____
ROOT
ATOM      1  C   UNL     1       1.931  -3.770  -2.466  0.00  0.00    +0.410 C 
ATOM      2  O   UNL     1       2.390  -3.784  -1.342  0.00  0.00    -0.226 OA
ATOM      3  N   UNL     1       1.532  -2.606  -3.017  0.00  0.00    -0.202 N 
ATOM      4  C   UNL     1       0.906  -2.605  -4.211  0.00  0.00    +0.272 C 
ATOM      5  O   UNL     1       0.849  -3.627  -4.868  0.00  0.00    -0.268 OA
ENDROOT
BRANCH   4   6
ATOM      6  C   UNL     1       0.293  -1.370  -4.718  0.00  0.00    +0.106 A 
ATOM      7  C   UNL     1      -1.039  -1.165  -4.892  0.00  0.00    +0.041 A 
ATOM      8  C   UNL     1      -1.211   0.147  -5.395  0.00  0.00    +0.001 A 
ATOM      9  C   UNL     1      -2.337   0.898  -5.759  0.00  0.00    +0.010 A 
ATOM     10  C   UNL     1      -2.182   2.171  -6.224  0.00  0.00    +0.001 A 
ATOM     11  C   UNL     1      -0.916   2.732  -6.342  0.00  0.00    +0.002 A 
ATOM     12  C   UNL     1       0.205   2.015  -5.992  0.00  0.00    +0.026 A 
ATOM     13  C   UNL     1       0.073   0.714  -5.514  0.00  0.00    +0.049 A 
ATOM     14  N   UNL     1       0.979  -0.229  -5.088  0.00  0.00    -0.339 N 
ATOM     15  C   UNL     1       2.433  -0.054  -5.040  0.00  0.00    +0.149 C 
ENDBRANCH   4   6
BRANCH   1  16
ATOM     16  O   UNL     1       1.819  -4.917  -3.162  0.00  0.00    -0.444 OA
BRANCH  16  18
ATOM     17  C   UNL     1       1.652  -6.404  -1.265  0.00  0.00    +0.055 C 
ATOM     18  C   UNL     1       2.382  -6.091  -2.572  0.00  0.00    +0.107 C 
ATOM     19  C   UNL     1       3.866  -5.856  -2.284  0.00  0.00    +0.055 C 
ATOM     20  C   UNL     1       2.230  -7.269  -3.537  0.00  0.00    +0.055 C 
ENDBRANCH  16  18
ENDBRANCH   1  16
BRANCH   3  21
ATOM     21  C   UNL     1       1.779  -1.343  -2.318  0.00  0.00    +0.118 C 
BRANCH  21  22
ATOM     22  C   UNL     1       2.758  -1.579  -1.167  0.00  0.00    +0.001 C 
BRANCH  22  23
ATOM     23  C   UNL     1       3.769  -0.432  -1.112  0.00  0.00    -0.081 C 
BRANCH  23  24
ATOM     24  N   UNL     1       4.898  -0.814  -0.253  0.00  0.00    +0.382 N 
ATOM     25  H   UNL     1       4.561  -1.010   0.677  0.00  0.00    -0.085 HD
ATOM     26  H   UNL     1       5.343  -1.637  -0.630  0.00  0.00    -0.085 HD
BRANCH  24  27
ATOM     27  C   UNL     1       5.868   0.287  -0.201  0.00  0.00    -0.047 C 
BRANCH  27  28
ATOM     28  C   UNL     1       7.026  -0.105   0.680  0.00  0.00    -0.061 A 
ATOM     29  C   UNL     1       6.985   0.167   2.035  0.00  0.00    +0.005 A 
ATOM     30  C   UNL     1       8.044  -0.192   2.848  0.00  0.00    +0.050 A 
ATOM     31  C   UNL     1       9.151  -0.824   2.305  0.00  0.00    +0.166 A 
ATOM     32  C   UNL     1       9.193  -1.097   0.940  0.00  0.00    +0.166 A 
ATOM     33  C   UNL     1       8.125  -0.740   0.133  0.00  0.00    +0.051 A 
ATOM     34  O   UNL     1      10.375  -1.717   0.655  0.00  0.00    -0.453 OA
ATOM     35  C   UNL     1      11.229  -1.454   1.784  0.00  0.00    +0.466 C 
ATOM     36  O   UNL     1      10.307  -1.272   2.876  0.00  0.00    -0.453 OA
ENDBRANCH  27  28
ENDBRANCH  24  27
ENDBRANCH  23  24
ENDBRANCH  22  23
ENDBRANCH  21  22
ENDBRANCH   3  21
TORSDOF 9
