REMARK  Name = ZINC22202251
REMARK  11 active torsions:
REMARK  status: ('A' for Active; 'I' for Inactive)
REMARK    1  A    between atoms: C_1  and  C_2
REMARK    2  A    between atoms: C_2  and  C_3
REMARK    3  A    between atoms: C_2  and  N_4
REMARK    4  A    between atoms: N_4  and  C_5
REMARK    5  A    between atoms: N_4  and  C_28
REMARK    6  A    between atoms: C_5  and  C_6
REMARK    7  A    between atoms: C_6  and  N_7
REMARK    8  A    between atoms: C_17  and  S_18
REMARK    9  A    between atoms: S_18  and  C_19
REMARK   10  A    between atoms: C_28  and  C_29
REMARK   11  A    between atoms: C_28  and  C_30
REMARK                            x       y       z     vdW  Elec       q    Type
REMARK                         _______ _______ _______ _____ _____    ______ ____
ROOT
ATOM      1  N   UNL     1      -2.786   4.660   0.113  0.00  0.00    -0.289 N 
ATOM      2  C   UNL     1      -1.811   5.550  -0.185  0.00  0.00    +0.262 A 
ATOM      3  O   UNL     1      -2.077   6.686  -0.532  0.00  0.00    -0.267 OA
ATOM      4  C   UNL     1      -0.419   5.093  -0.076  0.00  0.00    +0.065 A 
ATOM      5  C   UNL     1       0.657   5.933  -0.361  0.00  0.00    +0.015 A 
ATOM      6  C   UNL     1       1.933   5.456  -0.242  0.00  0.00    +0.001 A 
ATOM      7  C   UNL     1       2.168   4.147   0.158  0.00  0.00    +0.002 A 
ATOM      8  C   UNL     1       1.133   3.303   0.444  0.00  0.00    +0.028 A 
ATOM      9  C   UNL     1      -0.184   3.758   0.328  0.00  0.00    +0.079 A 
ATOM     10  N   UNL     1      -1.235   2.961   0.605  0.00  0.00    -0.223 NA
ATOM     11  C   UNL     1      -2.469   3.389   0.500  0.00  0.00    +0.173 A 
ENDROOT
BRANCH   1  12
ATOM     12  C   UNL     1      -4.191   5.062   0.021  0.00  0.00    +0.109 C 
BRANCH  12  13
ATOM     13  C   UNL     1      -4.713   4.775  -1.389  0.00  0.00    -0.056 C 
BRANCH  13  14
ATOM     14  N   UNL     1      -6.106   5.227  -1.498  0.00  0.00    +0.384 N 
ATOM     15  H   UNL     1      -6.156   6.261  -1.124  0.00  0.00    -0.081 HD
BRANCH  14  17
ATOM     16  C   UNL     1      -7.887   5.969  -3.006  0.00  0.00    -0.014 C 
ATOM     17  C   UNL     1      -6.551   5.231  -2.898  0.00  0.00    -0.074 C 
ATOM     18  C   UNL     1      -5.506   5.938  -3.763  0.00  0.00    -0.014 C 
ENDBRANCH  14  17
BRANCH  14  19
ATOM     19  C   UNL     1      -6.993   4.403  -0.666  0.00  0.00    -0.074 C 
ATOM     20  C   UNL     1      -8.260   5.194  -0.333  0.00  0.00    -0.014 C 
ATOM     21  C   UNL     1      -7.371   3.131  -1.427  0.00  0.00    -0.014 C 
ENDBRANCH  14  19
ENDBRANCH  13  14
ENDBRANCH  12  13
ENDBRANCH   1  12
BRANCH  11  22
ATOM     22  S   UNL     1      -3.780   2.273   0.876  0.00  0.00    -0.075 S 
BRANCH  22  23
ATOM     23  C   UNL     1      -2.823   0.799   1.311  0.00  0.00    +0.140 C 
ATOM     24  C   UNL     1      -3.774  -0.367   1.589  0.00  0.00    +0.024 C 
ATOM     25  C   UNL     1      -5.052   0.125   2.245  0.00  0.00    +0.003 C 
ATOM     26  C   UNL     1      -4.847   0.678   3.644  0.00  0.00    +0.019 C 
ATOM     27  C   UNL     1      -4.024   1.967   3.606  0.00  0.00    +0.104 C 
ATOM     28  N   UNL     1      -2.595   1.614   3.632  0.00  0.00    -0.314 N 
ATOM     29  C   UNL     1      -2.015   1.069   2.562  0.00  0.00    +0.226 C 
ATOM     30  O   UNL     1      -0.835   0.787   2.592  0.00  0.00    -0.275 OA
ATOM     31  H   UNL     1      -1.999   1.800   4.538  0.00  0.00    +0.149 HD
ENDBRANCH  22  23
ENDBRANCH  11  22
TORSDOF 7
