REMARK  Name = ZINC13096346
REMARK  9 active torsions:
REMARK  status: ('A' for Active; 'I' for Inactive)
REMARK    1  A    between atoms: C_1  and  C_2
REMARK    2  A    between atoms: C_2  and  C_3
REMARK    3  A    between atoms: C_10  and  C_15
REMARK    4  A    between atoms: C_15  and  N_16
REMARK    5  A    between atoms: C_19  and  C_23
REMARK    6  A    between atoms: C_19  and  C_27
REMARK    7  A    between atoms: C_23  and  C_24
REMARK    8  A    between atoms: C_24  and  C_25
REMARK    9  A    between atoms: C_24  and  C_26
REMARK                            x       y       z     vdW  Elec       q    Type
REMARK                         _______ _______ _______ _____ _____    ______ ____
ROOT
ATOM      1  N   UNL     1       0.726   6.016   1.817  0.00  0.00    -0.220 N 
ATOM      2  C   UNL     1      -0.369   5.307   1.479  0.00  0.00    +0.251 C 
ATOM      3  O   UNL     1      -1.263   4.945   2.214  0.00  0.00    -0.272 OA
ATOM      4  C   UNL     1      -0.250   5.054  -0.011  0.00  0.00    +0.138 C 
ATOM      5  N   UNL     1       1.017   5.712  -0.374  0.00  0.00    -0.281 N 
ATOM      6  C   UNL     1       1.512   6.245   0.758  0.00  0.00    +0.310 C 
ATOM      7  O   UNL     1       2.556   6.864   0.814  0.00  0.00    -0.252 OA
ATOM      8  H   UNL     1       1.417   5.753  -1.256  0.00  0.00    +0.152 HD
ENDROOT
BRANCH   4   9
ATOM      9  C   UNL     1      -0.179   3.575  -0.294  0.00  0.00    -0.015 A 
ATOM     10  C   UNL     1       1.045   2.935  -0.321  0.00  0.00    +0.006 A 
ATOM     11  C   UNL     1       1.110   1.578  -0.579  0.00  0.00    +0.000 A 
ATOM     12  C   UNL     1      -0.050   0.863  -0.810  0.00  0.00    +0.000 A 
ATOM     13  C   UNL     1      -1.274   1.504  -0.789  0.00  0.00    +0.000 A 
ATOM     14  C   UNL     1      -1.339   2.860  -0.526  0.00  0.00    +0.006 A 
ENDBRANCH   4   9
BRANCH   1  15
ATOM     15  C   UNL     1       1.019   6.480   3.175  0.00  0.00    +0.154 C 
BRANCH  15  23
ATOM     16  C   UNL     1       2.853   5.873   7.988  0.00  0.00    -0.026 A 
ATOM     17  C   UNL     1       3.201   4.721   7.316  0.00  0.00    +0.052 A 
ATOM     18  C   UNL     1       2.852   4.564   5.981  0.00  0.00    +0.140 A 
ATOM     19  C   UNL     1       2.143   5.587   5.327  0.00  0.00    +0.024 A 
ATOM     20  C   UNL     1       1.796   6.750   6.021  0.00  0.00    +0.032 A 
ATOM     21  C   UNL     1       2.154   6.885   7.345  0.00  0.00    +0.045 A 
ATOM     22 CL   UNL     1       1.727   8.327   8.212  0.00  0.00    -0.083 Cl
ATOM     23  C   UNL     1       1.779   5.411   3.917  0.00  0.00    -0.012 A 
ATOM     24  C   UNL     1       2.140   4.257   3.301  0.00  0.00    +0.098 A 
ATOM     25  C   UNL     1       2.856   3.274   4.018  0.00  0.00    +0.338 A 
ATOM     26  O   UNL     1       3.179   2.245   3.452  0.00  0.00    -0.245 OA
ATOM     27  O   UNL     1       3.186   3.442   5.308  0.00  0.00    -0.422 OA
BRANCH  16  29
ATOM     28  C   UNL     1       4.483   6.916   9.539  0.00  0.00    +0.009 C 
ATOM     29  C   UNL     1       3.236   6.036   9.437  0.00  0.00    +0.033 C 
ENDBRANCH  16  29
ENDBRANCH  15  23
ENDBRANCH   1  15
BRANCH   4  30
ATOM     30  C   UNL     1      -1.423   5.688  -0.760  0.00  0.00    +0.043 C 
BRANCH  30  31
ATOM     31  C   UNL     1      -1.373   7.208  -0.594  0.00  0.00    -0.014 C 
ATOM     32  C   UNL     1      -2.424   7.855  -1.498  0.00  0.00    +0.007 C 
ATOM     33  C   UNL     1      -1.661   7.572   0.864  0.00  0.00    +0.007 C 
ENDBRANCH  30  31
ENDBRANCH   4  30
TORSDOF 6
