REMARK  Name = ZINC40075963
REMARK  18 active torsions:
REMARK  status: ('A' for Active; 'I' for Inactive)
REMARK    1  A    between atoms: C_1  and  C_2
REMARK    2  A    between atoms: C_2  and  O_3
REMARK    3  A    between atoms: O_3  and  C_4
REMARK    4  A    between atoms: C_6  and  C_16
REMARK    5  A    between atoms: C_9  and  O_10
REMARK    6  A    between atoms: O_10  and  C_11
REMARK    7  A    between atoms: C_11  and  C_12
REMARK    8  A    between atoms: C_12  and  C_13
REMARK    9  A    between atoms: C_13  and  C_14
REMARK   10  A    between atoms: C_13  and  C_15
REMARK   11  A    between atoms: C_18  and  C_30
REMARK   12  A    between atoms: N_22  and  C_23
REMARK   13  A    between atoms: C_23  and  C_24
REMARK   14  A    between atoms: C_24  and  O_25
REMARK   15  A    between atoms: O_25  and  C_26
REMARK   16  A    between atoms: C_26  and  C_27
REMARK   17  A    between atoms: C_27  and  O_28
REMARK   18  A    between atoms: C_30  and  C_32
REMARK                            x       y       z     vdW  Elec       q    Type
REMARK                         _______ _______ _______ _____ _____    ______ ____
ROOT
ATOM      1  C   UNL     1       0.582  -4.916  -0.216  0.00  0.00    +0.145 C 
ATOM      2  C   UNL     1       0.725  -5.685   1.076  0.00  0.00    +0.076 C 
ATOM      3  C   UNL     1       0.678  -7.000   0.756  0.00  0.00    +0.249 C 
ATOM      4  C   UNL     1       0.508  -7.137  -0.706  0.00  0.00    +0.288 C 
ATOM      5  O   UNL     1       0.430  -8.192  -1.303  0.00  0.00    -0.266 OA
ATOM      6  N   UNL     1       0.452  -5.920  -1.279  0.00  0.00    -0.281 N 
ATOM      7  O   UNL     1       0.772  -8.024   1.634  0.00  0.00    -0.282 OA
ENDROOT
BRANCH   1  10
ATOM      8  C   UNL     1      -1.655  -1.879   0.003  0.00  0.00    +0.162 A 
ATOM      9  C   UNL     1      -0.524  -2.678  -0.040  0.00  0.00    +0.055 A 
ATOM     10  C   UNL     1      -0.650  -4.049  -0.169  0.00  0.00    -0.019 A 
ATOM     11  C   UNL     1      -1.903  -4.626  -0.255  0.00  0.00    +0.009 A 
ATOM     12  C   UNL     1      -3.036  -3.835  -0.212  0.00  0.00    +0.050 A 
ATOM     13  C   UNL     1      -2.917  -2.461  -0.077  0.00  0.00    +0.162 A 
BRANCH   8  14
ATOM     14  O   UNL     1      -1.533  -0.531   0.130  0.00  0.00    -0.489 OA
BRANCH  14  16
ATOM     15  C   UNL     1      -0.279   1.535   0.129  0.00  0.00    +0.048 C 
ATOM     16  C   UNL     1      -0.209   0.006   0.096  0.00  0.00    +0.226 C 
ENDBRANCH  14  16
ENDBRANCH   8  14
BRANCH  13  17
ATOM     17  O   UNL     1      -4.031  -1.682  -0.030  0.00  0.00    -0.488 OA
BRANCH  17  18
ATOM     18  C   UNL     1      -5.292  -2.347  -0.118  0.00  0.00    +0.229 C 
BRANCH  18  19
ATOM     19  C   UNL     1      -6.419  -1.315  -0.047  0.00  0.00    +0.044 C 
BRANCH  19  20
ATOM     20  C   UNL     1      -7.770  -2.027  -0.142  0.00  0.00    -0.014 C 
ATOM     21  C   UNL     1      -7.962  -2.921   1.085  0.00  0.00    +0.007 C 
ATOM     22  C   UNL     1      -8.892  -0.988  -0.196  0.00  0.00    +0.007 C 
ENDBRANCH  19  20
ENDBRANCH  18  19
ENDBRANCH  17  18
ENDBRANCH  13  17
ENDBRANCH   1  10
BRANCH   2  23
ATOM     23  C   UNL     1       0.885  -5.117   2.418  0.00  0.00    +0.195 C 
ATOM     24  O   UNL     1       0.006  -5.258   3.247  0.00  0.00    -0.287 OA
BRANCH  23  25
ATOM     25  C   UNL     1       2.116  -4.374   2.765  0.00  0.00    +0.022 A 
ATOM     26  C   UNL     1       3.087  -4.133   1.791  0.00  0.00    +0.012 A 
ATOM     27  C   UNL     1       4.232  -3.439   2.121  0.00  0.00    +0.001 A 
ATOM     28  C   UNL     1       4.420  -2.981   3.413  0.00  0.00    +0.000 A 
ATOM     29  C   UNL     1       3.461  -3.216   4.383  0.00  0.00    +0.001 A 
ATOM     30  C   UNL     1       2.309  -3.905   4.066  0.00  0.00    +0.012 A 
ENDBRANCH  23  25
ENDBRANCH   2  23
BRANCH   6  31
ATOM     31  C   UNL     1       0.289  -5.645  -2.709  0.00  0.00    +0.137 C 
BRANCH  31  32
ATOM     32  C   UNL     1       1.666  -5.560  -3.372  0.00  0.00    +0.179 C 
BRANCH  32  33
ATOM     33  O   UNL     1       2.307  -6.835  -3.302  0.00  0.00    -0.376 OA
BRANCH  33  34
ATOM     34  C   UNL     1       3.607  -6.865  -3.896  0.00  0.00    +0.187 C 
BRANCH  34  35
ATOM     35  C   UNL     1       4.196  -8.271  -3.765  0.00  0.00    +0.184 C 
BRANCH  35  36
ATOM     36  O   UNL     1       3.410  -9.189  -4.527  0.00  0.00    -0.393 OA
ATOM     37  H   UNL     1       3.726 -10.102  -4.490  0.00  0.00    +0.209 HD
ENDBRANCH  35  36
ENDBRANCH  34  35
ENDBRANCH  33  34
ENDBRANCH  32  33
ENDBRANCH  31  32
ENDBRANCH   6  31
TORSDOF 15
