REMARK  Name = ZINC47612450
REMARK  7 active torsions:
REMARK  status: ('A' for Active; 'I' for Inactive)
REMARK    1  A    between atoms: C_1  and  N_2
REMARK    2  A    between atoms: N_2  and  C_3
REMARK    3  A    between atoms: C_6  and  C_10
REMARK    4  A    between atoms: C_10  and  N_11
REMARK    5  A    between atoms: N_14  and  N_15
REMARK    6  A    between atoms: C_16  and  C_18
REMARK    7  A    between atoms: C_18  and  C_19
REMARK                            x       y       z     vdW  Elec       q    Type
REMARK                         _______ _______ _______ _____ _____    ______ ____
ROOT
ATOM      1  N   UNL     1      -2.372  -4.799   1.393  0.00  0.00    -0.294 N 
ATOM      2  C   UNL     1      -2.383  -6.125   1.637  0.00  0.00    +0.316 C 
ATOM      3  O   UNL     1      -2.398  -6.913   0.712  0.00  0.00    -0.251 OA
ATOM      4  N   UNL     1      -2.378  -6.576   2.908  0.00  0.00    -0.218 N 
ATOM      5  H   UNL     1      -2.360  -4.170   2.131  0.00  0.00    +0.151 HD
ATOM      6  H   UNL     1      -2.387  -7.530   3.083  0.00  0.00    +0.174 HD
ENDROOT
BRANCH   4   7
ATOM      7  N   UNL     1      -2.361  -5.667   3.974  0.00  0.00    -0.233 N 
ATOM      8  C   UNL     1      -2.357  -6.118   5.244  0.00  0.00    +0.233 C 
ATOM      9  O   UNL     1      -2.367  -7.311   5.463  0.00  0.00    -0.274 OA
ATOM     10  H   UNL     1      -2.353  -4.713   3.798  0.00  0.00    +0.173 HD
BRANCH   8  11
ATOM     11  C   UNL     1      -2.338  -5.141   6.391  0.00  0.00    +0.132 C 
BRANCH  11  12
ATOM     12  C   UNL     1      -2.337  -5.897   7.694  0.00  0.00    -0.038 A 
ATOM     13  C   UNL     1      -3.533  -6.236   8.298  0.00  0.00    +0.007 A 
ATOM     14  C   UNL     1      -3.533  -6.929   9.493  0.00  0.00    +0.038 A 
ATOM     15  C   UNL     1      -2.333  -7.284  10.087  0.00  0.00    +0.123 A 
ATOM     16  C   UNL     1      -1.135  -6.944   9.482  0.00  0.00    +0.038 A 
ATOM     17  C   UNL     1      -1.138  -6.255   8.283  0.00  0.00    +0.007 A 
ATOM     18  F   UNL     1      -2.331  -7.961  11.256  0.00  0.00    -0.205 F 
ENDBRANCH  11  12
ENDBRANCH   8  11
ENDBRANCH   4   7
BRANCH   1  19
ATOM     19  C   UNL     1      -2.377  -4.309   0.013  0.00  0.00    +0.141 C 
BRANCH  19  25
ATOM     20  C   UNL     1      -0.018   1.461   0.010  0.00  0.00    +0.130 C 
ATOM     21  N   UNL     1       0.002  -0.004   0.002  0.00  0.00    -0.323 N 
ATOM     22  C   UNL     1       1.281  -0.719  -0.014  0.00  0.00    +0.130 C 
ATOM     23  C   UNL     1      -1.192  -0.715   0.010  0.00  0.00    +0.098 A 
ATOM     24  C   UNL     1      -1.166  -2.107   0.008  0.00  0.00    +0.047 A 
ATOM     25  C   UNL     1      -2.362  -2.802   0.015  0.00  0.00    -0.026 A 
ATOM     26  C   UNL     1      -3.548  -2.080   0.025  0.00  0.00    +0.023 A 
ATOM     27  C   UNL     1      -3.500  -0.700   0.026  0.00  0.00    +0.084 A 
ATOM     28  N   UNL     1      -2.344  -0.063   0.024  0.00  0.00    -0.350 N 
ATOM     29  H   UNL     1      -2.339   0.907   0.029  0.00  0.00    +0.166 HD
ENDBRANCH  19  25
ENDBRANCH   1  19
TORSDOF 5
