REMARK  Name = ZINC25155898
REMARK  8 active torsions:
REMARK  status: ('A' for Active; 'I' for Inactive)
REMARK    1  A    between atoms: C_1  and  C_2
REMARK    2  A    between atoms: C_8  and  C_29
REMARK    3  A    between atoms: C_12  and  C_13
REMARK    4  A    between atoms: N_15  and  C_16
REMARK    5  A    between atoms: C_16  and  C_17
REMARK    6  A    between atoms: C_17  and  C_19
REMARK    7  A    between atoms: C_17  and  N_24
REMARK    8  A    between atoms: C_29  and  C_30
REMARK                            x       y       z     vdW  Elec       q    Type
REMARK                         _______ _______ _______ _____ _____    ______ ____
ROOT
ATOM      1  C   UNL     1       0.805   1.466   0.051  0.00  0.00    +0.046 C 
ATOM      2  C   UNL     1       0.656  -0.034   0.035  0.00  0.00    -0.017 A 
ATOM      3  C   UNL     1       0.729  -0.731  -1.173  0.00  0.00    +0.076 A 
ATOM      4  C   UNL     1       0.942  -0.210  -2.543  0.00  0.00    +0.260 A 
ATOM      5  O   UNL     1       1.086   0.983  -2.743  0.00  0.00    -0.267 OA
ATOM      6  N   UNL     1       0.975  -1.091  -3.562  0.00  0.00    -0.310 N 
ATOM      7  H   UNL     1       1.114  -0.766  -4.466  0.00  0.00    +0.170 HD
ATOM      8  C   UNL     1       0.817  -2.421  -3.352  0.00  0.00    +0.115 A 
ATOM      9  N   UNL     1       0.627  -2.912  -2.158  0.00  0.00    -0.226 NA
ATOM     10  C   UNL     1       0.578  -2.134  -1.084  0.00  0.00    +0.116 A 
ATOM     11  S   UNL     1       0.345  -2.409   0.654  0.00  0.00    -0.064 S 
ATOM     12  C   UNL     1       0.457  -0.714   1.200  0.00  0.00    +0.079 A 
ENDROOT
BRANCH  12  13
ATOM     13  C   UNL     1       0.356  -0.183   2.564  0.00  0.00    +0.251 C 
ATOM     14  O   UNL     1       0.455   1.014   2.760  0.00  0.00    -0.270 OA
ATOM     15  N   UNL     1       0.155  -1.022   3.600  0.00  0.00    -0.312 N 
ATOM     16  H   UNL     1       0.077  -1.976   3.444  0.00  0.00    +0.149 HD
BRANCH  15  17
ATOM     17  C   UNL     1       0.055  -0.492   4.962  0.00  0.00    +0.094 C 
BRANCH  17  18
ATOM     18  C   UNL     1      -0.042  -1.652   5.955  0.00  0.00    -0.013 C 
BRANCH  18  19
ATOM     19  N   UNL     1      -0.275  -1.123   7.305  0.00  0.00    +0.386 N 
ATOM     20  C   UNL     1      -0.274  -2.233   8.281  0.00  0.00    -0.078 C 
ATOM     21  C   UNL     1      -1.348  -1.841   9.327  0.00  0.00    -0.020 C 
ATOM     22  C   UNL     1      -2.427  -1.174   8.433  0.00  0.00    -0.020 C 
ATOM     23  C   UNL     1      -1.589  -0.454   7.356  0.00  0.00    -0.078 C 
ATOM     24  H   UNL     1       0.450  -0.463   7.542  0.00  0.00    -0.081 HD
ENDBRANCH  18  19
BRANCH  18  25
ATOM     25  C   UNL     1       1.245  -2.436   5.938  0.00  0.00    -0.022 A 
ATOM     26  C   UNL     1       1.528  -3.599   5.303  0.00  0.00    +0.009 A 
ATOM     27  C   UNL     1       2.793  -4.142   5.430  0.00  0.00    +0.008 A 
ATOM     28  C   UNL     1       3.712  -3.496   6.187  0.00  0.00    +0.045 A 
ATOM     29  S   UNL     1       2.795  -2.069   6.744  0.00  0.00    -0.103 S 
ENDBRANCH  18  25
ENDBRANCH  17  18
ENDBRANCH  15  17
ENDBRANCH  12  13
BRANCH   8  30
ATOM     30  C   UNL     1       0.862  -3.358  -4.530  0.00  0.00    +0.109 C 
BRANCH  30  31
ATOM     31  C   UNL     1       0.665  -4.774  -4.054  0.00  0.00    -0.040 A 
ATOM     32  C   UNL     1       1.757  -5.540  -3.690  0.00  0.00    +0.004 A 
ATOM     33  C   UNL     1       1.576  -6.839  -3.253  0.00  0.00    +0.000 A 
ATOM     34  C   UNL     1       0.303  -7.372  -3.179  0.00  0.00    +0.000 A 
ATOM     35  C   UNL     1      -0.789  -6.606  -3.541  0.00  0.00    +0.000 A 
ATOM     36  C   UNL     1      -0.609  -5.306  -3.974  0.00  0.00    +0.004 A 
ENDBRANCH  30  31
ENDBRANCH   8  30
TORSDOF 7
