REMARK  Name = ZINC40475528
REMARK  6 active torsions:
REMARK  status: ('A' for Active; 'I' for Inactive)
REMARK    1  A    between atoms: C_1  and  O_2
REMARK    2  A    between atoms: O_2  and  C_3
REMARK    3  A    between atoms: C_5  and  C_10
REMARK    4  A    between atoms: C_8  and  O_9
REMARK    5  A    between atoms: N_25  and  C_28
REMARK    6  A    between atoms: C_31  and  N_34
REMARK                            x       y       z     vdW  Elec       q    Type
REMARK                         _______ _______ _______ _____ _____    ______ ____
ROOT
ATOM      1  C   UNL     1       2.403   0.379  -4.230  0.00  0.00    +0.072 C 
ATOM      2  C   UNL     1       3.866   0.069  -4.339  0.00  0.00    +0.032 A 
ATOM      3  C   UNL     1       4.645  -0.074  -5.453  0.00  0.00    +0.110 A 
ATOM      4  N   UNL     1       5.918  -0.380  -5.212  0.00  0.00    -0.225 NA
ATOM      5  C   UNL     1       6.380  -0.511  -3.987  0.00  0.00    +0.147 A 
ATOM      6  S   UNL     1       8.019  -0.905  -3.473  0.00  0.00    -0.023 SA
ATOM      7  S   UNL     1       5.027  -0.212  -3.029  0.00  0.00    -0.063 S 
ATOM      8  S   UNL     1       3.958   0.159  -7.086  0.00  0.00    -0.091 S 
ATOM      9  C   UNL     1       2.382   0.945  -6.658  0.00  0.00    +0.152 C 
ATOM     10  C   UNL     1       1.746   0.054  -5.549  0.00  0.00    +0.110 C 
ATOM     11  C   UNL     1       0.296   0.375  -5.738  0.00  0.00    +0.232 C 
ATOM     12  O   UNL     1      -0.567   0.375  -4.887  0.00  0.00    -0.274 OA
ATOM     13  N   UNL     1       0.143   0.666  -7.056  0.00  0.00    -0.209 N 
ATOM     14  C   UNL     1       1.327   0.860  -7.726  0.00  0.00    +0.240 C 
ATOM     15  O   UNL     1       1.497   0.935  -8.924  0.00  0.00    -0.274 OA
ENDROOT
BRANCH   1  18
ATOM     16  C   UNL     1       0.606  -0.608  -1.056  0.00  0.00    +0.162 A 
ATOM     17  C   UNL     1       1.173   0.159  -2.062  0.00  0.00    +0.053 A 
ATOM     18  C   UNL     1       1.787  -0.456  -3.137  0.00  0.00    -0.035 A 
ATOM     19  C   UNL     1       1.837  -1.836  -3.212  0.00  0.00    +0.008 A 
ATOM     20  C   UNL     1       1.273  -2.606  -2.212  0.00  0.00    +0.049 A 
ATOM     21  C   UNL     1       0.662  -1.996  -1.129  0.00  0.00    +0.158 A 
BRANCH  16  23
ATOM     22  C   UNL     1      -0.017   1.425   0.010  0.00  0.00    +0.277 C 
ATOM     23  O   UNL     1       0.002  -0.004   0.002  0.00  0.00    -0.491 OA
ENDBRANCH  16  23
BRANCH  21  24
ATOM     24  O   UNL     1       0.112  -2.753  -0.142  0.00  0.00    -0.503 OA
ATOM     25  H   UNL     1      -0.816  -2.979  -0.291  0.00  0.00    +0.292 HD
ENDBRANCH  21  24
ENDBRANCH   1  18
BRANCH  13  26
ATOM     26  C   UNL     1      -1.109   0.778  -7.677  0.00  0.00    +0.044 A 
ATOM     27  C   UNL     1      -2.270   0.594  -6.939  0.00  0.00    +0.026 A 
ATOM     28  C   UNL     1      -3.502   0.706  -7.553  0.00  0.00    +0.034 A 
ATOM     29  C   UNL     1      -3.580   1.000  -8.902  0.00  0.00    +0.126 A 
ATOM     30  C   UNL     1      -2.425   1.183  -9.640  0.00  0.00    +0.034 A 
ATOM     31  C   UNL     1      -1.190   1.078  -9.030  0.00  0.00    +0.026 A 
BRANCH  29  32
ATOM     32  N   UNL     1      -4.902   1.119  -9.557  0.00  0.00    +0.056 N 
ATOM     33  O   UNL     1      -5.912   0.958  -8.913  0.00  0.00    -0.126 OA
ATOM     34  O   UNL     1      -4.971   1.375 -10.737  0.00  0.00    -0.126 OA
ENDBRANCH  29  32
ENDBRANCH  13  26
TORSDOF 5
