REMARK  Name = ZINC39490838
REMARK  11 active torsions:
REMARK  status: ('A' for Active; 'I' for Inactive)
REMARK    1  A    between atoms: C_1  and  C_2
REMARK    2  A    between atoms: C_2  and  O_3
REMARK    3  A    between atoms: O_3  and  N_4
REMARK    4  A    between atoms: C_7  and  C_10
REMARK    5  A    between atoms: C_7  and  C_29
REMARK    6  A    between atoms: C_10  and  N_11
REMARK    7  A    between atoms: N_14  and  O_28
REMARK    8  A    between atoms: C_16  and  C_17
REMARK    9  A    between atoms: C_16  and  S_18
REMARK   10  A    between atoms: S_18  and  O_21
REMARK   11  A    between atoms: O_21  and  C_22
REMARK                            x       y       z     vdW  Elec       q    Type
REMARK                         _______ _______ _______ _____ _____    ______ ____
ROOT
ATOM      1  N   UNL     1       2.273  -3.387  -3.994  0.00  0.00    -0.255 N 
ATOM      2  C   UNL     1       1.069  -3.186  -4.547  0.00  0.00    +0.329 C 
ATOM      3  O   UNL     1       0.312  -4.093  -4.835  0.00  0.00    -0.250 OA
ATOM      4  N   UNL     1       0.775  -1.896  -4.754  0.00  0.00    -0.164 N 
ATOM      5  C   UNL     1       1.899  -1.065  -4.296  0.00  0.00    +0.194 C 
ATOM      6  C   UNL     1       2.924  -2.088  -3.769  0.00  0.00    +0.209 C 
ATOM      7  C   UNL     1       4.228  -1.996  -4.564  0.00  0.00    +0.063 C 
ENDROOT
BRANCH   6   8
ATOM      8  S   UNL     1       3.235  -1.830  -2.001  0.00  0.00    +0.145 S 
ATOM      9  O   UNL     1       4.367  -0.991  -1.821  0.00  0.00    -0.135 OA
ATOM     10  O   UNL     1       2.016  -1.557  -1.324  0.00  0.00    -0.135 OA
BRANCH   8  11
ATOM     11  O   UNL     1       3.673  -3.191  -1.478  0.00  0.00    -0.345 OA
BRANCH  11  12
ATOM     12  C   UNL     1       4.953  -3.519  -1.796  0.00  0.00    +0.156 A 
ATOM     13  C   UNL     1       5.284  -3.835  -3.106  0.00  0.00    +0.048 A 
ATOM     14  C   UNL     1       6.586  -4.168  -3.427  0.00  0.00    +0.004 A 
ATOM     15  C   UNL     1       7.558  -4.188  -2.445  0.00  0.00    +0.000 A 
ATOM     16  C   UNL     1       7.231  -3.874  -1.138  0.00  0.00    +0.004 A 
ATOM     17  C   UNL     1       5.932  -3.534  -0.813  0.00  0.00    +0.048 A 
ENDBRANCH  11  12
ENDBRANCH   8  11
ENDBRANCH   6   8
BRANCH   4  18
ATOM     18  O   UNL     1      -0.426  -1.409  -5.323  0.00  0.00    -0.291 OA
ATOM     19  H   UNL     1      -1.056  -2.102  -5.565  0.00  0.00    +0.242 HD
ENDBRANCH   4  18
BRANCH   1  20
ATOM     20  C   UNL     1       2.846  -4.694  -3.661  0.00  0.00    +0.119 C 
BRANCH  20  24
ATOM     21  N   UNL     1       0.240  -3.164  -1.853  0.00  0.00    -0.188 NA
ATOM     22  C   UNL     1       0.040  -4.052  -3.005  0.00  0.00    +0.115 C 
ATOM     23  C   UNL     1       0.653  -5.422  -2.707  0.00  0.00    +0.026 C 
ATOM     24  C   UNL     1       2.148  -5.256  -2.421  0.00  0.00    -0.008 C 
ATOM     25  C   UNL     1       2.331  -4.288  -1.248  0.00  0.00    +0.026 C 
ATOM     26  C   UNL     1       1.669  -2.951  -1.589  0.00  0.00    +0.115 C 
BRANCH  24  27
ATOM     27  C   UNL     1       2.755  -6.614  -2.063  0.00  0.00    -0.003 C 
ATOM     28  C   UNL     1       2.565  -7.582  -3.232  0.00  0.00    +0.004 C 
ATOM     29  C   UNL     1       3.171  -8.940  -2.874  0.00  0.00    +0.000 C 
ATOM     30  C   UNL     1       2.475  -9.498  -1.631  0.00  0.00    +0.000 C 
ATOM     31  C   UNL     1       2.665  -8.530  -0.462  0.00  0.00    +0.000 C 
ATOM     32  C   UNL     1       2.058  -7.172  -0.820  0.00  0.00    +0.004 C 
ENDBRANCH  24  27
BRANCH  21  33
ATOM     33  O   UNL     1      -0.452  -1.890  -2.046  0.00  0.00    -0.297 OA
BRANCH  33  35
ATOM     34  C   UNL     1      -2.153  -0.298  -1.403  0.00  0.00    +0.036 C 
ATOM     35  C   UNL     1      -1.502  -1.651  -1.107  0.00  0.00    +0.182 C 
ENDBRANCH  33  35
ENDBRANCH  21  33
ENDBRANCH  20  24
ENDBRANCH   1  20
TORSDOF 9
