REMARK  Name = ZINC34829843
REMARK  6 active torsions:
REMARK  status: ('A' for Active; 'I' for Inactive)
REMARK    1  A    between atoms: C_1  and  C_2
REMARK    2  A    between atoms: C_7  and  C_8
REMARK    3  A    between atoms: N_17  and  C_18
REMARK    4  A    between atoms: C_18  and  C_19
REMARK    5  A    between atoms: C_25  and  C_28
REMARK    6  A    between atoms: C_29  and  C_31
REMARK                            x       y       z     vdW  Elec       q    Type
REMARK                         _______ _______ _______ _____ _____    ______ ____
ROOT
ATOM      1  C   UNL     1       3.425  -0.975   4.573  0.00  0.00    +0.199 C 
ATOM      2  O   UNL     1       2.848  -1.149   5.625  0.00  0.00    -0.278 OA
ATOM      3  N   UNL     1       4.582  -1.620   4.324  0.00  0.00    -0.300 N 
ATOM      4  C   UNL     1       5.295  -1.414   3.056  0.00  0.00    +0.126 C 
ATOM      5  C   UNL     1       5.513  -2.778   2.389  0.00  0.00    +0.127 C 
ATOM      6  N   UNL     1       6.083  -3.700   3.380  0.00  0.00    -0.292 N 
ATOM      7  C   UNL     1       5.369  -3.907   4.648  0.00  0.00    +0.091 C 
ATOM      8  C   UNL     1       5.155  -2.539   5.318  0.00  0.00    +0.130 C 
ATOM      9  C   UNL     1       4.018  -4.570   4.375  0.00  0.00    +0.029 C 
ATOM     10  C   UNL     1       7.240  -4.346   3.131  0.00  0.00    +0.247 C 
ATOM     11  O   UNL     1       7.785  -4.222   2.051  0.00  0.00    -0.270 OA
ENDROOT
BRANCH  10  12
ATOM     12  C   UNL     1       7.845  -5.203   4.170  0.00  0.00    +0.041 A 
ATOM     13  C   UNL     1       7.081  -6.192   4.794  0.00  0.00    +0.017 A 
ATOM     14  C   UNL     1       7.648  -6.992   5.762  0.00  0.00    +0.050 A 
ATOM     15  C   UNL     1       8.978  -6.818   6.121  0.00  0.00    +0.166 A 
ATOM     16  C   UNL     1       9.746  -5.831   5.502  0.00  0.00    +0.167 A 
ATOM     17  C   UNL     1       9.185  -5.030   4.527  0.00  0.00    +0.062 A 
ATOM     18  O   UNL     1      11.005  -5.865   6.028  0.00  0.00    -0.453 OA
ATOM     19  C   UNL     1      10.887  -6.605   7.258  0.00  0.00    +0.466 C 
ATOM     20  O   UNL     1       9.758  -7.468   7.032  0.00  0.00    -0.453 OA
ENDBRANCH  10  12
BRANCH   1  21
ATOM     21  C   UNL     1       2.849  -0.036   3.544  0.00  0.00    +0.020 C 
BRANCH  21  30
ATOM     22  C   UNL     1       0.979   1.355   3.000  0.00  0.00    -0.005 C 
ATOM     23  C   UNL     1      -0.267   2.029   3.567  0.00  0.00    -0.047 A 
ATOM     24  C   UNL     1      -1.295   2.550   2.786  0.00  0.00    +0.010 A 
ATOM     25  C   UNL     1      -2.367   3.129   3.376  0.00  0.00    +0.045 A 
ATOM     26  S   UNL     1      -1.967   2.965   5.110  0.00  0.00    -0.101 S 
ATOM     27  C   UNL     1      -0.412   2.143   4.918  0.00  0.00    -0.010 A 
ATOM     28  C   UNL     1       0.552   1.670   5.956  0.00  0.00    +0.024 C 
ATOM     29  C   UNL     1       1.878   1.347   5.245  0.00  0.00    -0.072 C 
ATOM     30  N   UNL     1       1.595   0.537   4.051  0.00  0.00    +0.393 N 
ATOM     31  H   UNL     1       0.966  -0.211   4.301  0.00  0.00    -0.080 HD
BRANCH  22  38
ATOM     32  C   UNL     1       0.743   2.488   0.353  0.00  0.00    +0.044 C 
ATOM     33  C   UNL     1       0.481   1.020   0.571  0.00  0.00    -0.049 A 
ATOM     34  C   UNL     1       0.134   0.214  -0.498  0.00  0.00    +0.003 A 
ATOM     35  C   UNL     1      -0.106  -1.132  -0.298  0.00  0.00    +0.000 A 
ATOM     36  C   UNL     1       0.001  -1.673   0.969  0.00  0.00    +0.000 A 
ATOM     37  C   UNL     1       0.350  -0.868   2.037  0.00  0.00    +0.002 A 
ATOM     38  C   UNL     1       0.594   0.478   1.837  0.00  0.00    -0.054 A 
ENDBRANCH  22  38
ENDBRANCH  21  30
ENDBRANCH   1  21
TORSDOF 4
