REMARK  Name = ZINC20183136
REMARK  8 active torsions:
REMARK  status: ('A' for Active; 'I' for Inactive)
REMARK    1  A    between atoms: C_1  and  C_2
REMARK    2  A    between atoms: C_6  and  N_8
REMARK    3  A    between atoms: N_11  and  C_16
REMARK    4  A    between atoms: C_13  and  C_15
REMARK    5  A    between atoms: C_16  and  N_18
REMARK    6  A    between atoms: N_18  and  C_19
REMARK    7  A    between atoms: C_25  and  C_34
REMARK    8  A    between atoms: C_27  and  N_29
REMARK                            x       y       z     vdW  Elec       q    Type
REMARK                         _______ _______ _______ _____ _____    ______ ____
ROOT
ATOM      1  N   UNL     1      -4.692  -2.715  -2.514  0.00  0.00    -0.297 N 
ATOM      2  H   UNL     1      -3.747  -3.255  -2.675  0.00  0.00    +0.154 HD
ENDROOT
BRANCH   1   3
ATOM      3  C   UNL     1      -5.795  -2.977  -3.336  0.00  0.00    +0.033 A 
ATOM      4  C   UNL     1      -6.950  -2.197  -3.215  0.00  0.00    +0.025 A 
ATOM      5  C   UNL     1      -8.036  -2.429  -3.999  0.00  0.00    +0.028 A 
ATOM      6  C   UNL     1      -8.009  -3.464  -4.949  0.00  0.00    +0.048 A 
ATOM      7  C   UNL     1      -6.842  -4.258  -5.077  0.00  0.00    +0.003 A 
ATOM      8  C   UNL     1      -5.732  -3.997  -4.260  0.00  0.00    +0.033 A 
ATOM      9  C   UNL     1      -6.819  -5.296  -6.030  0.00  0.00    -0.038 A 
ATOM     10  C   UNL     1      -7.928  -5.495  -6.796  0.00  0.00    +0.045 A 
ATOM     11  C   UNL     1      -9.052  -4.676  -6.623  0.00  0.00    +0.099 A 
ATOM     12  N   UNL     1      -9.068  -3.708  -5.730  0.00  0.00    -0.343 N 
ATOM     13  C   UNL     1      -5.598  -6.163  -6.199  0.00  0.00    +0.044 C 
ATOM     14  H   UNL     1      -9.976  -3.093  -5.633  0.00  0.00    +0.167 HD
BRANCH  11  15
ATOM     15  N   UNL     1     -10.175  -4.890  -7.410  0.00  0.00    -0.317 N 
ATOM     16  C   UNL     1     -10.748  -6.238  -7.163  0.00  0.00    +0.106 C 
ATOM     17  C   UNL     1     -12.204  -6.103  -7.677  0.00  0.00    +0.020 C 
ATOM     18  C   UNL     1     -12.587  -4.665  -7.256  0.00  0.00    +0.020 C 
ATOM     19  C   UNL     1     -11.247  -3.928  -7.077  0.00  0.00    +0.106 C 
ENDBRANCH  11  15
ENDBRANCH   1   3
BRANCH   1  20
ATOM     20  C   UNL     1      -4.788  -1.802  -1.528  0.00  0.00    +0.137 C 
ATOM     21  S   UNL     1      -3.983  -0.298  -1.672  0.00  0.00    -0.018 S 
BRANCH  20  25
ATOM     22  N   UNL     1      -6.106  -2.901   2.168  0.00  0.00    -0.324 N 
ATOM     23  C   UNL     1      -5.735  -3.908   1.165  0.00  0.00    +0.124 C 
ATOM     24  C   UNL     1      -6.120  -3.401  -0.229  0.00  0.00    +0.125 C 
ATOM     25  N   UNL     1      -5.517  -2.074  -0.427  0.00  0.00    -0.309 N 
ATOM     26  C   UNL     1      -5.732  -1.051   0.608  0.00  0.00    +0.129 C 
ATOM     27  C   UNL     1      -5.362  -1.650   1.969  0.00  0.00    +0.088 C 
ATOM     28  C   UNL     1      -5.721  -0.660   3.078  0.00  0.00    +0.029 C 
BRANCH  22  34
ATOM     29  C   UNL     1      -3.116  -4.734   5.610  0.00  0.00    +0.044 C 
ATOM     30  C   UNL     1      -4.483  -4.288   5.158  0.00  0.00    -0.049 A 
ATOM     31  C   UNL     1      -5.557  -4.367   6.026  0.00  0.00    +0.003 A 
ATOM     32  C   UNL     1      -6.813  -3.959   5.615  0.00  0.00    +0.002 A 
ATOM     33  C   UNL     1      -6.998  -3.473   4.336  0.00  0.00    +0.023 A 
ATOM     34  C   UNL     1      -5.922  -3.392   3.462  0.00  0.00    +0.030 A 
ATOM     35  C   UNL     1      -4.662  -3.802   3.878  0.00  0.00    +0.026 A 
ENDBRANCH  22  34
ENDBRANCH  20  25
ENDBRANCH   1  20
TORSDOF 5
