REMARK  Name = ZINC20736045
REMARK  7 active torsions:
REMARK  status: ('A' for Active; 'I' for Inactive)
REMARK    1  A    between atoms: C_1  and  C_2
REMARK    2  A    between atoms: C_2  and  C_3
REMARK    3  A    between atoms: C_2  and  C_4
REMARK    4  A    between atoms: C_4  and  O_5
REMARK    5  A    between atoms: O_5  and  C_6
REMARK    6  A    between atoms: C_10  and  C_12
REMARK    7  A    between atoms: C_21  and  O_24
REMARK                            x       y       z     vdW  Elec       q    Type
REMARK                         _______ _______ _______ _____ _____    ______ ____
ROOT
ATOM      1  C   UNL     1      -0.309  -0.259   7.284  0.00  0.00    +0.112 C 
ATOM      2  C   UNL     1      -0.677  -1.532   7.984  0.00  0.00    +0.033 A 
ATOM      3  C   UNL     1      -0.864  -2.704   7.316  0.00  0.00    +0.112 A 
ATOM      4  N   UNL     1      -1.194  -3.652   8.212  0.00  0.00    -0.282 N 
ATOM      5  H   UNL     1      -1.385  -4.582   8.015  0.00  0.00    +0.188 HD
ATOM      6  N   UNL     1      -1.212  -3.061   9.476  0.00  0.00    -0.154 NA
ATOM      7  C   UNL     1      -0.893  -1.772   9.347  0.00  0.00    +0.182 A 
ATOM      8  N   UNL     1      -0.816  -0.958  10.424  0.00  0.00    -0.195 NA
ATOM      9  C   UNL     1      -0.553   0.248  10.626  0.00  0.00    +0.199 C 
ATOM     10  C   UNL     1      -0.256   1.332   9.669  0.00  0.00    +0.165 C 
ATOM     11  S   UNL     1       0.750   0.797   8.279  0.00  0.00    -0.138 S 
ENDROOT
BRANCH   1  16
ATOM     12  C   UNL     1       0.535  -0.527   3.610  0.00  0.00    +0.121 A 
ATOM     13  C   UNL     1       1.732  -1.226   3.654  0.00  0.00    +0.045 A 
ATOM     14  C   UNL     1       2.263  -1.609   4.870  0.00  0.00    +0.004 A 
ATOM     15  C   UNL     1       1.603  -1.295   6.043  0.00  0.00    +0.005 A 
ATOM     16  C   UNL     1       0.409  -0.599   6.003  0.00  0.00    -0.026 A 
ATOM     17  C   UNL     1      -0.124  -0.209   4.789  0.00  0.00    +0.050 A 
BRANCH  12  18
ATOM     18  O   UNL     1       0.010  -0.149   2.414  0.00  0.00    -0.492 OA
BRANCH  18  19
ATOM     19  C   UNL     1       0.742  -0.511   1.242  0.00  0.00    +0.232 C 
BRANCH  19  21
ATOM     20  C   UNL     1      -0.019   1.526   0.010  0.00  0.00    +0.010 C 
ATOM     21  C   UNL     1       0.002  -0.004   0.002  0.00  0.00    +0.020 C 
ATOM     22  C   UNL     1       0.718  -0.497  -1.257  0.00  0.00    +0.010 C 
ENDBRANCH  19  21
ENDBRANCH  18  19
ENDBRANCH  12  18
ENDBRANCH   1  16
BRANCH   9  23
ATOM     23  O   UNL     1      -0.541   0.616  11.924  0.00  0.00    -0.495 OA
ATOM     24  H   UNL     1      -0.738  -0.104  12.539  0.00  0.00    +0.293 HD
ENDBRANCH   9  23
TORSDOF 5
