REMARK  Name = ZINC38065053
REMARK  7 active torsions:
REMARK  status: ('A' for Active; 'I' for Inactive)
REMARK    1  A    between atoms: C_1  and  C_2
REMARK    2  A    between atoms: C_2  and  C_3
REMARK    3  A    between atoms: C_3  and  C_5
REMARK    4  A    between atoms: C_3  and  N_6
REMARK    5  A    between atoms: N_6  and  C_7
REMARK    6  A    between atoms: C_7  and  C_9
REMARK    7  A    between atoms: C_7  and  C_21
REMARK                            x       y       z     vdW  Elec       q    Type
REMARK                         _______ _______ _______ _____ _____    ______ ____
ROOT
ATOM      1  C   UNL     1       2.812  -0.514  -2.560  0.00  0.00    +0.047 C 
ENDROOT
BRANCH   1   2
ATOM      2  C   UNL     1       4.151  -0.323  -1.896  0.00  0.00    -0.048 A 
ATOM      3  C   UNL     1       5.224   0.147  -2.632  0.00  0.00    +0.052 A 
ATOM      4  C   UNL     1       6.453   0.322  -2.018  0.00  0.00    +0.164 A 
ATOM      5  C   UNL     1       6.606   0.027  -0.671  0.00  0.00    +0.180 A 
ATOM      6  C   UNL     1       5.530  -0.443   0.063  0.00  0.00    +0.086 A 
ATOM      7  C   UNL     1       4.301  -0.612  -0.553  0.00  0.00    +0.026 A 
ATOM      8 CL   UNL     1       5.719  -0.813   1.749  0.00  0.00    -0.080 Cl
ATOM      9  O   UNL     1       7.822   0.203  -0.076  0.00  0.00    -0.487 OA
ATOM     10  C   UNL     1       8.858  -0.686  -0.496  0.00  0.00    +0.232 C 
ATOM     11  C   UNL     1       9.528  -0.174  -1.762  0.00  0.00    +0.082 C 
ATOM     12  C   UNL     1       8.579  -0.149  -2.950  0.00  0.00    +0.232 C 
ATOM     13  O   UNL     1       7.520   0.785  -2.733  0.00  0.00    -0.488 OA
ENDBRANCH   1   2
BRANCH   1  14
ATOM     14  C   UNL     1       2.617  -1.972  -2.889  0.00  0.00    +0.201 C 
ATOM     15  O   UNL     1       1.972  -2.680  -2.146  0.00  0.00    -0.277 OA
ATOM     16  N   UNL     1       3.161  -2.488  -4.009  0.00  0.00    -0.330 N 
ATOM     17  H   UNL     1       3.677  -1.921  -4.603  0.00  0.00    +0.145 HD
ATOM     18  H   UNL     1       3.036  -3.426  -4.221  0.00  0.00    +0.145 HD
ENDBRANCH   1  14
BRANCH   1  19
ATOM     19  N   UNL     1       1.746  -0.071  -1.650  0.00  0.00    +0.391 N 
ATOM     20  H   UNL     1       1.841  -0.547  -0.765  0.00  0.00    -0.084 HD
ATOM     21  H   UNL     1       0.847  -0.288  -2.054  0.00  0.00    -0.084 HD
BRANCH  19  22
ATOM     22  C   UNL     1       1.853   1.379  -1.440  0.00  0.00    -0.074 C 
ATOM     23  C   UNL     1       1.575   2.106  -2.757  0.00  0.00    -0.014 C 
BRANCH  22  25
ATOM     24  C   UNL     1       1.183   1.187   0.959  0.00  0.00    +0.002 C 
ATOM     25  C   UNL     1       0.831   1.818  -0.389  0.00  0.00    -0.019 C 
ENDBRANCH  22  25
ENDBRANCH  19  22
ENDBRANCH   1  19
TORSDOF 5
