REMARK  Name = ZINC35664812
REMARK  13 active torsions:
REMARK  status: ('A' for Active; 'I' for Inactive)
REMARK    1  A    between atoms: C_1  and  C_2
REMARK    2  A    between atoms: C_2  and  O_3
REMARK    3  A    between atoms: O_3  and  C_4
REMARK    4  A    between atoms: C_4  and  C_6
REMARK    5  A    between atoms: C_7  and  C_24
REMARK    6  A    between atoms: N_8  and  C_21
REMARK    7  A    between atoms: C_12  and  C_14
REMARK    8  A    between atoms: C_17  and  C_20
REMARK    9  A    between atoms: C_21  and  C_22
REMARK   10  A    between atoms: C_24  and  N_25
REMARK   11  A    between atoms: N_34  and  C_35
REMARK   12  A    between atoms: C_35  and  C_36
REMARK   13  A    between atoms: C_35  and  C_37
REMARK                            x       y       z     vdW  Elec       q    Type
REMARK                         _______ _______ _______ _____ _____    ______ ____
ROOT
ATOM      1  C   UNL     1       0.995  -2.951  -2.700  0.00  0.00    +0.076 C 
ATOM      2  C   UNL     1       1.632  -4.140  -2.771  0.00  0.00    +0.011 C 
ATOM      3  N   UNL     1       2.501  -4.414  -3.788  0.00  0.00    -0.257 N 
ATOM      4  C   UNL     1       2.788  -3.553  -4.773  0.00  0.00    +0.307 C 
ATOM      5  O   UNL     1       3.575  -3.887  -5.636  0.00  0.00    -0.252 OA
ATOM      6  N   UNL     1       2.231  -2.327  -4.838  0.00  0.00    -0.288 N 
ATOM      7  C   UNL     1       1.273  -1.936  -3.789  0.00  0.00    +0.143 C 
ATOM      8  H   UNL     1       2.453  -1.719  -5.560  0.00  0.00    +0.151 HD
ENDROOT
BRANCH   7   9
ATOM      9  C   UNL     1       1.795  -0.683  -3.135  0.00  0.00    -0.022 A 
ATOM     10  C   UNL     1       3.121  -0.604  -2.752  0.00  0.00    +0.006 A 
ATOM     11  C   UNL     1       3.600   0.545  -2.151  0.00  0.00    +0.004 A 
ATOM     12  C   UNL     1       2.753   1.616  -1.934  0.00  0.00    -0.050 A 
ATOM     13  C   UNL     1       1.428   1.538  -2.317  0.00  0.00    +0.004 A 
ATOM     14  C   UNL     1       0.950   0.390  -2.922  0.00  0.00    +0.006 A 
ATOM     15  C   UNL     1       3.275   2.868  -1.278  0.00  0.00    +0.044 C 
ENDBRANCH   7   9
BRANCH   1  16
ATOM     16  C   UNL     1       0.095  -2.666  -1.647  0.00  0.00    +0.339 C 
ATOM     17  O   UNL     1      -0.156  -3.516  -0.813  0.00  0.00    -0.245 OA
BRANCH  16  18
ATOM     18  O   UNL     1      -0.487  -1.451  -1.567  0.00  0.00    -0.462 OA
BRANCH  18  20
ATOM     19  C   UNL     1      -1.942   0.191  -0.554  0.00  0.00    +0.048 C 
ATOM     20  C   UNL     1      -1.386  -1.232  -0.478  0.00  0.00    +0.229 C 
ENDBRANCH  18  20
ENDBRANCH  16  18
ENDBRANCH   1  16
BRANCH   3  21
ATOM     21  C   UNL     1       3.157  -5.724  -3.803  0.00  0.00    +0.141 C 
BRANCH  21  22
ATOM     22  C   UNL     1       2.364  -6.673  -4.664  0.00  0.00    -0.015 C 
ATOM     23  C   UNL     1       2.945  -7.295  -5.660  0.00  0.00    +0.005 C 
ENDBRANCH  21  22
ENDBRANCH   3  21
BRANCH   2  24
ATOM     24  C   UNL     1       1.380  -5.181  -1.711  0.00  0.00    -0.026 C 
BRANCH  24  25
ATOM     25  N   UNL     1       2.420  -5.088  -0.677  0.00  0.00    +0.384 N 
ATOM     26  C   UNL     1       2.308  -6.255   0.195  0.00  0.00    -0.077 C 
ATOM     27  C   UNL     1       3.672  -6.591   0.757  0.00  0.00    +0.000 C 
ATOM     28  C   UNL     1       3.848  -5.903   2.122  0.00  0.00    +0.107 C 
ATOM     29  N   UNL     1       3.280  -4.540   2.107  0.00  0.00    -0.287 N 
ATOM     30  C   UNL     1       3.447  -3.643   0.982  0.00  0.00    +0.091 C 
ATOM     31  C   UNL     1       2.291  -3.842  -0.025  0.00  0.00    -0.059 C 
ATOM     32  C   UNL     1       2.580  -4.115   3.178  0.00  0.00    +0.302 C 
ATOM     33  O   UNL     1       2.494  -4.819   4.166  0.00  0.00    -0.253 OA
ATOM     34  N   UNL     1       1.975  -2.911   3.154  0.00  0.00    -0.297 N 
ATOM     35  H   UNL     1       1.984  -2.380   2.342  0.00  0.00    +0.150 HD
ATOM     36  H   UNL     1       3.321  -5.118  -1.130  0.00  0.00    -0.081 HD
BRANCH  34  37
ATOM     37  C   UNL     1       1.303  -2.405   4.353  0.00  0.00    +0.068 C 
ATOM     38  C   UNL     1       2.325  -1.709   5.255  0.00  0.00    +0.027 C 
ATOM     39  C   UNL     1       0.218  -1.405   3.946  0.00  0.00    +0.027 C 
ENDBRANCH  34  37
ENDBRANCH  24  25
ENDBRANCH   2  24
TORSDOF 9
