REMARK  Name = ZINC39890928
REMARK  7 active torsions:
REMARK  status: ('A' for Active; 'I' for Inactive)
REMARK    1  A    between atoms: C_1  and  C_2
REMARK    2  A    between atoms: C_7  and  C_8
REMARK    3  A    between atoms: N_21  and  C_24
REMARK    4  A    between atoms: C_24  and  C_25
REMARK    5  A    between atoms: N_32  and  C_35
REMARK    6  A    between atoms: C_35  and  C_36
REMARK    7  A    between atoms: C_36  and  O_37
REMARK                            x       y       z     vdW  Elec       q    Type
REMARK                         _______ _______ _______ _____ _____    ______ ____
ROOT
ATOM      1  C   UNL     1      -0.018   1.503   0.010  0.00  0.00    +0.044 C 
ATOM      2  C   UNL     1       0.002  -0.004   0.002  0.00  0.00    -0.047 A 
ATOM      3  C   UNL     1       0.006  -0.685  -1.195  0.00  0.00    +0.019 A 
ATOM      4  C   UNL     1       0.024  -2.080  -1.194  0.00  0.00    +0.065 A 
ATOM      5  C   UNL     1       0.034  -2.793   0.015  0.00  0.00    +0.140 A 
ATOM      6  C   UNL     1       0.034  -2.080   1.214  0.00  0.00    +0.050 A 
ATOM      7  C   UNL     1       0.023  -0.703   1.200  0.00  0.00    -0.044 A 
ATOM      8  C   UNL     1       0.028   0.053   2.504  0.00  0.00    +0.044 C 
ATOM      9  O   UNL     1       0.037  -4.145   0.057  0.00  0.00    -0.450 OA
ATOM     10  C   UNL     1       0.259  -4.848  -1.071  0.00  0.00    +0.200 A 
ATOM     11  C   UNL     1       0.265  -4.271  -2.311  0.00  0.00    +0.084 A 
ATOM     12  C   UNL     1       0.034  -2.832  -2.475  0.00  0.00    +0.199 A 
ATOM     13  O   UNL     1      -0.135  -2.303  -3.559  0.00  0.00    -0.287 OA
ATOM     14  C   UNL     1       0.530  -5.348  -3.304  0.00  0.00    +0.174 C 
ATOM     15  C   UNL     1       1.734  -5.071  -4.145  0.00  0.00    +0.011 A 
ATOM     16  C   UNL     1       3.055  -4.860  -3.811  0.00  0.00    +0.008 A 
ATOM     17  C   UNL     1       3.941  -4.625  -4.858  0.00  0.00    +0.000 A 
ATOM     18  C   UNL     1       3.514  -4.604  -6.170  0.00  0.00    +0.002 A 
ATOM     19  C   UNL     1       2.187  -4.814  -6.513  0.00  0.00    +0.024 A 
ATOM     20  C   UNL     1       1.288  -5.052  -5.472  0.00  0.00    +0.043 A 
ATOM     21  N   UNL     1      -0.074  -5.292  -5.526  0.00  0.00    -0.264 N 
ATOM     22  C   UNL     1      -0.603  -5.478  -4.298  0.00  0.00    +0.253 C 
ATOM     23  O   UNL     1      -1.766  -5.706  -4.040  0.00  0.00    -0.272 OA
ATOM     24  N   UNL     1       0.684  -6.589  -2.538  0.00  0.00    -0.271 N 
ATOM     25  C   UNL     1       0.526  -6.289  -1.230  0.00  0.00    +0.284 C 
ATOM     26  O   UNL     1       0.593  -7.089  -0.319  0.00  0.00    -0.267 OA
ENDROOT
BRANCH  21  27
ATOM     27  C   UNL     1      -0.849  -5.337  -6.768  0.00  0.00    +0.151 C 
BRANCH  27  28
ATOM     28  C   UNL     1      -0.866  -6.748  -7.298  0.00  0.00    +0.005 A 
ATOM     29  C   UNL     1      -0.007  -7.113  -8.317  0.00  0.00    +0.008 A 
ATOM     30  C   UNL     1      -0.022  -8.407  -8.804  0.00  0.00    +0.000 A 
ATOM     31  C   UNL     1      -0.896  -9.337  -8.272  0.00  0.00    +0.003 A 
ATOM     32  C   UNL     1      -1.755  -8.974  -7.252  0.00  0.00    +0.038 A 
ATOM     33  C   UNL     1      -1.737  -7.680  -6.760  0.00  0.00    +0.128 A 
ATOM     34  F   UNL     1      -2.573  -7.325  -5.760  0.00  0.00    -0.205 F 
ENDBRANCH  27  28
ENDBRANCH  21  27
BRANCH  24  35
ATOM     35  C   UNL     1       0.961  -7.917  -3.091  0.00  0.00    +0.137 C 
BRANCH  35  36
ATOM     36  C   UNL     1       2.473  -8.132  -3.168  0.00  0.00    +0.175 C 
BRANCH  36  37
ATOM     37  O   UNL     1       3.020  -8.151  -1.848  0.00  0.00    -0.393 OA
ATOM     38  H   UNL     1       3.977  -8.284  -1.821  0.00  0.00    +0.209 HD
ENDBRANCH  36  37
ENDBRANCH  35  36
ENDBRANCH  24  35
TORSDOF 5
