REMARK  Name = ZINC10212898
REMARK  10 active torsions:
REMARK  status: ('A' for Active; 'I' for Inactive)
REMARK    1  A    between atoms: C_1  and  C_2
REMARK    2  A    between atoms: C_2  and  C_3
REMARK    3  A    between atoms: C_3  and  O_4
REMARK    4  A    between atoms: O_4  and  C_5
REMARK    5  A    between atoms: C_5  and  C_7
REMARK    6  A    between atoms: C_11  and  N_12
REMARK    7  A    between atoms: C_13  and  C_15
REMARK    8  A    between atoms: N_20  and  S_22
REMARK    9  A    between atoms: S_22  and  C_25
REMARK   10  A    between atoms: C_28  and  C_31
REMARK                            x       y       z     vdW  Elec       q    Type
REMARK                         _______ _______ _______ _____ _____    ______ ____
ROOT
ATOM      1  N   UNL     1      -1.072  -0.880   0.007  0.00  0.00    -0.279 N 
ATOM      2  C   UNL     1      -0.857  -2.211  -0.002  0.00  0.00    +0.222 C 
ATOM      3  O   UNL     1       0.277  -2.641  -0.015  0.00  0.00    -0.275 OA
ATOM      4  H   UNL     1      -1.979  -0.536   0.017  0.00  0.00    +0.155 HD
ENDROOT
BRANCH   1   9
ATOM      5  C   UNL     1      -0.017   1.385   0.010  0.00  0.00    +0.091 A 
ATOM      6  C   UNL     1       1.263   2.073   0.001  0.00  0.00    -0.021 A 
ATOM      7  C   UNL     1       2.349   1.270  -0.014  0.00  0.00    -0.004 A 
ATOM      8  S   UNL     1       1.694  -0.376  -0.016  0.00  0.00    -0.077 S 
ATOM      9  C   UNL     1       0.002  -0.004   0.002  0.00  0.00    +0.086 A 
ATOM     10  C   UNL     1       3.785   1.692  -0.027  0.00  0.00    +0.043 C 
ATOM     11  C   UNL     1       3.848   3.181  -0.397  0.00  0.00    +0.005 C 
ATOM     12  C   UNL     1       2.830   3.945   0.454  0.00  0.00    +0.005 C 
ATOM     13  C   UNL     1       1.410   3.590   0.009  0.00  0.00    +0.037 C 
BRANCH   5  14
ATOM     14  C   UNL     1      -1.279   2.127   0.020  0.00  0.00    +0.342 C 
ATOM     15  O   UNL     1      -1.798   2.430   1.077  0.00  0.00    -0.245 OA
BRANCH  14  16
ATOM     16  O   UNL     1      -1.866   2.475  -1.144  0.00  0.00    -0.461 OA
BRANCH  16  17
ATOM     17  C   UNL     1      -3.115   3.210  -1.058  0.00  0.00    +0.232 C 
BRANCH  17  19
ATOM     18  C   UNL     1      -4.943   4.288  -2.377  0.00  0.00    +0.007 C 
ATOM     19  C   UNL     1      -3.626   3.514  -2.467  0.00  0.00    +0.038 C 
ENDBRANCH  17  19
ENDBRANCH  16  17
ENDBRANCH  14  16
ENDBRANCH   5  14
ENDBRANCH   1   9
BRANCH   2  20
ATOM     20  C   UNL     1      -2.025  -3.163   0.004  0.00  0.00    +0.091 C 
ATOM     21  C   UNL     1      -2.885  -2.923  -1.239  0.00  0.00    +0.015 C 
ATOM     22  C   UNL     1      -4.090  -3.867  -1.218  0.00  0.00    +0.018 C 
ATOM     23  C   UNL     1      -3.597  -5.317  -1.244  0.00  0.00    +0.109 C 
ATOM     24  N   UNL     1      -2.654  -5.516  -0.135  0.00  0.00    -0.176 NA
ATOM     25  C   UNL     1      -1.508  -4.605  -0.009  0.00  0.00    +0.122 C 
BRANCH  24  26
ATOM     26  S   UNL     1      -2.878  -6.745   0.953  0.00  0.00    +0.061 S 
ATOM     27  O   UNL     1      -3.660  -7.732   0.296  0.00  0.00    -0.153 OA
ATOM     28  O   UNL     1      -1.603  -7.030   1.512  0.00  0.00    -0.153 OA
BRANCH  26  29
ATOM     29  C   UNL     1      -3.870  -6.106   2.262  0.00  0.00    +0.105 A 
ATOM     30  C   UNL     1      -3.271  -5.523   3.363  0.00  0.00    +0.029 A 
ATOM     31  C   UNL     1      -4.049  -5.018   4.388  0.00  0.00    +0.005 A 
ATOM     32  C   UNL     1      -5.427  -5.105   4.316  0.00  0.00    -0.050 A 
ATOM     33  C   UNL     1      -6.026  -5.692   3.218  0.00  0.00    +0.005 A 
ATOM     34  C   UNL     1      -5.248  -6.193   2.191  0.00  0.00    +0.029 A 
ATOM     35  C   UNL     1      -6.275  -4.560   5.436  0.00  0.00    +0.044 C 
ENDBRANCH  26  29
ENDBRANCH  24  26
ENDBRANCH   2  20
TORSDOF 8
