REMARK  Name = ZINC54095880
REMARK  8 active torsions:
REMARK  status: ('A' for Active; 'I' for Inactive)
REMARK    1  A    between atoms: C_1  and  C_2
REMARK    2  A    between atoms: C_5  and  N_8
REMARK    3  A    between atoms: C_9  and  C_11
REMARK    4  A    between atoms: C_11  and  C_36
REMARK    5  A    between atoms: N_13  and  C_29
REMARK    6  A    between atoms: C_16  and  C_19
REMARK    7  A    between atoms: C_19  and  C_20
REMARK    8  A    between atoms: C_24  and  N_26
REMARK                            x       y       z     vdW  Elec       q    Type
REMARK                         _______ _______ _______ _____ _____    ______ ____
ROOT
ATOM      1  C   UNL     1       0.320  -6.360   1.581  0.00  0.00    +0.146 C 
ATOM      2  C   UNL     1       1.484  -6.997   2.008  0.00  0.00    +0.098 C 
ATOM      3  N   UNL     1       1.857  -8.305   1.809  0.00  0.00    -0.232 N 
ATOM      4  C   UNL     1       2.995  -8.798   2.267  0.00  0.00    +0.238 C 
ATOM      5  O   UNL     1       3.317  -9.953   2.085  0.00  0.00    -0.274 OA
ATOM      6  C   UNL     1       3.876  -7.824   3.035  0.00  0.00    +0.143 C 
ATOM      7  S   UNL     1       2.843  -6.304   2.938  0.00  0.00    -0.095 S 
ENDROOT
BRANCH   3   8
ATOM      8  C   UNL     1       0.998  -9.149   1.091  0.00  0.00    +0.042 A 
ATOM      9  C   UNL     1       0.046  -9.904   1.763  0.00  0.00    +0.027 A 
ATOM     10  C   UNL     1      -0.800 -10.735   1.054  0.00  0.00    +0.040 A 
ATOM     11  C   UNL     1      -0.699 -10.815  -0.324  0.00  0.00    +0.124 A 
ATOM     12  C   UNL     1       0.250 -10.062  -0.996  0.00  0.00    +0.040 A 
ATOM     13  C   UNL     1       1.094  -9.226  -0.291  0.00  0.00    +0.027 A 
ATOM     14  F   UNL     1      -1.527 -11.629  -1.016  0.00  0.00    -0.205 F 
ENDBRANCH   3   8
BRANCH   1  16
ATOM     15  N   UNL     1      -0.937  -4.316   1.372  0.00  0.00    -0.209 NA
ATOM     16  C   UNL     1       0.161  -4.917   1.776  0.00  0.00    +0.291 C 
ATOM     17  O   UNL     1       1.144  -4.203   2.371  0.00  0.00    -0.264 OA
BRANCH  15  22
ATOM     18  C   UNL     1      -1.550   1.245   2.123  0.00  0.00    +0.044 C 
ATOM     19  C   UNL     1      -1.387  -0.240   1.923  0.00  0.00    -0.050 A 
ATOM     20  C   UNL     1      -1.721  -0.811   0.708  0.00  0.00    +0.005 A 
ATOM     21  C   UNL     1      -1.573  -2.169   0.517  0.00  0.00    +0.028 A 
ATOM     22  C   UNL     1      -1.086  -2.968   1.554  0.00  0.00    +0.068 A 
ATOM     23  C   UNL     1      -0.750  -2.384   2.778  0.00  0.00    +0.028 A 
ATOM     24  C   UNL     1      -0.898  -1.024   2.953  0.00  0.00    +0.005 A 
ENDBRANCH  15  22
ENDBRANCH   1  16
BRANCH   1  25
ATOM     25  C   UNL     1      -0.720  -7.116   0.951  0.00  0.00    +0.107 C 
ATOM     26  N   UNL     1      -1.546  -7.716   0.451  0.00  0.00    -0.191 NA
ENDBRANCH   1  25
BRANCH   6  27
ATOM     27  C   UNL     1       5.221  -7.622   2.335  0.00  0.00    +0.059 C 
BRANCH  27  28
ATOM     28  C   UNL     1       6.105  -6.750   3.189  0.00  0.00    -0.044 A 
ATOM     29  C   UNL     1       6.075  -5.376   3.038  0.00  0.00    +0.004 A 
ATOM     30  C   UNL     1       6.886  -4.577   3.821  0.00  0.00    +0.002 A 
ATOM     31  C   UNL     1       7.727  -5.151   4.756  0.00  0.00    +0.033 A 
ATOM     32  C   UNL     1       7.756  -6.524   4.908  0.00  0.00    +0.126 A 
ATOM     33  C   UNL     1       6.942  -7.324   4.127  0.00  0.00    +0.036 A 
BRANCH  32  34
ATOM     34  N   UNL     1       8.657  -7.139   5.909  0.00  0.00    +0.056 N 
ATOM     35  O   UNL     1       9.367  -6.440   6.593  0.00  0.00    -0.126 OA
ATOM     36  O   UNL     1       8.683  -8.341   6.042  0.00  0.00    -0.126 OA
ENDBRANCH  32  34
ENDBRANCH  27  28
ENDBRANCH   6  27
TORSDOF 7
