REMARK  Name = ZINC54697481
REMARK  6 active torsions:
REMARK  status: ('A' for Active; 'I' for Inactive)
REMARK    1  A    between atoms: C_1  and  C_2
REMARK    2  A    between atoms: C_2  and  C_3
REMARK    3  A    between atoms: C_3  and  C_4
REMARK    4  A    between atoms: C_6  and  C_10
REMARK    5  A    between atoms: N_7  and  C_9
REMARK    6  A    between atoms: C_15  and  N_16
REMARK                            x       y       z     vdW  Elec       q    Type
REMARK                         _______ _______ _______ _____ _____    ______ ____
ROOT
ATOM      1  C   UNL     1      -0.883  -4.953  -1.501  0.00  0.00    +0.040 A 
ATOM      2  C   UNL     1       0.049  -5.931  -1.153  0.00  0.00    +0.016 A 
ATOM      3  C   UNL     1       0.201  -7.049  -1.945  0.00  0.00    +0.039 A 
ATOM      4  C   UNL     1      -0.569  -7.207  -3.088  0.00  0.00    +0.125 A 
ATOM      5  C   UNL     1      -1.496  -6.244  -3.443  0.00  0.00    +0.061 A 
ATOM      6  C   UNL     1      -1.665  -5.117  -2.653  0.00  0.00    +0.038 A 
ATOM      7  F   UNL     1      -0.413  -8.306  -3.857  0.00  0.00    -0.205 F 
ENDROOT
BRANCH   1  10
ATOM      8  C   UNL     1      -1.257  -1.685  -0.042  0.00  0.00    +0.152 A 
ATOM      9  N   UNL     1      -1.099  -2.504  -1.078  0.00  0.00    -0.211 NA
ATOM     10  C   UNL     1      -1.050  -3.752  -0.655  0.00  0.00    +0.160 A 
ATOM     11  N   UNL     1      -1.179  -3.737   0.692  0.00  0.00    -0.248 N 
ATOM     12  N   UNL     1      -1.306  -2.388   1.059  0.00  0.00    -0.155 NA
ATOM     13  C   UNL     1      -1.181  -4.896   1.588  0.00  0.00    +0.174 C 
BRANCH   8  14
ATOM     14  C   UNL     1      -1.357  -0.183  -0.125  0.00  0.00    +0.078 C 
BRANCH  14  16
ATOM     15  C   UNL     1      -0.060   1.952  -0.107  0.00  0.00    +0.004 C 
ATOM     16  C   UNL     1       0.042   0.427  -0.023  0.00  0.00    +0.004 C 
ENDBRANCH  14  16
ENDBRANCH   8  14
ENDBRANCH   1  10
BRANCH   6  17
ATOM     17  N   UNL     1      -2.602  -4.149  -3.006  0.00  0.00    -0.357 N 
ATOM     18  H   UNL     1      -2.720  -3.362  -2.450  0.00  0.00    +0.142 HD
ATOM     19  H   UNL     1      -3.138  -4.261  -3.807  0.00  0.00    +0.142 HD
ENDBRANCH   6  17
TORSDOF 4
