REMARK  Name = ZINC35520880
REMARK  5 active torsions:
REMARK  status: ('A' for Active; 'I' for Inactive)
REMARK    1  A    between atoms: C_1  and  C_2
REMARK    2  A    between atoms: C_9  and  C_25
REMARK    3  A    between atoms: C_28  and  O_33
REMARK    4  A    between atoms: C_29  and  O_31
REMARK    5  A    between atoms: O_31  and  C_32
REMARK                            x       y       z     vdW  Elec       q    Type
REMARK                         _______ _______ _______ _____ _____    ______ ____
ROOT
ATOM      1  C   UNL     1      -0.018   1.503   0.010  0.00  0.00    +0.045 C 
ATOM      2  C   UNL     1       0.002  -0.004   0.002  0.00  0.00    -0.032 A 
ATOM      3  C   UNL     1       0.006  -0.699  -1.200  0.00  0.00    +0.008 A 
ATOM      4  C   UNL     1       0.025  -2.082  -1.163  0.00  0.00    +0.044 A 
ATOM      5  C   UNL     1       0.040  -2.725   0.070  0.00  0.00    +0.129 A 
ATOM      6  N   UNL     1       0.036  -2.027   1.194  0.00  0.00    -0.240 NA
ATOM      7  C   UNL     1       0.023  -0.708   1.190  0.00  0.00    +0.116 A 
ATOM      8  N   UNL     1       0.060  -4.117   0.121  0.00  0.00    -0.238 N 
ATOM      9  C   UNL     1      -0.032  -4.938   1.339  0.00  0.00    +0.151 C 
ATOM     10  C   UNL     1       0.035  -6.358   0.879  0.00  0.00    +0.072 A 
ATOM     11  C   UNL     1       0.003  -7.619   1.627  0.00  0.00    +0.199 A 
ATOM     12  O   UNL     1      -0.269  -7.684   2.813  0.00  0.00    -0.287 OA
ATOM     13  C   UNL     1       0.331  -8.808   0.801  0.00  0.00    +0.065 A 
ATOM     14  C   UNL     1       0.537 -10.050   1.402  0.00  0.00    +0.030 A 
ATOM     15  C   UNL     1       0.846 -11.142   0.621  0.00  0.00    +0.019 A 
ATOM     16  C   UNL     1       0.952 -11.003  -0.757  0.00  0.00    +0.019 A 
ATOM     17  C   UNL     1       0.750  -9.783  -1.361  0.00  0.00    +0.048 A 
ATOM     18  C   UNL     1       0.432  -8.664  -0.592  0.00  0.00    +0.140 A 
ATOM     19  O   UNL     1       0.229  -7.479  -1.212  0.00  0.00    -0.450 OA
ATOM     20  C   UNL     1       0.150  -6.349  -0.482  0.00  0.00    +0.199 A 
ATOM     21  C   UNL     1       0.161  -4.948  -0.936  0.00  0.00    +0.288 C 
ATOM     22  O   UNL     1       0.251  -4.592  -2.094  0.00  0.00    -0.266 OA
ATOM     23 BR   UNL     1       1.126 -12.830   1.426  0.00  0.00    -0.050 Br
ENDROOT
BRANCH   9  24
ATOM     24  C   UNL     1      -1.340  -4.680   2.043  0.00  0.00    -0.018 A 
ATOM     25  C   UNL     1      -2.496  -4.499   1.306  0.00  0.00    +0.009 A 
ATOM     26  C   UNL     1      -3.697  -4.262   1.946  0.00  0.00    +0.049 A 
ATOM     27  C   UNL     1      -3.746  -4.206   3.330  0.00  0.00    +0.158 A 
ATOM     28  C   UNL     1      -2.583  -4.388   4.072  0.00  0.00    +0.162 A 
ATOM     29  C   UNL     1      -1.382  -4.630   3.424  0.00  0.00    +0.055 A 
BRANCH  28  30
ATOM     30  O   UNL     1      -2.625  -4.334   5.430  0.00  0.00    -0.491 OA
ATOM     31  C   UNL     1      -1.393  -4.531   6.126  0.00  0.00    +0.277 C 
ENDBRANCH  28  30
BRANCH  27  32
ATOM     32  O   UNL     1      -4.927  -3.972   3.962  0.00  0.00    -0.503 OA
ATOM     33  H   UNL     1      -5.425  -4.774   4.174  0.00  0.00    +0.292 HD
ENDBRANCH  27  32
ENDBRANCH   9  24
TORSDOF 3
