REMARK  Name = ZINC10167075
REMARK  8 active torsions:
REMARK  status: ('A' for Active; 'I' for Inactive)
REMARK    1  A    between atoms: C_1  and  C_2
REMARK    2  A    between atoms: C_2  and  C_3
REMARK    3  A    between atoms: C_6  and  C_9
REMARK    4  A    between atoms: C_9  and  C_11
REMARK    5  A    between atoms: C_9  and  N_22
REMARK    6  A    between atoms: C_12  and  O_21
REMARK    7  A    between atoms: C_17  and  C_19
REMARK    8  A    between atoms: C_19  and  C_20
REMARK                            x       y       z     vdW  Elec       q    Type
REMARK                         _______ _______ _______ _____ _____    ______ ____
ROOT
ATOM      1  C   UNL     1       2.707  -1.868  -4.752  0.00  0.00    +0.005 C 
ENDROOT
BRANCH   1   2
ATOM      2  N   UNL     1       3.997  -1.178  -4.885  0.00  0.00    +0.388 N 
ATOM      3  C   UNL     1       3.769   0.269  -4.976  0.00  0.00    -0.072 C 
ATOM      4  C   UNL     1       5.113   0.998  -5.028  0.00  0.00    +0.046 C 
ATOM      5  C   UNL     1       5.900   0.519  -6.251  0.00  0.00    +0.167 C 
ATOM      6  C   UNL     1       6.064  -1.002  -6.189  0.00  0.00    +0.046 C 
ATOM      7  C   UNL     1       4.682  -1.654  -6.092  0.00  0.00    -0.072 C 
ATOM      8  O   UNL     1       7.194   1.141  -6.262  0.00  0.00    -0.346 OA
ATOM      9  C   UNL     1       7.480   1.373  -7.663  0.00  0.00    +0.191 C 
ATOM     10  C   UNL     1       6.077   1.727  -8.217  0.00  0.00    +0.191 C 
ATOM     11  O   UNL     1       5.199   0.880  -7.447  0.00  0.00    -0.346 OA
ATOM     12  H   UNL     1       4.567  -1.376  -4.076  0.00  0.00    -0.080 HD
ENDBRANCH   1   2
BRANCH   1  13
ATOM     13  C   UNL     1       2.940  -3.353  -4.647  0.00  0.00    +0.045 A 
ATOM     14  C   UNL     1       2.437  -4.343  -5.395  0.00  0.00    +0.225 A 
ATOM     15  N   UNL     1       2.771  -5.651  -5.142  0.00  0.00    -0.173 N 
ATOM     16  C   UNL     1       3.626  -5.888  -4.109  0.00  0.00    +0.199 A 
ATOM     17  S   UNL     1       3.966  -4.255  -3.496  0.00  0.00    -0.050 S 
ATOM     18  N   UNL     1       3.839  -7.171  -4.002  0.00  0.00    -0.205 NA
ATOM     19  C   UNL     1       3.147  -7.812  -4.941  0.00  0.00    +0.152 A 
ATOM     20  N   UNL     1       2.485  -6.942  -5.657  0.00  0.00    -0.147 NA
BRANCH  19  21
ATOM     21  C   UNL     1       3.130  -9.304  -5.147  0.00  0.00    +0.075 C 
ATOM     22  C   UNL     1       2.004  -9.921  -4.316  0.00  0.00    +0.012 C 
ENDBRANCH  19  21
BRANCH  14  23
ATOM     23  O   UNL     1       1.587  -4.050  -6.416  0.00  0.00    -0.492 OA
ATOM     24  H   UNL     1       1.274  -4.825  -6.902  0.00  0.00    +0.294 HD
ENDBRANCH  14  23
ENDBRANCH   1  13
BRANCH   1  28
ATOM     25  C   UNL     1       0.707  -0.490  -1.238  0.00  0.00    -0.048 A 
ATOM     26  C   UNL     1      -0.011  -0.719  -2.397  0.00  0.00    +0.004 A 
ATOM     27  C   UNL     1       0.636  -1.164  -3.534  0.00  0.00    +0.002 A 
ATOM     28  C   UNL     1       2.002  -1.381  -3.513  0.00  0.00    -0.056 A 
ATOM     29  C   UNL     1       2.720  -1.152  -2.354  0.00  0.00    +0.002 A 
ATOM     30  C   UNL     1       2.073  -0.702  -1.218  0.00  0.00    +0.004 A 
BRANCH  25  32
ATOM     31  C   UNL     1      -0.019   1.526   0.010  0.00  0.00    +0.009 C 
ATOM     32  C   UNL     1       0.002  -0.004   0.002  0.00  0.00    +0.032 C 
ENDBRANCH  25  32
ENDBRANCH   1  28
TORSDOF 6
