REMARK  Name = ZINC66932614
REMARK  2 active torsions:
REMARK  status: ('A' for Active; 'I' for Inactive)
REMARK    1  A    between atoms: C_3  and  C_9
REMARK    2  A    between atoms: C_6  and  O_7
REMARK                            x       y       z     vdW  Elec       q    Type
REMARK                         _______ _______ _______ _____ _____    ______ ____
ROOT
ATOM      1  C   UNL     1       3.652   2.168  -0.022  0.00  0.00    +0.146 A 
ATOM      2  N   UNL     1       4.792   1.510  -0.042  0.00  0.00    -0.191 NA
ATOM      3  C   UNL     1       5.977   2.130  -0.050  0.00  0.00    +0.282 A 
ATOM      4  O   UNL     1       7.013   1.484  -0.070  0.00  0.00    -0.265 OA
ATOM      5  C   UNL     1       6.016   3.611  -0.037  0.00  0.00    +0.075 A 
ATOM      6  C   UNL     1       7.200   4.487  -0.041  0.00  0.00    -0.020 A 
ATOM      7  C   UNL     1       6.965   5.809  -0.030  0.00  0.00    +0.017 A 
ATOM      8  S   UNL     1       5.192   5.965  -0.006  0.00  0.00    -0.073 S 
ATOM      9  C   UNL     1       4.775   4.244  -0.017  0.00  0.00    +0.092 A 
ATOM     10  N   UNL     1       3.616   3.532  -0.014  0.00  0.00    -0.333 N 
ATOM     11  C   UNL     1       7.926   6.966  -0.043  0.00  0.00    +0.208 C 
ATOM     12  S   UNL     1       9.577   6.351   0.407  0.00  0.00    -0.026 S 
ATOM     13  O   UNL     1      10.553   7.254  -0.094  0.00  0.00    -0.174 OA
ATOM     14  O   UNL     1       9.580   6.017   1.789  0.00  0.00    -0.174 OA
ATOM     15  C   UNL     1       9.645   4.816  -0.567  0.00  0.00    +0.171 C 
ATOM     16  C   UNL     1       8.586   3.854  -0.046  0.00  0.00    +0.059 C 
ATOM     17  H   UNL     1       2.764   3.994  -0.004  0.00  0.00    +0.168 HD
ENDROOT
BRANCH   1  20
ATOM     18  C   UNL     1      -0.017   1.386   0.010  0.00  0.00    +0.046 A 
ATOM     19  C   UNL     1       1.164   2.094   0.002  0.00  0.00    +0.018 A 
ATOM     20  C   UNL     1       2.385   1.414  -0.013  0.00  0.00    +0.053 A 
ATOM     21  C   UNL     1       2.401   0.013  -0.021  0.00  0.00    +0.137 A 
ATOM     22  C   UNL     1       1.211  -0.687  -0.013  0.00  0.00    +0.084 A 
ATOM     23  C   UNL     1       0.002  -0.004   0.002  0.00  0.00    +0.120 A 
ATOM     24  F   UNL     1       3.577  -0.650  -0.036  0.00  0.00    -0.205 F 
BRANCH  23  25
ATOM     25  O   UNL     1      -1.165  -0.696   0.010  0.00  0.00    -0.507 OA
ATOM     26  H   UNL     1      -1.513  -0.892  -0.871  0.00  0.00    +0.292 HD
ENDBRANCH  23  25
ENDBRANCH   1  20
TORSDOF 2
