REMARK  Name = ZINC58393586
REMARK  6 active torsions:
REMARK  status: ('A' for Active; 'I' for Inactive)
REMARK    1  A    between atoms: C_1  and  N_2
REMARK    2  A    between atoms: N_2  and  C_3
REMARK    3  A    between atoms: N_2  and  C_16
REMARK    4  A    between atoms: C_3  and  C_4
REMARK    5  A    between atoms: C_7  and  C_9
REMARK    6  A    between atoms: C_25  and  O_27
REMARK                            x       y       z     vdW  Elec       q    Type
REMARK                         _______ _______ _______ _____ _____    ______ ____
ROOT
ATOM      1  C   UNL     1      -0.163   1.438   0.227  0.00  0.00    -0.095 C 
ATOM      2  N   UNL     1       0.002  -0.004   0.002  0.00  0.00    +0.388 N 
ATOM      3  H   UNL     1      -0.904  -0.447  -0.018  0.00  0.00    -0.081 HD
ENDROOT
BRANCH   2   4
ATOM      4  C   UNL     1       0.806  -0.581   1.088  0.00  0.00    -0.008 C 
ATOM      5  C   UNL     1       2.241  -0.110   0.987  0.00  0.00    -0.052 A 
ATOM      6  C   UNL     1       2.816   1.097   1.350  0.00  0.00    +0.022 A 
ATOM      7  C   UNL     1       4.170   1.306   1.162  0.00  0.00    +0.043 A 
ATOM      8  C   UNL     1       4.952   0.308   0.609  0.00  0.00    +0.040 A 
ATOM      9  C   UNL     1       4.379  -0.895   0.246  0.00  0.00    +0.046 A 
ATOM     10  C   UNL     1       3.022  -1.107   0.435  0.00  0.00    -0.025 A 
ATOM     11  C   UNL     1       2.166  -2.316   0.127  0.00  0.00    +0.066 C 
ATOM     12  C   UNL     1       0.872  -2.116   0.949  0.00  0.00    +0.110 C 
ATOM     13 CL   UNL     1       5.361  -2.147  -0.449  0.00  0.00    -0.083 Cl
ATOM     14 CL   UNL     1       4.886   2.820   1.618  0.00  0.00    -0.083 Cl
BRANCH  12  15
ATOM     15  O   UNL     1      -0.265  -2.611   0.238  0.00  0.00    -0.393 OA
ATOM     16  H   UNL     1      -0.271  -3.571   0.124  0.00  0.00    +0.210 HD
ENDBRANCH  12  15
ENDBRANCH   2   4
BRANCH   2  17
ATOM     17  C   UNL     1       0.683  -0.225  -1.281  0.00  0.00    -0.019 C 
BRANCH  17  18
ATOM     18  C   UNL     1      -0.171   0.311  -2.401  0.00  0.00    +0.063 A 
ATOM     19  C   UNL     1      -0.066   1.528  -2.965  0.00  0.00    +0.219 A 
ATOM     20  O   UNL     1      -1.010   1.607  -3.924  0.00  0.00    -0.443 OA
ATOM     21  C   UNL     1      -1.680   0.442  -3.936  0.00  0.00    +0.227 A 
ATOM     22  N   UNL     1      -1.167  -0.343  -3.018  0.00  0.00    -0.216 NA
BRANCH  21  23
ATOM     23  C   UNL     1      -2.802   0.100  -4.835  0.00  0.00    +0.037 A 
ATOM     24  C   UNL     1      -3.420  -1.148  -4.741  0.00  0.00    +0.016 A 
ATOM     25  C   UNL     1      -4.466  -1.462  -5.583  0.00  0.00    +0.039 A 
ATOM     26  C   UNL     1      -4.904  -0.540  -6.521  0.00  0.00    +0.123 A 
ATOM     27  C   UNL     1      -4.295   0.701  -6.618  0.00  0.00    +0.039 A 
ATOM     28  C   UNL     1      -3.251   1.026  -5.778  0.00  0.00    +0.016 A 
ATOM     29  F   UNL     1      -5.930  -0.853  -7.343  0.00  0.00    -0.205 F 
ENDBRANCH  21  23
ENDBRANCH  17  18
ENDBRANCH   2  17
TORSDOF 5
