REMARK  Name = ZINC58691320
REMARK  10 active torsions:
REMARK  status: ('A' for Active; 'I' for Inactive)
REMARK    1  A    between atoms: C_1  and  C_2
REMARK    2  A    between atoms: C_2  and  N_3
REMARK    3  A    between atoms: C_6  and  C_13
REMARK    4  A    between atoms: C_8  and  C_10
REMARK    5  A    between atoms: C_10  and  C_11
REMARK    6  A    between atoms: C_10  and  C_12
REMARK    7  A    between atoms: C_18  and  C_21
REMARK    8  A    between atoms: C_21  and  C_22
REMARK    9  A    between atoms: C_22  and  C_23
REMARK   10  A    between atoms: C_26  and  C_29
REMARK                            x       y       z     vdW  Elec       q    Type
REMARK                         _______ _______ _______ _____ _____    ______ ____
ROOT
ATOM      1  N   UNL     1      -0.415  -2.191  -1.119  0.00  0.00    -0.278 N 
ATOM      2  C   UNL     1      -0.580  -1.529  -2.324  0.00  0.00    +0.151 A 
ATOM      3  C   UNL     1       0.081  -2.029  -3.459  0.00  0.00    +0.094 A 
ATOM      4  C   UNL     1      -0.072  -1.374  -4.691  0.00  0.00    +0.054 A 
ATOM      5  C   UNL     1      -0.887  -0.241  -4.726  0.00  0.00    +0.037 A 
ATOM      6  C   UNL     1      -1.502   0.186  -3.561  0.00  0.00    +0.047 A 
ATOM      7  N   UNL     1      -1.339  -0.450  -2.419  0.00  0.00    -0.233 NA
ATOM      8  C   UNL     1       0.917  -3.233  -3.314  0.00  0.00    +0.264 A 
ATOM      9  O   UNL     1       1.508  -3.701  -4.268  0.00  0.00    -0.267 OA
ATOM     10  N   UNL     1       1.010  -3.801  -2.092  0.00  0.00    -0.274 N 
ATOM     11  H   UNL     1       1.555  -4.595  -1.975  0.00  0.00    +0.173 HD
ATOM     12  C   UNL     1       0.363  -3.283  -1.036  0.00  0.00    +0.331 A 
ATOM     13  O   UNL     1       0.483  -3.829   0.044  0.00  0.00    -0.246 OA
ENDROOT
BRANCH   4  14
ATOM     14  C   UNL     1       0.608  -1.869  -5.912  0.00  0.00    +0.248 C 
ATOM     15  O   UNL     1       1.816  -1.989  -5.928  0.00  0.00    -0.270 OA
ATOM     16  N   UNL     1      -0.116  -2.184  -7.005  0.00  0.00    -0.297 N 
ATOM     17  C   UNL     1      -1.566  -1.952  -7.035  0.00  0.00    +0.108 C 
ATOM     18  C   UNL     1      -2.267  -3.260  -7.418  0.00  0.00    +0.022 C 
ATOM     19  C   UNL     1      -1.685  -3.779  -8.735  0.00  0.00    -0.008 C 
ATOM     20  C   UNL     1      -0.192  -4.065  -8.558  0.00  0.00    +0.022 C 
ATOM     21  C   UNL     1       0.533  -2.761  -8.191  0.00  0.00    +0.108 C 
BRANCH  19  22
ATOM     22  C   UNL     1      -2.407  -5.067  -9.138  0.00  0.00    +0.008 C 
BRANCH  22  23
ATOM     23  C   UNL     1      -1.913  -5.519 -10.514  0.00  0.00    +0.035 C 
BRANCH  23  24
ATOM     24  C   UNL     1      -2.624  -6.787 -10.910  0.00  0.00    -0.047 A 
ATOM     25  C   UNL     1      -2.090  -8.015 -10.566  0.00  0.00    +0.004 A 
ATOM     26  C   UNL     1      -2.742  -9.179 -10.930  0.00  0.00    +0.003 A 
ATOM     27  C   UNL     1      -3.927  -9.114 -11.638  0.00  0.00    -0.050 A 
ATOM     28  C   UNL     1      -4.462  -7.887 -11.981  0.00  0.00    +0.003 A 
ATOM     29  C   UNL     1      -3.812  -6.723 -11.614  0.00  0.00    +0.004 A 
ATOM     30  C   UNL     1      -4.637 -10.383 -12.035  0.00  0.00    +0.044 C 
ENDBRANCH  23  24
ENDBRANCH  22  23
ENDBRANCH  19  22
ENDBRANCH   4  14
BRANCH   6  31
ATOM     31  C   UNL     1      -2.381   1.410  -3.601  0.00  0.00    +0.032 C 
ATOM     32  C   UNL     1      -1.518   2.663  -3.439  0.00  0.00    +0.014 C 
ATOM     33  C   UNL     1      -3.116   1.467  -4.941  0.00  0.00    +0.014 C 
ENDBRANCH   6  31
BRANCH   1  35
ATOM     34  C   UNL     1      -0.188  -0.683   0.792  0.00  0.00    +0.027 C 
ATOM     35  C   UNL     1      -1.091  -1.691   0.080  0.00  0.00    +0.125 C 
ENDBRANCH   1  35
TORSDOF 6
