REMARK  Name = ZINC12004338
REMARK  12 active torsions:
REMARK  status: ('A' for Active; 'I' for Inactive)
REMARK    1  A    between atoms: C_1  and  C_2
REMARK    2  A    between atoms: C_2  and  O_3
REMARK    3  A    between atoms: O_3  and  C_4
REMARK    4  A    between atoms: C_8  and  C_11
REMARK    5  A    between atoms: C_9  and  O_10
REMARK    6  A    between atoms: C_11  and  N_75
REMARK    7  A    between atoms: C_18  and  C_20
REMARK    8  A    between atoms: N_22  and  C_23
REMARK    9  A    between atoms: C_23  and  C_24
REMARK   10  A    between atoms: C_24  and  C_25
REMARK   11  A    between atoms: C_25  and  C_26
REMARK   12  A    between atoms: C_25  and  C_32
REMARK                            x       y       z     vdW  Elec       q    Type
REMARK                         _______ _______ _______ _____ _____    ______ ____
ROOT
ATOM      1  C   UNL     1       2.526   1.083  -3.505  0.00  0.00    -0.078 C 
ATOM      2  C   UNL     1       1.796   1.722  -4.691  0.00  0.00    -0.011 C 
ATOM      3  C   UNL     1       0.507   2.372  -4.179  0.00  0.00    -0.021 C 
ATOM      4  C   UNL     1       0.695   3.317  -2.988  0.00  0.00    -0.011 C 
ATOM      5  C   UNL     1       1.490   2.584  -1.902  0.00  0.00    -0.078 C 
ATOM      6  C   UNL     1      -0.779   1.549  -4.240  0.00  0.00    +0.020 C 
ATOM      7  C   UNL     1      -0.571   2.721  -5.203  0.00  0.00    +0.082 C 
ATOM      8  N   UNL     1       2.771   2.121  -2.479  0.00  0.00    +0.382 N 
ATOM      9  H   UNL     1       3.243   2.919  -2.921  0.00  0.00    -0.081 HD
ENDROOT
BRANCH   7  10
ATOM     10  C   UNL     1      -0.292   2.393  -6.647  0.00  0.00    +0.217 C 
ATOM     11  O   UNL     1       0.758   1.872  -6.958  0.00  0.00    -0.275 OA
ATOM     12  N   UNL     1      -1.208   2.679  -7.593  0.00  0.00    -0.315 N 
ATOM     13  H   UNL     1      -2.048   3.096  -7.344  0.00  0.00    +0.149 HD
BRANCH  12  14
ATOM     14  C   UNL     1      -0.937   2.361  -8.997  0.00  0.00    +0.105 C 
BRANCH  14  15
ATOM     15  C   UNL     1      -2.130   2.784  -9.856  0.00  0.00    +0.031 C 
BRANCH  15  16
ATOM     16  C   UNL     1      -1.845   2.452 -11.322  0.00  0.00    +0.050 C 
BRANCH  16  17
ATOM     17  C   UNL     1      -1.745   0.958 -11.488  0.00  0.00    -0.040 A 
ATOM     18  C   UNL     1      -0.645   0.404 -12.116  0.00  0.00    +0.004 A 
ATOM     19  C   UNL     1      -0.551  -0.967 -12.264  0.00  0.00    +0.000 A 
ATOM     20  C   UNL     1      -1.562  -1.784 -11.793  0.00  0.00    +0.000 A 
ATOM     21  C   UNL     1      -2.664  -1.230 -11.170  0.00  0.00    +0.000 A 
ATOM     22  C   UNL     1      -2.756   0.141 -11.018  0.00  0.00    +0.004 A 
ENDBRANCH  16  17
BRANCH  16  23
ATOM     23  C   UNL     1      -2.965   2.979 -12.183  0.00  0.00    -0.040 A 
ATOM     24  C   UNL     1      -4.276   2.660 -11.883  0.00  0.00    +0.004 A 
ATOM     25  C   UNL     1      -5.303   3.147 -12.670  0.00  0.00    +0.000 A 
ATOM     26  C   UNL     1      -5.018   3.946 -13.762  0.00  0.00    +0.000 A 
ATOM     27  C   UNL     1      -3.707   4.260 -14.064  0.00  0.00    +0.000 A 
ATOM     28  C   UNL     1      -2.680   3.777 -13.275  0.00  0.00    +0.004 A 
ENDBRANCH  16  23
ENDBRANCH  15  16
ENDBRANCH  14  15
ENDBRANCH  12  14
ENDBRANCH   7  10
BRANCH   8  29
ATOM     29  C   UNL     1       3.638   1.581  -1.413  0.00  0.00    -0.039 C 
BRANCH  29  34
ATOM     30  C   UNL     1       6.954   0.944  -3.124  0.00  0.00    +0.162 A 
ATOM     31  C   UNL     1       6.955  -0.439  -3.207  0.00  0.00    +0.049 A 
ATOM     32  C   UNL     1       5.886  -1.162  -2.709  0.00  0.00    +0.004 A 
ATOM     33  C   UNL     1       4.816  -0.508  -2.128  0.00  0.00    +0.005 A 
ATOM     34  C   UNL     1       4.809   0.872  -2.042  0.00  0.00    -0.019 A 
ATOM     35  C   UNL     1       5.876   1.602  -2.539  0.00  0.00    +0.160 A 
BRANCH  35  36
ATOM     36  O   UNL     1       5.871   2.959  -2.456  0.00  0.00    -0.503 OA
ATOM     37  H   UNL     1       6.268   3.305  -1.645  0.00  0.00    +0.292 HD
ENDBRANCH  35  36
BRANCH  30  38
ATOM     38  O   UNL     1       8.004   1.656  -3.614  0.00  0.00    -0.489 OA
BRANCH  38  40
ATOM     39  C   UNL     1      10.155   1.879  -4.691  0.00  0.00    +0.048 C 
ATOM     40  C   UNL     1       9.074   0.914  -4.201  0.00  0.00    +0.226 C 
ENDBRANCH  38  40
ENDBRANCH  30  38
ENDBRANCH  29  34
ENDBRANCH   8  29
TORSDOF 11
