REMARK  Name = ZINC14161116
REMARK  8 active torsions:
REMARK  status: ('A' for Active; 'I' for Inactive)
REMARK    1  A    between atoms: C_1  and  C_2
REMARK    2  A    between atoms: C_2  and  C_3
REMARK    3  A    between atoms: C_8  and  N_9
REMARK    4  A    between atoms: N_9  and  C_10
REMARK    5  A    between atoms: C_10  and  N_12
REMARK    6  A    between atoms: C_17  and  C_22
REMARK    7  A    between atoms: C_19  and  C_21
REMARK    8  A    between atoms: C_26  and  C_29
REMARK                            x       y       z     vdW  Elec       q    Type
REMARK                         _______ _______ _______ _____ _____    ______ ____
ROOT
ATOM      1  N   UNL     1      -1.000  -2.343   1.381  0.00  0.00    -0.163 NA
ATOM      2  C   UNL     1      -0.197  -1.360   1.752  0.00  0.00    +0.180 C 
ATOM      3  N   UNL     1       0.533  -1.471   2.904  0.00  0.00    -0.258 N 
ATOM      4  C   UNL     1       1.695  -0.727   3.064  0.00  0.00    +0.222 A 
ATOM      5  N   UNL     1       2.150  -0.013   2.046  0.00  0.00    -0.219 NA
ATOM      6  C   UNL     1       3.251   0.711   2.166  0.00  0.00    +0.044 A 
ATOM      7  C   UNL     1       3.934   0.706   3.372  0.00  0.00    +0.046 A 
ATOM      8  C   UNL     1       3.433  -0.057   4.415  0.00  0.00    +0.044 A 
ATOM      9  N   UNL     1       2.324  -0.753   4.229  0.00  0.00    -0.219 NA
ATOM     10  C   UNL     1       4.142  -0.091   5.744  0.00  0.00    +0.066 C 
ATOM     11  C   UNL     1       3.759   1.525   1.004  0.00  0.00    +0.066 C 
ATOM     12  N   UNL     1      -0.098  -0.234   0.986  0.00  0.00    -0.305 N 
ATOM     13  C   UNL     1      -0.200  -0.313  -0.478  0.00  0.00    +0.108 C 
ATOM     14  C   UNL     1      -1.281   0.664  -0.950  0.00  0.00    +0.032 C 
ATOM     15  C   UNL     1      -0.967   2.063  -0.416  0.00  0.00    +0.078 C 
ATOM     16  C   UNL     1      -0.971   2.041   1.114  0.00  0.00    +0.032 C 
ATOM     17  C   UNL     1       0.114   1.079   1.610  0.00  0.00    +0.108 C 
ATOM     18  H   UNL     1       0.200  -2.149   3.703  0.00  0.00    +0.157 HD
ENDROOT
BRANCH  15  19
ATOM     19  C   UNL     1      -2.010   3.034  -0.906  0.00  0.00    +0.214 C 
ATOM     20  O   UNL     1      -2.916   2.645  -1.613  0.00  0.00    -0.276 OA
ATOM     21  N   UNL     1      -1.937   4.335  -0.560  0.00  0.00    -0.329 N 
ATOM     22  H   UNL     1      -2.698   5.043  -0.918  0.00  0.00    +0.145 HD
ATOM     23  H   UNL     1      -1.115   4.687   0.081  0.00  0.00    +0.145 HD
ENDBRANCH  15  19
BRANCH   1  24
ATOM     24  C   UNL     1      -1.194  -3.392   2.192  0.00  0.00    +0.161 C 
ATOM     25  S   UNL     1      -1.970  -3.174   3.703  0.00  0.00    -0.016 S 
BRANCH  24  26
ATOM     26  N   UNL     1      -0.779  -4.619   1.819  0.00  0.00    -0.295 N 
ATOM     27  H   UNL     1      -0.179  -4.742   0.905  0.00  0.00    +0.154 HD
BRANCH  26  33
ATOM     28  C   UNL     1      -1.573  -6.893   1.982  0.00  0.00    -0.026 A 
ATOM     29  C   UNL     1      -1.900  -7.994   2.750  0.00  0.00    +0.005 A 
ATOM     30  C   UNL     1      -1.768  -7.944   4.125  0.00  0.00    +0.000 A 
ATOM     31  C   UNL     1      -1.308  -6.792   4.737  0.00  0.00    +0.002 A 
ATOM     32  C   UNL     1      -0.973  -5.689   3.975  0.00  0.00    +0.023 A 
ATOM     33  C   UNL     1      -1.111  -5.735   2.593  0.00  0.00    +0.036 A 
BRANCH  28  35
ATOM     34  C   UNL     1      -0.375  -7.330  -0.145  0.00  0.00    +0.009 C 
ATOM     35  C   UNL     1      -1.717  -6.949   0.483  0.00  0.00    +0.033 C 
ENDBRANCH  28  35
ENDBRANCH  26  33
ENDBRANCH  24  26
ENDBRANCH   1  24
TORSDOF 5
