REMARK  Name = ZINC09454261
REMARK  11 active torsions:
REMARK  status: ('A' for Active; 'I' for Inactive)
REMARK    1  A    between atoms: C_1  and  C_2
REMARK    2  A    between atoms: C_2  and  C_3
REMARK    3  A    between atoms: C_3  and  N_4
REMARK    4  A    between atoms: C_13  and  C_15
REMARK    5  A    between atoms: C_15  and  O_17
REMARK    6  A    between atoms: O_17  and  C_18
REMARK    7  A    between atoms: C_18  and  C_20
REMARK    8  A    between atoms: C_18  and  C_21
REMARK    9  A    between atoms: N_23  and  C_24
REMARK   10  A    between atoms: C_27  and  N_34
REMARK   11  A    between atoms: C_29  and  C_30
REMARK                            x       y       z     vdW  Elec       q    Type
REMARK                         _______ _______ _______ _____ _____    ______ ____
ROOT
ATOM      1  C   UNL     1       5.098  -4.302   1.177  0.00  0.00    +0.259 C 
ATOM      2  C   UNL     1       6.215  -4.506   0.152  0.00  0.00    +0.062 C 
ENDROOT
BRANCH   1   3
ATOM      3  C   UNL     1       5.606  -3.445   2.308  0.00  0.00    +0.258 C 
ATOM      4  O   UNL     1       5.069  -2.385   2.554  0.00  0.00    -0.271 OA
ATOM      5  N   UNL     1       6.655  -3.856   3.047  0.00  0.00    -0.282 N 
ATOM      6  H   UNL     1       7.033  -4.738   2.904  0.00  0.00    +0.155 HD
BRANCH   5   7
ATOM      7  C   UNL     1       7.199  -3.011   4.021  0.00  0.00    +0.045 A 
ATOM      8  C   UNL     1       7.051  -1.635   3.909  0.00  0.00    +0.026 A 
ATOM      9  C   UNL     1       7.589  -0.804   4.871  0.00  0.00    +0.034 A 
ATOM     10  C   UNL     1       8.276  -1.340   5.945  0.00  0.00    +0.127 A 
ATOM     11  C   UNL     1       8.425  -2.710   6.059  0.00  0.00    +0.047 A 
ATOM     12  C   UNL     1       7.884  -3.547   5.103  0.00  0.00    +0.078 A 
BRANCH  12  13
ATOM     13  C   UNL     1       8.041  -5.041   5.232  0.00  0.00    +0.419 C 
ATOM     14  F   UNL     1       8.762  -5.335   6.394  0.00  0.00    -0.166 F 
ATOM     15  F   UNL     1       6.779  -5.638   5.301  0.00  0.00    -0.166 F 
ATOM     16  F   UNL     1       8.730  -5.534   4.119  0.00  0.00    -0.166 F 
ENDBRANCH  12  13
BRANCH  10  17
ATOM     17  N   UNL     1       8.851  -0.447   6.975  0.00  0.00    +0.056 N 
ATOM     18  O   UNL     1       8.722   0.751   6.877  0.00  0.00    -0.126 OA
ATOM     19  O   UNL     1       9.452  -0.914   7.915  0.00  0.00    -0.126 OA
ENDBRANCH  10  17
ENDBRANCH   5   7
ENDBRANCH   1   3
BRANCH   1  20
ATOM     20  O   UNL     1       3.988  -3.656   0.551  0.00  0.00    -0.448 OA
BRANCH  20  21
ATOM     21  C   UNL     1       3.052  -4.450  -0.006  0.00  0.00    +0.361 C 
ATOM     22  O   UNL     1       3.175  -5.658   0.040  0.00  0.00    -0.243 OA
BRANCH  21  32
ATOM     23  N   UNL     1       0.752  -1.954  -1.280  0.00  0.00    -0.228 N 
ATOM     24  C   UNL     1      -0.267  -2.603  -1.881  0.00  0.00    +0.275 A 
ATOM     25  O   UNL     1      -1.181  -1.985  -2.396  0.00  0.00    -0.266 OA
ATOM     26  C   UNL     1      -0.247  -4.072  -1.901  0.00  0.00    +0.050 A 
ATOM     27  C   UNL     1      -1.249  -4.833  -2.495  0.00  0.00    +0.014 A 
ATOM     28  C   UNL     1      -1.157  -6.208  -2.470  0.00  0.00    +0.001 A 
ATOM     29  C   UNL     1      -0.078  -6.837  -1.861  0.00  0.00    +0.001 A 
ATOM     30  C   UNL     1       0.924  -6.100  -1.267  0.00  0.00    +0.011 A 
ATOM     31  C   UNL     1       0.851  -4.711  -1.281  0.00  0.00    +0.021 A 
ATOM     32  C   UNL     1       1.879  -3.852  -0.670  0.00  0.00    +0.176 A 
ATOM     33  N   UNL     1       1.741  -2.549  -0.729  0.00  0.00    -0.161 NA
BRANCH  23  34
ATOM     34  C   UNL     1       0.728  -0.489  -1.264  0.00  0.00    +0.147 C 
BRANCH  34  36
ATOM     35  C   UNL     1      -0.021   1.524   0.013  0.00  0.00    +0.005 C 
ATOM     36  C   UNL     1       0.004  -0.006  -0.005  0.00  0.00    +0.020 C 
ENDBRANCH  34  36
ENDBRANCH  23  34
ENDBRANCH  21  32
ENDBRANCH  20  21
ENDBRANCH   1  20
TORSDOF 9
