REMARK  Name = ZINC06444579
REMARK  11 active torsions:
REMARK  status: ('A' for Active; 'I' for Inactive)
REMARK    1  A    between atoms: C_1  and  C_2
REMARK    2  A    between atoms: C_7  and  C_8
REMARK    3  A    between atoms: C_13  and  C_18
REMARK    4  A    between atoms: C_21  and  O_26
REMARK    5  A    between atoms: C_22  and  O_24
REMARK    6  A    between atoms: O_24  and  C_25
REMARK    7  A    between atoms: O_26  and  C_27
REMARK    8  A    between atoms: C_29  and  C_39
REMARK    9  A    between atoms: C_30  and  C_31
REMARK   10  A    between atoms: C_31  and  O_33
REMARK   11  A    between atoms: O_33  and  C_34
REMARK                            x       y       z     vdW  Elec       q    Type
REMARK                         _______ _______ _______ _____ _____    ______ ____
ROOT
ATOM      1  C   UNL     1      -2.787   1.839  -0.030  0.00  0.00    +0.092 C 
ATOM      2  C   UNL     1      -3.912   0.841   0.082  0.00  0.00    +0.024 C 
ATOM      3  C   UNL     1      -5.194   1.253   0.160  0.00  0.00    +0.016 C 
ATOM      4  C   UNL     1      -6.323   0.261   0.292  0.00  0.00    +0.059 C 
ATOM      5  C   UNL     1      -5.948  -1.040  -0.422  0.00  0.00    +0.032 C 
ATOM      6  C   UNL     1      -4.656  -1.581   0.199  0.00  0.00    +0.088 C 
ATOM      7  C   UNL     1      -3.587  -0.527   0.100  0.00  0.00    +0.162 C 
ATOM      8  O   UNL     1      -2.421  -0.864   0.034  0.00  0.00    -0.292 OA
ATOM      9  N   UNL     1      -5.499   2.588   0.125  0.00  0.00    -0.321 N 
ATOM     10  C   UNL     1      -4.603   3.494  -0.370  0.00  0.00    +0.016 C 
ATOM     11  C   UNL     1      -3.300   3.180  -0.467  0.00  0.00    +0.065 C 
ATOM     12  C   UNL     1      -5.081   4.853  -0.812  0.00  0.00    +0.061 C 
ATOM     13  H   UNL     1      -6.472   2.940   0.498  0.00  0.00    +0.152 HD
ENDROOT
BRANCH   1  20
ATOM     14  C   UNL     1      -0.017   1.081   0.281  0.00  0.00    +0.044 C 
ATOM     15  C   UNL     1      -0.789   1.616   1.460  0.00  0.00    -0.046 A 
ATOM     16  C   UNL     1      -0.170   1.750   2.689  0.00  0.00    +0.003 A 
ATOM     17  C   UNL     1      -0.877   2.241   3.769  0.00  0.00    +0.000 A 
ATOM     18  C   UNL     1      -2.205   2.599   3.622  0.00  0.00    +0.000 A 
ATOM     19  C   UNL     1      -2.824   2.466   2.393  0.00  0.00    +0.005 A 
ATOM     20  C   UNL     1      -2.114   1.979   1.311  0.00  0.00    -0.032 A 
ENDBRANCH   1  20
BRANCH   5  21
ATOM     21  C   UNL     1      -7.056  -2.048  -0.252  0.00  0.00    -0.040 A 
ATOM     22  C   UNL     1      -7.427  -2.458   1.015  0.00  0.00    +0.008 A 
ATOM     23  C   UNL     1      -8.442  -3.382   1.176  0.00  0.00    +0.049 A 
ATOM     24  C   UNL     1      -9.091  -3.899   0.066  0.00  0.00    +0.161 A 
ATOM     25  C   UNL     1      -8.718  -3.485  -1.209  0.00  0.00    +0.162 A 
ATOM     26  C   UNL     1      -7.703  -2.555  -1.363  0.00  0.00    +0.053 A 
BRANCH  25  27
ATOM     27  O   UNL     1      -9.352  -3.990  -2.302  0.00  0.00    -0.491 OA
ATOM     28  C   UNL     1      -8.917  -3.519  -3.579  0.00  0.00    +0.277 C 
ENDBRANCH  25  27
BRANCH  24  29
ATOM     29  O   UNL     1     -10.090  -4.809   0.222  0.00  0.00    -0.491 OA
ATOM     30  C   UNL     1     -10.419  -5.187   1.561  0.00  0.00    +0.277 C 
ENDBRANCH  24  29
ENDBRANCH   5  21
BRANCH  11  31
ATOM     31  C   UNL     1      -2.394   4.133  -0.990  0.00  0.00    +0.338 C 
ATOM     32  O   UNL     1      -2.780   5.255  -1.259  0.00  0.00    -0.245 OA
BRANCH  31  33
ATOM     33  O   UNL     1      -1.102   3.797  -1.189  0.00  0.00    -0.458 OA
BRANCH  33  34
ATOM     34  C   UNL     1      -0.244   4.808  -1.720  0.00  0.00    +0.177 C 
ATOM     35  C   UNL     1      -0.206   4.715  -3.259  0.00  0.00    +0.044 C 
ATOM     36  C   UNL     1       1.262   5.051  -3.623  0.00  0.00    +0.004 C 
ATOM     37  C   UNL     1       2.062   4.365  -2.488  0.00  0.00    +0.004 C 
ATOM     38  C   UNL     1       1.198   4.586  -1.230  0.00  0.00    +0.044 C 
ENDBRANCH  33  34
ENDBRANCH  31  33
ENDBRANCH  11  31
TORSDOF 7
