REMARK  Name = ZINC41035641
REMARK  4 active torsions:
REMARK  status: ('A' for Active; 'I' for Inactive)
REMARK    1  A    between atoms: C_1  and  C_2
REMARK    2  A    between atoms: C_7  and  C_9
REMARK    3  A    between atoms: C_7  and  N_20
REMARK    4  A    between atoms: C_11  and  C_14
REMARK                            x       y       z     vdW  Elec       q    Type
REMARK                         _______ _______ _______ _____ _____    ______ ____
ROOT
ATOM      1  C   UNL     1      -0.019   1.526   0.010  0.00  0.00    +0.007 C 
ATOM      2  C   UNL     1       0.002  -0.004   0.002  0.00  0.00    -0.015 C 
ATOM      3  C   UNL     1       0.718  -0.497  -1.257  0.00  0.00    +0.003 C 
ATOM      4  C   UNL     1       0.739  -2.027  -1.265  0.00  0.00    -0.001 C 
ATOM      5  C   UNL     1       1.479  -2.534  -0.026  0.00  0.00    -0.004 C 
ATOM      6  C   UNL     1       0.763  -2.041   1.233  0.00  0.00    +0.010 C 
ATOM      7  C   UNL     1       0.742  -0.511   1.242  0.00  0.00    -0.001 C 
ENDROOT
BRANCH   6   8
ATOM      8  C   UNL     1      -0.651  -2.562   1.244  0.00  0.00    +0.216 A 
ATOM      9  N   UNL     1      -1.003  -3.815   1.338  0.00  0.00    -0.197 NA
ATOM     10  C   UNL     1      -2.336  -3.920   1.316  0.00  0.00    +0.175 A 
ATOM     11  N   UNL     1      -2.852  -2.729   1.208  0.00  0.00    -0.061 NA
ATOM     12  O   UNL     1      -1.762  -1.819   1.164  0.00  0.00    -0.340 OA
BRANCH  10  13
ATOM     13  C   UNL     1      -3.115  -5.207   1.403  0.00  0.00    +0.060 C 
ATOM     14  C   UNL     1      -3.968  -5.373   0.144  0.00  0.00    +0.011 C 
ATOM     15  C   UNL     1      -4.759  -6.679   0.232  0.00  0.00    +0.001 C 
ATOM     16  C   UNL     1      -5.668  -6.644   1.462  0.00  0.00    +0.000 C 
ATOM     17  C   UNL     1      -4.815  -6.478   2.722  0.00  0.00    +0.001 C 
ATOM     18  C   UNL     1      -4.024  -5.171   2.634  0.00  0.00    +0.011 C 
ENDBRANCH  10  13
ENDBRANCH   6   8
BRANCH   6  19
ATOM     19  N   UNL     1       1.473  -2.527   2.423  0.00  0.00    +0.388 N 
ATOM     20  H   UNL     1       2.420  -2.178   2.416  0.00  0.00    -0.089 HD
ATOM     21  H   UNL     1       1.001  -2.202   3.253  0.00  0.00    -0.089 HD
ATOM     22  H   UNL     1       1.487  -3.536   2.418  0.00  0.00    -0.089 HD
ENDBRANCH   6  19
TORSDOF 3
