REMARK  Name = ZINC21664215
REMARK  6 active torsions:
REMARK  status: ('A' for Active; 'I' for Inactive)
REMARK    1  A    between atoms: C_1  and  C_2
REMARK    2  A    between atoms: N_7  and  C_9
REMARK    3  A    between atoms: C_9  and  C_10
REMARK    4  A    between atoms: C_10  and  C_11
REMARK    5  A    between atoms: C_11  and  N_12
REMARK    6  A    between atoms: C_13  and  C_15
REMARK                            x       y       z     vdW  Elec       q    Type
REMARK                         _______ _______ _______ _____ _____    ______ ____
ROOT
ATOM      1  C   UNL     1      -0.927   1.718   3.671  0.00  0.00    +0.078 C 
ATOM      2  C   UNL     1      -0.946   3.249   3.682  0.00  0.00    +0.032 C 
ATOM      3  C   UNL     1      -1.608   3.737   4.973  0.00  0.00    +0.108 C 
ATOM      4  N   UNL     1      -0.861   3.229   6.131  0.00  0.00    -0.308 N 
ATOM      5  C   UNL     1      -0.871   1.761   6.167  0.00  0.00    +0.108 C 
ATOM      6  C   UNL     1      -0.186   1.214   4.912  0.00  0.00    +0.032 C 
ATOM      7  C   UNL     1      -1.356   3.757   7.311  0.00  0.00    +0.184 A 
ATOM      8  N   UNL     1      -2.333   4.606   7.485  0.00  0.00    -0.139 NA
ATOM      9  N   UNL     1      -2.703   5.037   8.755  0.00  0.00    -0.169 N 
ATOM     10  C   UNL     1      -3.696   5.915   9.072  0.00  0.00    +0.279 A 
ATOM     11  O   UNL     1      -4.373   6.413   8.186  0.00  0.00    -0.265 OA
ATOM     12  C   UNL     1      -3.945   6.249  10.411  0.00  0.00    +0.040 A 
ATOM     13  C   UNL     1      -3.182   5.681  11.399  0.00  0.00    +0.053 A 
ATOM     14  N   UNL     1      -2.217   4.825  11.053  0.00  0.00    -0.226 NA
ATOM     15  C   UNL     1      -1.991   4.521   9.802  0.00  0.00    +0.201 A 
ATOM     16  S   UNL     1      -0.828   3.447   8.988  0.00  0.00    -0.013 S 
ATOM     17  C   UNL     1      -3.385   5.974  12.860  0.00  0.00    +0.056 C 
ATOM     18  C   UNL     1      -4.203   7.252  13.040  0.00  0.00    +0.006 C 
ATOM     19  C   UNL     1      -5.463   7.147  12.173  0.00  0.00    +0.005 C 
ATOM     20  C   UNL     1      -5.048   7.231  10.705  0.00  0.00    +0.042 C 
ENDROOT
BRANCH   1  22
ATOM     21  N   UNL     1      -0.698   1.558   1.213  0.00  0.00    -0.315 N 
ATOM     22  C   UNL     1      -0.222   1.232   2.431  0.00  0.00    +0.216 C 
ATOM     23  O   UNL     1       0.774   0.548   2.529  0.00  0.00    -0.276 OA
ATOM     24  H   UNL     1      -1.602   2.179   1.124  0.00  0.00    +0.149 HD
BRANCH  21  25
ATOM     25  C   UNL     1      -0.013   1.086   0.008  0.00  0.00    +0.102 C 
BRANCH  25  26
ATOM     26  C   UNL     1      -0.753   1.593  -1.232  0.00  0.00    +0.000 C 
BRANCH  26  27
ATOM     27  C   UNL     1      -0.037   1.099  -2.490  0.00  0.00    -0.077 C 
BRANCH  27  33
ATOM     28  C   UNL     1      -0.554   0.703  -7.366  0.00  0.00    +0.005 C 
ATOM     29  C   UNL     1      -1.095   1.359  -6.095  0.00  0.00    -0.031 C 
ATOM     30  C   UNL     1      -1.044   2.882  -6.244  0.00  0.00    -0.001 C 
ATOM     31  C   UNL     1      -1.533   3.531  -4.946  0.00  0.00    -0.018 C 
ATOM     32  C   UNL     1      -0.664   3.049  -3.782  0.00  0.00    -0.079 C 
ATOM     33  N   UNL     1      -0.747   1.586  -3.680  0.00  0.00    +0.380 N 
ATOM     34  C   UNL     1      -0.239   0.940  -4.897  0.00  0.00    -0.076 C 
ATOM     35  H   UNL     1      -1.808   1.317  -3.576  0.00  0.00    -0.082 HD
ENDBRANCH  27  33
ENDBRANCH  26  27
ENDBRANCH  25  26
ENDBRANCH  21  25
ENDBRANCH   1  22
TORSDOF 5
