REMARK  Name = ZINC39016347
REMARK  11 active torsions:
REMARK  status: ('A' for Active; 'I' for Inactive)
REMARK    1  A    between atoms: C_1  and  C_2
REMARK    2  A    between atoms: C_2  and  C_4
REMARK    3  A    between atoms: C_7  and  S_10
REMARK    4  A    between atoms: S_10  and  N_13
REMARK    5  A    between atoms: N_13  and  C_14
REMARK    6  A    between atoms: N_13  and  C_29
REMARK    7  A    between atoms: C_14  and  C_15
REMARK    8  A    between atoms: C_20  and  O_27
REMARK    9  A    between atoms: O_27  and  C_28
REMARK   10  A    between atoms: C_32  and  O_35
REMARK   11  A    between atoms: O_35  and  C_36
REMARK                            x       y       z     vdW  Elec       q    Type
REMARK                         _______ _______ _______ _____ _____    ______ ____
ROOT
ATOM      1  N   UNL     1      -5.578  -3.220  -1.450  0.00  0.00    -0.202 N 
ENDROOT
BRANCH   1   2
ATOM      2  C   UNL     1      -6.191  -2.067  -1.952  0.00  0.00    +0.052 A 
ATOM      3  C   UNL     1      -5.610  -0.823  -1.740  0.00  0.00    +0.028 A 
ATOM      4  C   UNL     1      -6.215   0.315  -2.237  0.00  0.00    +0.047 A 
ATOM      5  C   UNL     1      -7.402   0.215  -2.948  0.00  0.00    +0.120 A 
ATOM      6  C   UNL     1      -7.983  -1.026  -3.160  0.00  0.00    +0.047 A 
ATOM      7  C   UNL     1      -7.376  -2.166  -2.668  0.00  0.00    +0.028 A 
BRANCH   5   8
ATOM      8  O   UNL     1      -7.997   1.336  -3.437  0.00  0.00    -0.495 OA
ATOM      9  C   UNL     1      -9.218   1.160  -4.159  0.00  0.00    +0.277 C 
ENDBRANCH   5   8
ENDBRANCH   1   2
BRANCH   1  10
ATOM     10  S   UNL     1      -5.353  -3.394   0.182  0.00  0.00    +0.075 S 
ATOM     11  O   UNL     1      -5.261  -4.790   0.432  0.00  0.00    -0.150 OA
ATOM     12  O   UNL     1      -6.321  -2.569   0.815  0.00  0.00    -0.150 OA
BRANCH  10  16
ATOM     13  C   UNL     1      -1.298  -1.630   1.173  0.00  0.00    +0.017 A 
ATOM     14  C   UNL     1      -2.430  -0.809   1.126  0.00  0.00    +0.013 A 
ATOM     15  C   UNL     1      -3.660  -1.353   0.824  0.00  0.00    +0.029 A 
ATOM     16  C   UNL     1      -3.777  -2.708   0.567  0.00  0.00    +0.109 A 
ATOM     17  C   UNL     1      -2.662  -3.527   0.611  0.00  0.00    +0.029 A 
ATOM     18  C   UNL     1      -1.424  -2.997   0.906  0.00  0.00    +0.013 A 
BRANCH  13  20
ATOM     19  C   UNL     1       0.149   0.417   1.780  0.00  0.00    +0.091 C 
ATOM     20  C   UNL     1       0.019  -1.056   1.494  0.00  0.00    +0.160 C 
ATOM     21  O   UNL     1       0.998  -1.770   1.528  0.00  0.00    -0.292 OA
ENDBRANCH  13  20
ENDBRANCH  10  16
ENDBRANCH   1  10
BRANCH   1  22
ATOM     22  C   UNL     1      -5.135  -4.273  -2.367  0.00  0.00    +0.148 C 
BRANCH  22  23
ATOM     23  C   UNL     1      -4.115  -3.697  -3.351  0.00  0.00    +0.118 C 
ATOM     24  C   UNL     1      -3.844  -4.749  -4.408  0.00  0.00    -0.003 C 
ATOM     25  C   UNL     1      -2.554  -5.163  -4.562  0.00  0.00    -0.004 A 
ATOM     26  C   UNL     1      -2.205  -6.175  -5.559  0.00  0.00    +0.055 A 
ATOM     27  C   UNL     1      -0.903  -6.558  -5.677  0.00  0.00    +0.121 A 
ATOM     28  C   UNL     1       0.094  -6.003  -4.867  0.00  0.00    +0.047 A 
ATOM     29  C   UNL     1      -0.169  -5.061  -3.925  0.00  0.00    +0.027 A 
ATOM     30  C   UNL     1      -1.482  -4.598  -3.723  0.00  0.00    +0.041 A 
ATOM     31  N   UNL     1      -1.726  -3.672  -2.795  0.00  0.00    -0.284 N 
ATOM     32  C   UNL     1      -2.934  -3.194  -2.553  0.00  0.00    +0.226 C 
ATOM     33  O   UNL     1      -3.094  -2.349  -1.692  0.00  0.00    -0.275 OA
ATOM     34  H   UNL     1      -0.982  -3.335  -2.272  0.00  0.00    +0.155 HD
BRANCH  27  35
ATOM     35  O   UNL     1      -0.566  -7.498  -6.600  0.00  0.00    -0.495 OA
ATOM     36  C   UNL     1       0.813  -7.862  -6.681  0.00  0.00    +0.277 C 
ENDBRANCH  27  35
ENDBRANCH  22  23
ENDBRANCH   1  22
TORSDOF 8
