REMARK  Name = ZINC13600793
REMARK  5 active torsions:
REMARK  status: ('A' for Active; 'I' for Inactive)
REMARK    1  A    between atoms: C_4  and  C_7
REMARK    2  A    between atoms: C_12  and  S_28
REMARK    3  A    between atoms: C_20  and  C_25
REMARK    4  A    between atoms: S_28  and  C_29
REMARK    5  A    between atoms: C_34  and  N_35
REMARK                            x       y       z     vdW  Elec       q    Type
REMARK                         _______ _______ _______ _____ _____    ______ ____
ROOT
ATOM      1  C   UNL     1       2.616   7.890   0.424  0.00  0.00    +0.104 C 
ATOM      2  C   UNL     1       3.783   7.256  -0.322  0.00  0.00    +0.024 C 
ATOM      3  C   UNL     1       3.560   7.329  -1.842  0.00  0.00    +0.022 C 
ATOM      4  C   UNL     1       4.117   6.016  -2.424  0.00  0.00    +0.070 C 
ATOM      5  C   UNL     1       4.664   5.203  -1.232  0.00  0.00    +0.101 C 
ATOM      6  C   UNL     1       3.884   5.754  -0.008  0.00  0.00    +0.045 C 
ATOM      7  C   UNL     1       2.530   5.097   0.004  0.00  0.00    -0.021 A 
ATOM      8  C   UNL     1       2.473   3.716  -0.002  0.00  0.00    +0.021 A 
ATOM      9  C   UNL     1       1.238   3.064   0.007  0.00  0.00    +0.064 A 
ATOM     10  C   UNL     1       0.056   3.810   0.016  0.00  0.00    +0.017 A 
ATOM     11  C   UNL     1       0.116   5.174   0.029  0.00  0.00    +0.024 A 
ATOM     12  C   UNL     1       1.348   5.825   0.020  0.00  0.00    +0.031 A 
ATOM     13  N   UNL     1       1.374   7.218   0.026  0.00  0.00    -0.336 N 
ATOM     14 CL   UNL     1       6.434   5.484  -1.032  0.00  0.00    -0.120 Cl
ATOM     15  H   UNL     1       0.591   7.731  -0.228  0.00  0.00    +0.147 HD
ENDROOT
BRANCH   1  19
ATOM     16  C   UNL     1       2.375  12.040  -0.560  0.00  0.00    +0.000 A 
ATOM     17  C   UNL     1       2.955  11.645   0.631  0.00  0.00    +0.000 A 
ATOM     18  C   UNL     1       3.033  10.302   0.950  0.00  0.00    +0.005 A 
ATOM     19  C   UNL     1       2.531   9.354   0.077  0.00  0.00    -0.027 A 
ATOM     20  C   UNL     1       1.956   9.749  -1.117  0.00  0.00    +0.005 A 
ATOM     21  C   UNL     1       1.873  11.093  -1.432  0.00  0.00    +0.000 A 
ENDBRANCH   1  19
BRANCH   9  22
ATOM     22  C   UNL     1       1.181   1.591  -0.001  0.00  0.00    +0.387 C 
ATOM     23  O   UNL     1       2.209   0.943  -0.014  0.00  0.00    -0.241 OA
ATOM     24  O   UNL     1      -0.011   0.963   0.007  0.00  0.00    -0.241 OA
ENDBRANCH   9  22
BRANCH   4  25
ATOM     25  S   UNL     1       5.452   6.374  -3.599  0.00  0.00    -0.118 S 
BRANCH  25  26
ATOM     26  C   UNL     1       5.893   4.792  -4.238  0.00  0.00    +0.038 A 
ATOM     27  C   UNL     1       5.233   3.652  -3.793  0.00  0.00    +0.017 A 
ATOM     28  C   UNL     1       5.577   2.415  -4.300  0.00  0.00    +0.001 A 
ATOM     29  C   UNL     1       6.584   2.308  -5.242  0.00  0.00    +0.002 A 
ATOM     30  C   UNL     1       7.247   3.438  -5.683  0.00  0.00    +0.034 A 
ATOM     31  C   UNL     1       6.904   4.680  -5.184  0.00  0.00    +0.140 A 
BRANCH  31  32
ATOM     32  N   UNL     1       7.614   5.890  -5.656  0.00  0.00    +0.058 N 
ATOM     33  O   UNL     1       8.501   5.791  -6.485  0.00  0.00    -0.126 OA
ATOM     34  O   UNL     1       7.312   6.984  -5.215  0.00  0.00    -0.126 OA
ENDBRANCH  31  32
ENDBRANCH  25  26
ENDBRANCH   4  25
TORSDOF 5
