REMARK  Name = ZINC35706933
REMARK  11 active torsions:
REMARK  status: ('A' for Active; 'I' for Inactive)
REMARK    1  A    between atoms: C_1  and  C_2
REMARK    2  A    between atoms: C_2  and  C_3
REMARK    3  A    between atoms: C_3  and  C_4
REMARK    4  A    between atoms: C_4  and  C_5
REMARK    5  A    between atoms: C_5  and  C_6
REMARK    6  A    between atoms: C_6  and  C_7
REMARK    7  A    between atoms: C_10  and  C_13
REMARK    8  A    between atoms: N_15  and  C_16
REMARK    9  A    between atoms: N_15  and  C_38
REMARK   10  A    between atoms: C_16  and  C_17
REMARK   11  A    between atoms: C_31  and  C_33
REMARK                            x       y       z     vdW  Elec       q    Type
REMARK                         _______ _______ _______ _____ _____    ______ ____
ROOT
ATOM      1  C   UNL     1     -11.197  -6.314  -1.233  0.00  0.00    +0.238 C 
ATOM      2  O   UNL     1     -11.000  -5.191  -1.647  0.00  0.00    -0.273 OA
ATOM      3  N   UNL     1     -12.457  -6.750  -1.039  0.00  0.00    -0.252 N 
ATOM      4  C   UNL     1     -13.541  -5.950  -1.425  0.00  0.00    +0.061 A 
ATOM      5  C   UNL     1     -13.431  -4.568  -1.429  0.00  0.00    +0.025 A 
ATOM      6  C   UNL     1     -14.505  -3.792  -1.822  0.00  0.00    +0.002 A 
ATOM      7  C   UNL     1     -15.692  -4.384  -2.214  0.00  0.00    +0.002 A 
ATOM      8  C   UNL     1     -15.815  -5.763  -2.209  0.00  0.00    +0.028 A 
ATOM      9  C   UNL     1     -14.747  -6.544  -1.812  0.00  0.00    +0.068 A 
ATOM     10  N   UNL     1     -14.832  -7.944  -1.766  0.00  0.00    -0.316 N 
ATOM     11  C   UNL     1     -15.762  -8.780  -2.284  0.00  0.00    +0.092 A 
ATOM     12  C   UNL     1     -15.404 -10.048  -1.981  0.00  0.00    +0.020 A 
ATOM     13  C   UNL     1     -14.202  -9.986  -1.242  0.00  0.00    +0.025 A 
ATOM     14  C   UNL     1     -13.874  -8.696  -1.121  0.00  0.00    +0.052 A 
ATOM     15  C   UNL     1     -12.693  -8.068  -0.428  0.00  0.00    +0.194 C 
ENDROOT
BRANCH  15  16
ATOM     16  C   UNL     1     -12.996  -7.904   1.039  0.00  0.00    +0.131 A 
ATOM     17  C   UNL     1     -12.549  -8.697   2.029  0.00  0.00    +0.047 A 
ATOM     18  C   UNL     1     -13.073  -8.181   3.237  0.00  0.00    +0.041 A 
ATOM     19  C   UNL     1     -13.809  -7.104   2.913  0.00  0.00    +0.195 A 
ATOM     20  O   UNL     1     -13.755  -6.937   1.581  0.00  0.00    -0.466 OA
ENDBRANCH  15  16
BRANCH   1  21
ATOM     21  C   UNL     1     -10.031  -7.222  -0.936  0.00  0.00    +0.204 C 
BRANCH  21  24
ATOM     22  C   UNL     1      -7.996  -5.949  -0.516  0.00  0.00    +0.247 C 
ATOM     23  O   UNL     1      -7.050  -5.300  -0.915  0.00  0.00    -0.270 OA
ATOM     24  N   UNL     1      -8.791  -6.591  -1.395  0.00  0.00    -0.286 N 
BRANCH  22  28
ATOM     25  C   UNL     1      -8.798  -6.197   3.648  0.00  0.00    -0.047 A 
ATOM     26  C   UNL     1      -7.492  -6.096   3.203  0.00  0.00    +0.004 A 
ATOM     27  C   UNL     1      -7.225  -6.016   1.852  0.00  0.00    +0.013 A 
ATOM     28  C   UNL     1      -8.275  -6.036   0.933  0.00  0.00    +0.037 A 
ATOM     29  C   UNL     1      -9.591  -6.137   1.389  0.00  0.00    +0.013 A 
ATOM     30  C   UNL     1      -9.844  -6.223   2.742  0.00  0.00    +0.004 A 
BRANCH  25  31
ATOM     31  C   UNL     1      -9.083  -6.285   5.125  0.00  0.00    +0.035 C 
BRANCH  31  32
ATOM     32  C   UNL     1      -9.085  -7.752   5.558  0.00  0.00    +0.005 C 
BRANCH  32  33
ATOM     33  C   UNL     1      -9.374  -7.841   7.058  0.00  0.00    +0.000 C 
BRANCH  33  34
ATOM     34  C   UNL     1      -9.377  -9.309   7.490  0.00  0.00    -0.000 C 
BRANCH  34  36
ATOM     35  C   UNL     1      -9.668 -10.865   9.423  0.00  0.00    +0.004 C 
ATOM     36  C   UNL     1      -9.666  -9.397   8.990  0.00  0.00    -0.003 C 
ENDBRANCH  34  36
ENDBRANCH  33  34
ENDBRANCH  32  33
ENDBRANCH  31  32
ENDBRANCH  25  31
ENDBRANCH  22  28
BRANCH  24  37
ATOM     37  C   UNL     1      -8.415  -6.658  -2.809  0.00  0.00    +0.077 C 
ATOM     38  C   UNL     1      -6.967  -6.326  -3.172  0.00  0.00    +0.024 C 
ATOM     39  C   UNL     1      -8.086  -5.341  -3.516  0.00  0.00    +0.024 C 
ENDBRANCH  24  37
ENDBRANCH  21  24
ENDBRANCH   1  21
TORSDOF 10
