REMARK  Name = ZINC35400071
REMARK  11 active torsions:
REMARK  status: ('A' for Active; 'I' for Inactive)
REMARK    1  A    between atoms: C_1  and  C_2
REMARK    2  A    between atoms: N_10  and  C_11
REMARK    3  A    between atoms: C_11  and  C_12
REMARK    4  A    between atoms: N_14  and  C_15
REMARK    5  A    between atoms: C_16  and  C_23
REMARK    6  A    between atoms: C_18  and  C_22
REMARK    7  A    between atoms: C_20  and  C_21
REMARK    8  A    between atoms: N_26  and  C_29
REMARK    9  A    between atoms: C_29  and  C_30
REMARK   10  A    between atoms: C_33  and  O_36
REMARK   11  A    between atoms: O_36  and  C_37
REMARK                            x       y       z     vdW  Elec       q    Type
REMARK                         _______ _______ _______ _____ _____    ______ ____
ROOT
ATOM      1  C   UNL     1       0.272  -1.076   4.064  0.00  0.00    +0.044 C 
ATOM      2  C   UNL     1       0.106  -2.133   3.002  0.00  0.00    -0.050 A 
ATOM      3  C   UNL     1       0.545  -1.884   1.709  0.00  0.00    +0.005 A 
ATOM      4  C   UNL     1       0.403  -2.837   0.725  0.00  0.00    +0.027 A 
ATOM      5  C   UNL     1      -0.187  -4.063   1.026  0.00  0.00    +0.052 A 
ATOM      6  C   UNL     1      -0.629  -4.308   2.338  0.00  0.00    +0.026 A 
ATOM      7  C   UNL     1      -0.470  -3.330   3.321  0.00  0.00    +0.015 A 
ATOM      8  C   UNL     1      -1.195  -5.664   2.340  0.00  0.00    +0.103 A 
ATOM      9  C   UNL     1      -1.061  -6.149   1.041  0.00  0.00    +0.134 A 
ATOM     10  N   UNL     1      -0.456  -5.180   0.265  0.00  0.00    -0.325 N 
ATOM     11  C   UNL     1      -1.533  -7.453   0.762  0.00  0.00    +0.278 A 
ATOM     12  O   UNL     1      -1.439  -7.924  -0.359  0.00  0.00    -0.265 OA
ATOM     13  N   UNL     1      -2.090  -8.164   1.766  0.00  0.00    -0.293 N 
ATOM     14  C   UNL     1      -2.191  -7.633   3.011  0.00  0.00    +0.203 A 
ATOM     15  N   UNL     1      -1.762  -6.434   3.285  0.00  0.00    -0.235 NA
ENDROOT
BRANCH  10  16
ATOM     16  C   UNL     1      -0.145  -5.319  -1.160  0.00  0.00    +0.218 C 
BRANCH  16  17
ATOM     17  C   UNL     1       1.237  -5.900  -1.318  0.00  0.00    +0.237 C 
ATOM     18  O   UNL     1       1.897  -6.171  -0.337  0.00  0.00    -0.274 OA
ATOM     19  N   UNL     1       1.739  -6.118  -2.549  0.00  0.00    -0.284 N 
ATOM     20  H   UNL     1       1.185  -5.971  -3.332  0.00  0.00    +0.155 HD
BRANCH  19  21
ATOM     21  C   UNL     1       3.059  -6.557  -2.699  0.00  0.00    +0.039 A 
ATOM     22  C   UNL     1       3.333  -7.704  -3.433  0.00  0.00    -0.029 A 
ATOM     23  C   UNL     1       4.637  -8.134  -3.579  0.00  0.00    +0.008 A 
ATOM     24  C   UNL     1       5.670  -7.425  -2.994  0.00  0.00    -0.050 A 
ATOM     25  C   UNL     1       5.401  -6.283  -2.262  0.00  0.00    +0.008 A 
ATOM     26  C   UNL     1       4.100  -5.844  -2.118  0.00  0.00    -0.029 A 
ATOM     27  C   UNL     1       3.808  -4.595  -1.326  0.00  0.00    +0.045 C 
ATOM     28  C   UNL     1       7.092  -7.898  -3.155  0.00  0.00    +0.044 C 
ATOM     29  C   UNL     1       2.207  -8.478  -4.070  0.00  0.00    +0.045 C 
ENDBRANCH  19  21
ENDBRANCH  16  17
ENDBRANCH  10  16
BRANCH  13  30
ATOM     30  C   UNL     1      -2.590  -9.517   1.509  0.00  0.00    +0.161 C 
BRANCH  30  31
ATOM     31  C   UNL     1      -1.486 -10.514   1.751  0.00  0.00    -0.027 A 
ATOM     32  C   UNL     1      -0.641 -10.873   0.717  0.00  0.00    +0.009 A 
ATOM     33  C   UNL     1       0.372 -11.787   0.936  0.00  0.00    +0.046 A 
ATOM     34  C   UNL     1       0.541 -12.345   2.195  0.00  0.00    +0.120 A 
ATOM     35  C   UNL     1      -0.308 -11.983   3.231  0.00  0.00    +0.046 A 
ATOM     36  C   UNL     1      -1.316 -11.064   3.008  0.00  0.00    +0.009 A 
BRANCH  34  37
ATOM     37  O   UNL     1       1.536 -13.244   2.413  0.00  0.00    -0.495 OA
ATOM     38  C   UNL     1       1.650 -13.777   3.734  0.00  0.00    +0.277 C 
ENDBRANCH  34  37
ENDBRANCH  30  31
ENDBRANCH  13  30
TORSDOF 6
