REMARK  Name = ZINC00494676
REMARK  6 active torsions:
REMARK  status: ('A' for Active; 'I' for Inactive)
REMARK    1  A    between atoms: C_5  and  N_7
REMARK    2  A    between atoms: C_8  and  N_20
REMARK    3  A    between atoms: C_9  and  C_18
REMARK    4  A    between atoms: C_10  and  O_17
REMARK    5  A    between atoms: C_12  and  C_15
REMARK    6  A    between atoms: C_13  and  O_14
REMARK                            x       y       z     vdW  Elec       q    Type
REMARK                         _______ _______ _______ _____ _____    ______ ____
ROOT
ATOM      1  N   UNL     1       1.332   2.900  -0.001  0.00  0.00    -0.226 N 
ATOM      2  C   UNL     1       2.519   3.494  -0.364  0.00  0.00    +0.111 C 
ATOM      3  C   UNL     1       3.672   2.777  -0.392  0.00  0.00    +0.099 C 
ATOM      4  C   UNL     1       3.701   1.323  -0.016  0.00  0.00    +0.203 C 
ATOM      5  C   UNL     1       2.317   0.741  -0.016  0.00  0.00    +0.120 C 
ATOM      6  C   UNL     1       1.216   1.529  -0.001  0.00  0.00    +0.207 C 
ENDROOT
BRANCH   1  11
ATOM      7  C   UNL     1      -1.008   4.840   2.070  0.00  0.00    +0.002 A 
ATOM      8  C   UNL     1      -1.914   5.264   1.116  0.00  0.00    +0.001 A 
ATOM      9  C   UNL     1      -1.746   4.905  -0.209  0.00  0.00    +0.017 A 
ATOM     10  C   UNL     1      -0.668   4.126  -0.584  0.00  0.00    +0.040 A 
ATOM     11  C   UNL     1       0.241   3.694   0.374  0.00  0.00    +0.057 A 
ATOM     12  C   UNL     1       0.069   4.057   1.704  0.00  0.00    +0.025 A 
ATOM     13 BR   UNL     1      -0.434   3.642  -2.397  0.00  0.00    -0.048 Br
ENDBRANCH   1  11
BRANCH   2  14
ATOM     14  N   UNL     1       2.537   4.825  -0.706  0.00  0.00    -0.345 N 
ATOM     15  H   UNL     1       3.371   5.247  -0.966  0.00  0.00    +0.144 HD
ATOM     16  H   UNL     1       1.716   5.341  -0.688  0.00  0.00    +0.144 HD
ENDBRANCH   2  14
BRANCH   6  17
ATOM     17  O   UNL     1      -0.011   0.963   0.007  0.00  0.00    -0.494 OA
ATOM     18  H   UNL     1       0.002  -0.004   0.002  0.00  0.00    +0.294 HD
ENDBRANCH   6  17
BRANCH   5  19
ATOM     19  C   UNL     1       2.157  -0.682  -0.031  0.00  0.00    +0.103 C 
ATOM     20  N   UNL     1       2.030  -1.811  -0.043  0.00  0.00    -0.191 NA
ENDBRANCH   5  19
BRANCH   4  21
ATOM     21  O   UNL     1       4.268   1.186   1.288  0.00  0.00    -0.381 OA
ATOM     22  H   UNL     1       4.340   0.270   1.591  0.00  0.00    +0.211 HD
ENDBRANCH   4  21
BRANCH   3  23
ATOM     23  C   UNL     1       4.888   3.422  -0.787  0.00  0.00    +0.101 C 
ATOM     24  N   UNL     1       5.852   3.933  -1.101  0.00  0.00    -0.191 NA
ENDBRANCH   3  23
TORSDOF 6
