REMARK  Name = ZINC04601231
REMARK  3 active torsions:
REMARK  status: ('A' for Active; 'I' for Inactive)
REMARK    1  A    between atoms: C_1  and  C_2
REMARK    2  A    between atoms: C_7  and  C_12
REMARK    3  A    between atoms: N_13  and  C_14
REMARK                            x       y       z     vdW  Elec       q    Type
REMARK                         _______ _______ _______ _____ _____    ______ ____
ROOT
ATOM      1  C   UNL     1       5.862  -1.176  -1.144  0.00  0.00    +0.119 C 
ATOM      2  N   UNL     1       6.936  -1.290  -0.414  0.00  0.00    -0.255 NA
ENDROOT
BRANCH   2   3
ATOM      3  C   UNL     1       8.155  -1.459  -1.012  0.00  0.00    +0.066 A 
ATOM      4  C   UNL     1       8.297  -2.365  -2.068  0.00  0.00    +0.030 A 
ATOM      5  C   UNL     1       9.523  -2.536  -2.672  0.00  0.00    +0.030 A 
ATOM      6  C   UNL     1      10.622  -1.810  -2.233  0.00  0.00    +0.067 A 
ATOM      7  C   UNL     1      10.487  -0.903  -1.178  0.00  0.00    +0.069 A 
ATOM      8  C   UNL     1       9.256  -0.724  -0.572  0.00  0.00    +0.055 A 
ATOM      9  N   UNL     1      11.743  -0.337  -0.971  0.00  0.00    -0.306 N 
ATOM     10  H   UNL     1      11.962   0.331  -0.302  0.00  0.00    +0.170 HD
ATOM     11  C   UNL     1      12.602  -0.873  -1.859  0.00  0.00    +0.325 A 
ATOM     12  O   UNL     1      13.783  -0.595  -1.948  0.00  0.00    -0.247 OA
ATOM     13  N   UNL     1      11.955  -1.765  -2.633  0.00  0.00    -0.306 N 
ATOM     14  H   UNL     1      12.351  -2.287  -3.349  0.00  0.00    +0.170 HD
ENDBRANCH   2   3
BRANCH   1  20
ATOM     15  C   UNL     1      -0.019   1.526   0.010  0.00  0.00    +0.052 C 
ATOM     16  C   UNL     1       0.002  -0.004   0.002  0.00  0.00    +0.175 C 
ATOM     17  C   UNL     1       0.775  -0.535  -1.228  0.00  0.00    +0.083 C 
ATOM     18  C   UNL     1       2.175  -0.702  -0.670  0.00  0.00    -0.002 A 
ATOM     19  C   UNL     1       3.394  -0.871  -1.280  0.00  0.00    +0.016 A 
ATOM     20  C   UNL     1       4.551  -0.994  -0.501  0.00  0.00    -0.006 A 
ATOM     21  C   UNL     1       4.450  -0.944   0.893  0.00  0.00    +0.013 A 
ATOM     22  C   UNL     1       3.224  -0.778   1.492  0.00  0.00    +0.046 A 
ATOM     23  C   UNL     1       2.069  -0.658   0.717  0.00  0.00    +0.124 A 
ATOM     24  O   UNL     1       0.769  -0.509   1.108  0.00  0.00    -0.488 OA
ENDBRANCH   1  20
TORSDOF 2
