REMARK  Name = ZINC16751513
REMARK  15 active torsions:
REMARK  status: ('A' for Active; 'I' for Inactive)
REMARK    1  A    between atoms: C_1  and  C_2
REMARK    2  A    between atoms: C_2  and  C_3
REMARK    3  A    between atoms: C_2  and  C_4
REMARK    4  A    between atoms: C_4  and  C_5
REMARK    5  A    between atoms: C_5  and  O_6
REMARK    6  A    between atoms: O_6  and  C_7
REMARK    7  A    between atoms: C_10  and  C_15
REMARK    8  A    between atoms: C_12  and  O_13
REMARK    9  A    between atoms: O_13  and  C_14
REMARK   10  A    between atoms: N_30  and  C_31
REMARK   11  A    between atoms: C_31  and  C_32
REMARK   12  A    between atoms: C_32  and  C_33
REMARK   13  A    between atoms: C_33  and  N_69
REMARK   14  A    between atoms: C_34  and  N_69
REMARK   15  A    between atoms: C_35  and  N_69
REMARK                            x       y       z     vdW  Elec       q    Type
REMARK                         _______ _______ _______ _____ _____    ______ ____
ROOT
ATOM      1  C   UNL     1      -3.753  -2.869  -0.515  0.00  0.00    +0.145 C 
ATOM      2  C   UNL     1      -4.964  -3.362   0.234  0.00  0.00    +0.072 A 
ATOM      3  C   UNL     1      -6.288  -3.812  -0.205  0.00  0.00    +0.199 A 
ATOM      4  O   UNL     1      -6.595  -3.840  -1.384  0.00  0.00    -0.287 OA
ATOM      5  C   UNL     1      -7.230  -4.229   0.852  0.00  0.00    +0.067 A 
ATOM      6  C   UNL     1      -8.515  -4.673   0.546  0.00  0.00    +0.053 A 
ATOM      7  C   UNL     1      -9.363  -5.054   1.565  0.00  0.00    +0.124 A 
ATOM      8  C   UNL     1      -8.937  -4.993   2.887  0.00  0.00    +0.042 A 
ATOM      9  C   UNL     1      -7.669  -4.555   3.200  0.00  0.00    +0.050 A 
ATOM     10  C   UNL     1      -6.797  -4.166   2.187  0.00  0.00    +0.140 A 
ATOM     11  O   UNL     1      -5.556  -3.736   2.482  0.00  0.00    -0.450 OA
ATOM     12  C   UNL     1      -4.660  -3.345   1.555  0.00  0.00    +0.199 A 
ATOM     13  C   UNL     1      -3.268  -2.856   1.708  0.00  0.00    +0.283 C 
ATOM     14  O   UNL     1      -2.689  -2.726   2.769  0.00  0.00    -0.267 OA
ATOM     15  N   UNL     1      -2.739  -2.573   0.505  0.00  0.00    -0.284 N 
ATOM     16  F   UNL     1     -10.610  -5.487   1.278  0.00  0.00    -0.205 F 
ENDROOT
BRANCH   1  20
ATOM     17  C   UNL     1      -4.718   0.679  -2.699  0.00  0.00    +0.162 A 
ATOM     18  C   UNL     1      -4.519   0.738  -1.329  0.00  0.00    +0.050 A 
ATOM     19  C   UNL     1      -4.212  -0.411  -0.625  0.00  0.00    +0.009 A 
ATOM     20  C   UNL     1      -4.093  -1.620  -1.287  0.00  0.00    -0.019 A 
ATOM     21  C   UNL     1      -4.291  -1.685  -2.653  0.00  0.00    +0.055 A 
ATOM     22  C   UNL     1      -4.604  -0.538  -3.364  0.00  0.00    +0.162 A 
BRANCH  22  23
ATOM     23  O   UNL     1      -4.798  -0.601  -4.709  0.00  0.00    -0.491 OA
ATOM     24  C   UNL     1      -4.664  -1.884  -5.324  0.00  0.00    +0.277 C 
ENDBRANCH  22  23
BRANCH  17  25
ATOM     25  O   UNL     1      -5.025   1.808  -3.393  0.00  0.00    -0.488 OA
BRANCH  25  26
ATOM     26  C   UNL     1      -5.126   3.022  -2.645  0.00  0.00    +0.229 C 
BRANCH  26  27
ATOM     27  C   UNL     1      -5.476   4.174  -3.588  0.00  0.00    +0.044 C 
BRANCH  27  29
ATOM     28  C   UNL     1      -5.811   6.645  -3.744  0.00  0.00    +0.007 C 
ATOM     29  C   UNL     1      -5.584   5.473  -2.787  0.00  0.00    -0.014 C 
ATOM     30  C   UNL     1      -6.761   5.376  -1.813  0.00  0.00    +0.007 C 
ENDBRANCH  27  29
ENDBRANCH  26  27
ENDBRANCH  25  26
ENDBRANCH  17  25
ENDBRANCH   1  20
BRANCH  15  31
ATOM     31  C   UNL     1      -1.388  -2.064   0.255  0.00  0.00    +0.107 C 
BRANCH  31  32
ATOM     32  C   UNL     1      -1.409  -0.535   0.263  0.00  0.00    +0.000 C 
BRANCH  32  33
ATOM     33  C   UNL     1       0.002  -0.004   0.002  0.00  0.00    -0.078 C 
BRANCH  33  36
ATOM     34  C   UNL     1       1.346   2.010   0.000  0.00  0.00    -0.097 C 
ATOM     35  C   UNL     1      -0.802   1.987  -1.117  0.00  0.00    -0.097 C 
ATOM     36  N   UNL     1      -0.030   1.473   0.034  0.00  0.00    +0.376 N 
ATOM     37  H   UNL     1      -0.486   1.778   0.903  0.00  0.00    -0.083 HD
ENDBRANCH  33  36
ENDBRANCH  32  33
ENDBRANCH  31  32
ENDBRANCH  15  31
TORSDOF 10
