REMARK  Name = ZINC22801620
REMARK  9 active torsions:
REMARK  status: ('A' for Active; 'I' for Inactive)
REMARK    1  A    between atoms: C_1  and  C_2
REMARK    2  A    between atoms: C_3  and  C_33
REMARK    3  A    between atoms: N_4  and  C_27
REMARK    4  A    between atoms: C_5  and  N_9
REMARK    5  A    between atoms: C_6  and  C_7
REMARK    6  A    between atoms: C_10  and  C_12
REMARK    7  A    between atoms: C_12  and  N_13
REMARK    8  A    between atoms: N_16  and  C_19
REMARK    9  A    between atoms: C_19  and  C_20
REMARK                            x       y       z     vdW  Elec       q    Type
REMARK                         _______ _______ _______ _____ _____    ______ ____
ROOT
ATOM      1  N   UNL     1      -1.453   4.293   0.353  0.00  0.00    -0.270 N 
ATOM      2  C   UNL     1      -2.733   3.880   0.263  0.00  0.00    +0.232 C 
ATOM      3  O   UNL     1      -2.982   2.698   0.154  0.00  0.00    -0.274 OA
ATOM      4  H   UNL     1      -1.228   5.363   0.475  0.00  0.00    +0.156 HD
ENDROOT
BRANCH   1   9
ATOM      5  C   UNL     1       1.488   0.396  -0.953  0.00  0.00    +0.047 C 
ATOM      6  C   UNL     1       0.930   1.620  -0.272  0.00  0.00    -0.011 A 
ATOM      7  C   UNL     1       1.488   2.296   0.745  0.00  0.00    +0.022 A 
ATOM      8  N   UNL     1       0.678   3.344   1.090  0.00  0.00    -0.329 N 
ATOM      9  C   UNL     1      -0.420   3.369   0.292  0.00  0.00    +0.124 A 
ATOM     10  C   UNL     1      -0.329   2.304  -0.593  0.00  0.00    +0.095 A 
ATOM     11  C   UNL     1       2.798   1.952   1.405  0.00  0.00    +0.064 C 
BRANCH   8  12
ATOM     12  C   UNL     1       0.957   4.302   2.163  0.00  0.00    +0.089 C 
ATOM     13  C   UNL     1      -0.203   4.301   3.161  0.00  0.00    +0.025 C 
ATOM     14  C   UNL     1       0.089   5.301   4.282  0.00  0.00    +0.002 C 
ATOM     15  C   UNL     1       0.248   6.702   3.687  0.00  0.00    +0.000 C 
ATOM     16  C   UNL     1       1.408   6.703   2.689  0.00  0.00    +0.002 C 
ATOM     17  C   UNL     1       1.117   5.702   1.568  0.00  0.00    +0.025 C 
ENDBRANCH   8  12
BRANCH  10  18
ATOM     18  C   UNL     1      -1.271   1.944  -1.610  0.00  0.00    +0.103 C 
ATOM     19  N   UNL     1      -2.018   1.659  -2.417  0.00  0.00    -0.191 NA
ENDBRANCH  10  18
ENDBRANCH   1   9
BRANCH   2  20
ATOM     20  C   UNL     1      -3.854   4.886   0.297  0.00  0.00    +0.180 C 
BRANCH  20  21
ATOM     21  N   UNL     1      -5.144   4.183   0.277  0.00  0.00    -0.298 NA
ATOM     22  C   UNL     1      -5.408   3.605  -1.048  0.00  0.00    +0.066 C 
ATOM     23  C   UNL     1      -6.719   2.817  -1.006  0.00  0.00    -0.063 C 
ATOM     24  N   UNL     1      -7.812   3.710  -0.596  0.00  0.00    +0.387 N 
ATOM     25  C   UNL     1      -7.548   4.288   0.729  0.00  0.00    -0.063 C 
ATOM     26  C   UNL     1      -6.237   5.076   0.686  0.00  0.00    +0.066 C 
ATOM     27  H   UNL     1      -7.866   4.535  -1.322  0.00  0.00    -0.081 HD
BRANCH  24  28
ATOM     28  C   UNL     1      -9.102   3.007  -0.617  0.00  0.00    +0.019 C 
BRANCH  28  29
ATOM     29  C   UNL     1      -9.453   2.643  -2.036  0.00  0.00    +0.199 C 
ATOM     30  O   UNL     1      -8.703   2.939  -2.942  0.00  0.00    -0.278 OA
ATOM     31  N   UNL     1     -10.601   1.987  -2.299  0.00  0.00    -0.303 N 
ATOM     32  C   UNL     1     -11.593   1.563  -1.301  0.00  0.00    +0.108 C 
ATOM     33  C   UNL     1     -12.722   0.832  -2.058  0.00  0.00    +0.020 C 
ATOM     34  C   UNL     1     -12.023   0.382  -3.369  0.00  0.00    +0.020 C 
ATOM     35  C   UNL     1     -11.066   1.571  -3.635  0.00  0.00    +0.108 C 
ENDBRANCH  28  29
ENDBRANCH  24  28
ENDBRANCH  20  21
ENDBRANCH   2  20
TORSDOF 7
