REMARK  Name = ZINC39780130
REMARK  9 active torsions:
REMARK  status: ('A' for Active; 'I' for Inactive)
REMARK    1  A    between atoms: C_1  and  C_2
REMARK    2  A    between atoms: C_2  and  O_3
REMARK    3  A    between atoms: O_3  and  C_4
REMARK    4  A    between atoms: C_4  and  C_6
REMARK    5  A    between atoms: C_7  and  C_35
REMARK    6  A    between atoms: C_14  and  C_15
REMARK    7  A    between atoms: C_25  and  C_27
REMARK    8  A    between atoms: C_30  and  S_33
REMARK    9  A    between atoms: S_33  and  C_34
REMARK                            x       y       z     vdW  Elec       q    Type
REMARK                         _______ _______ _______ _____ _____    ______ ____
ROOT
ATOM      1  C   UNL     1      -2.793  -2.430   0.237  0.00  0.00    +0.085 C 
ATOM      2  C   UNL     1      -2.976  -3.744  -0.086  0.00  0.00    +0.053 C 
ATOM      3  N   UNL     1      -4.196  -4.226  -0.292  0.00  0.00    -0.228 NA
ATOM      4  C   UNL     1      -5.298  -3.528  -0.210  0.00  0.00    +0.178 A 
ATOM      5  N   UNL     1      -5.339  -2.188   0.102  0.00  0.00    -0.275 N 
ATOM      6  C   UNL     1      -6.529  -1.575   0.155  0.00  0.00    +0.268 A 
ATOM      7  O   UNL     1      -6.616  -0.393   0.426  0.00  0.00    -0.266 OA
ATOM      8  C   UNL     1      -7.734  -2.384  -0.128  0.00  0.00    +0.080 A 
ATOM      9  C   UNL     1      -9.062  -2.007  -0.140  0.00  0.00    +0.026 C 
ATOM     10  S   UNL     1      -7.005  -3.983  -0.448  0.00  0.00    -0.046 S 
ATOM     11  C   UNL     1      -4.017  -1.551   0.358  0.00  0.00    +0.162 C 
ATOM     12  C   UNL     1      -1.782  -4.655  -0.211  0.00  0.00    +0.066 C 
ENDROOT
BRANCH   9  13
ATOM     13  C   UNL     1     -10.052  -2.946  -0.437  0.00  0.00    -0.018 C 
ATOM     14  C   UNL     1     -11.428  -2.730  -0.497  0.00  0.00    +0.003 A 
ATOM     15  C   UNL     1     -12.225  -1.582  -0.294  0.00  0.00    +0.010 A 
ATOM     16  C   UNL     1     -13.573  -1.667  -0.421  0.00  0.00    +0.001 A 
ATOM     17  C   UNL     1     -14.204  -2.871  -0.750  0.00  0.00    +0.002 A 
ATOM     18  C   UNL     1     -13.506  -4.011  -0.959  0.00  0.00    +0.026 A 
ATOM     19  C   UNL     1     -12.088  -4.002  -0.845  0.00  0.00    +0.043 A 
ATOM     20  N   UNL     1     -11.197  -4.956  -0.995  0.00  0.00    -0.380 N 
ATOM     21  C   UNL     1      -9.856  -4.409  -0.767  0.00  0.00    +0.149 C 
ATOM     22  H   UNL     1     -11.395  -5.878  -1.224  0.00  0.00    +0.160 HD
ENDBRANCH   9  13
BRANCH  11  23
ATOM     23  C   UNL     1      -3.863  -0.407  -0.610  0.00  0.00    -0.020 A 
ATOM     24  C   UNL     1      -4.154  -0.593  -1.950  0.00  0.00    +0.007 A 
ATOM     25  C   UNL     1      -4.014   0.453  -2.840  0.00  0.00    +0.015 A 
ATOM     26  C   UNL     1      -3.581   1.694  -2.389  0.00  0.00    +0.008 A 
ATOM     27  C   UNL     1      -3.291   1.878  -1.042  0.00  0.00    +0.015 A 
ATOM     28  C   UNL     1      -3.438   0.828  -0.157  0.00  0.00    +0.007 A 
BRANCH  26  29
ATOM     29  S   UNL     1      -3.400   3.032  -3.522  0.00  0.00    -0.129 S 
ATOM     30  C   UNL     1      -2.826   4.408  -2.488  0.00  0.00    +0.090 C 
ENDBRANCH  26  29
ENDBRANCH  11  23
BRANCH   1  31
ATOM     31  C   UNL     1      -1.504  -1.911   0.457  0.00  0.00    +0.339 C 
ATOM     32  O   UNL     1      -0.542  -2.656   0.470  0.00  0.00    -0.245 OA
BRANCH  31  33
ATOM     33  O   UNL     1      -1.335  -0.585   0.652  0.00  0.00    -0.462 OA
BRANCH  33  35
ATOM     34  C   UNL     1      -0.005   1.389   1.070  0.00  0.00    +0.048 C 
ATOM     35  C   UNL     1       0.002  -0.128   0.870  0.00  0.00    +0.229 C 
ENDBRANCH  33  35
ENDBRANCH  31  33
ENDBRANCH   1  31
TORSDOF 6
