REMARK  Name = ZINC22325133
REMARK  7 active torsions:
REMARK  status: ('A' for Active; 'I' for Inactive)
REMARK    1  A    between atoms: C_1  and  C_2
REMARK    2  A    between atoms: C_5  and  C_36
REMARK    3  A    between atoms: N_8  and  C_10
REMARK    4  A    between atoms: C_10  and  C_11
REMARK    5  A    between atoms: N_16  and  C_17
REMARK    6  A    between atoms: C_17  and  C_19
REMARK    7  A    between atoms: C_22  and  N_25
REMARK                            x       y       z     vdW  Elec       q    Type
REMARK                         _______ _______ _______ _____ _____    ______ ____
ROOT
ATOM      1  C   UNL     1       7.188  -1.899   0.316  0.00  0.00    +0.269 C 
ATOM      2  O   UNL     1       7.168  -0.772   0.780  0.00  0.00    -0.268 OA
ENDROOT
BRANCH   1   8
ATOM      3  C   UNL     1       3.537  -2.700   3.061  0.00  0.00    +0.008 A 
ATOM      4  C   UNL     1       3.740  -1.421   3.398  0.00  0.00    +0.067 A 
ATOM      5  S   UNL     1       5.146  -0.992   2.389  0.00  0.00    -0.061 S 
ATOM      6  C   UNL     1       5.367  -2.469   1.618  0.00  0.00    +0.163 A 
ATOM      7  N   UNL     1       4.380  -3.245   2.144  0.00  0.00    -0.341 N 
ATOM      8  N   UNL     1       6.287  -2.801   0.714  0.00  0.00    -0.152 NA
ATOM      9  H   UNL     1       4.279  -4.170   1.869  0.00  0.00    +0.167 HD
BRANCH   3  10
ATOM     10  C   UNL     1       2.422  -3.505   3.677  0.00  0.00    -0.024 C 
BRANCH  10  16
ATOM     11  C   UNL     1      -0.795  -1.759   0.426  0.00  0.00    +0.005 C 
ATOM     12  C   UNL     1      -0.135  -3.027   0.972  0.00  0.00    -0.031 C 
ATOM     13  C   UNL     1      -1.213  -3.977   1.503  0.00  0.00    +0.003 C 
ATOM     14  C   UNL     1      -0.538  -5.206   2.118  0.00  0.00    -0.031 C 
ATOM     15  C   UNL     1       0.430  -4.756   3.214  0.00  0.00    -0.075 C 
ATOM     16  N   UNL     1       1.451  -3.872   2.638  0.00  0.00    +0.384 N 
ATOM     17  C   UNL     1       0.819  -2.657   2.110  0.00  0.00    -0.075 C 
ATOM     18  C   UNL     1       0.233  -5.962   1.033  0.00  0.00    +0.005 C 
ATOM     19  H   UNL     1       1.927  -4.354   1.890  0.00  0.00    -0.081 HD
ENDBRANCH  10  16
ENDBRANCH   3  10
ENDBRANCH   1   8
BRANCH   1  20
ATOM     20  C   UNL     1       8.211  -2.268  -0.688  0.00  0.00    +0.039 A 
ATOM     21  C   UNL     1       8.231  -3.557  -1.225  0.00  0.00    +0.015 A 
ATOM     22  C   UNL     1       9.184  -3.897  -2.160  0.00  0.00    +0.027 A 
ATOM     23  C   UNL     1      10.125  -2.958  -2.569  0.00  0.00    +0.051 A 
ATOM     24  C   UNL     1      10.107  -1.674  -2.036  0.00  0.00    +0.027 A 
ATOM     25  C   UNL     1       9.153  -1.327  -1.105  0.00  0.00    +0.015 A 
BRANCH  23  26
ATOM     26  N   UNL     1      11.090  -3.307  -3.518  0.00  0.00    -0.267 N 
ATOM     27  C   UNL     1      12.280  -3.827  -3.110  0.00  0.00    +0.207 A 
ATOM     28  N   UNL     1      13.225  -4.175  -3.929  0.00  0.00    -0.237 NA
ATOM     29  C   UNL     1      13.087  -4.040  -5.272  0.00  0.00    +0.078 A 
ATOM     30  C   UNL     1      14.103  -4.414  -6.154  0.00  0.00    +0.028 A 
ATOM     31  C   UNL     1      13.920  -4.260  -7.510  0.00  0.00    +0.002 A 
ATOM     32  C   UNL     1      12.737  -3.736  -8.013  0.00  0.00    +0.001 A 
ATOM     33  C   UNL     1      11.720  -3.359  -7.164  0.00  0.00    +0.015 A 
ATOM     34  C   UNL     1      11.884  -3.507  -5.788  0.00  0.00    +0.065 A 
ATOM     35  C   UNL     1      10.832  -3.128  -4.834  0.00  0.00    +0.266 A 
ATOM     36  O   UNL     1       9.771  -2.668  -5.213  0.00  0.00    -0.267 OA
ENDBRANCH  23  26
ENDBRANCH   1  20
TORSDOF 5
