REMARK  Name = ZINC40399210
REMARK  3 active torsions:
REMARK  status: ('A' for Active; 'I' for Inactive)
REMARK    1  A    between atoms: C_6  and  N_7
REMARK    2  A    between atoms: C_20  and  C_22
REMARK    3  A    between atoms: N_24  and  C_25
REMARK                            x       y       z     vdW  Elec       q    Type
REMARK                         _______ _______ _______ _____ _____    ______ ____
ROOT
ATOM      1  N   UNL     1      -1.253  -0.723   0.007  0.00  0.00    -0.285 N 
ATOM      2  C   UNL     1      -1.224  -2.090  -0.103  0.00  0.00    +0.202 A 
ATOM      3  N   UNL     1      -2.396  -2.773  -0.212  0.00  0.00    -0.295 N 
ATOM      4  H   UNL     1      -3.238  -2.292  -0.223  0.00  0.00    +0.172 HD
ATOM      5  C   UNL     1      -2.386  -4.120  -0.305  0.00  0.00    +0.258 A 
ATOM      6  O   UNL     1      -3.431  -4.746  -0.387  0.00  0.00    -0.267 OA
ATOM      7  C   UNL     1      -1.155  -4.784  -0.305  0.00  0.00    +0.069 A 
ATOM      8  C   UNL     1       0.009  -4.042  -0.213  0.00  0.00    +0.138 A 
ATOM      9  N   UNL     1      -0.063  -2.710  -0.108  0.00  0.00    -0.200 NA
ATOM     10  N   UNL     1       1.241  -4.671  -0.255  0.00  0.00    -0.270 N 
ATOM     11  C   UNL     1       1.350  -5.954  -0.641  0.00  0.00    +0.219 C 
ATOM     12  O   UNL     1       2.423  -6.513  -0.566  0.00  0.00    -0.275 OA
ATOM     13  C   UNL     1       0.155  -6.705  -1.165  0.00  0.00    +0.114 C 
ATOM     14  C   UNL     1      -1.098  -6.285  -0.394  0.00  0.00    +0.122 C 
ATOM     15  H   UNL     1      -2.102  -0.261   0.088  0.00  0.00    +0.155 HD
ATOM     16  H   UNL     1       2.038  -4.179  -0.002  0.00  0.00    +0.156 HD
ENDROOT
BRANCH   1  22
ATOM     17  C   UNL     1       1.022  -0.436  -0.752  0.00  0.00    +0.025 A 
ATOM     18  C   UNL     1       2.200   0.284  -0.755  0.00  0.00    +0.022 A 
ATOM     19  C   UNL     1       2.306   1.444  -0.007  0.00  0.00    +0.041 A 
ATOM     20  C   UNL     1       1.231   1.885   0.745  0.00  0.00    +0.022 A 
ATOM     21  C   UNL     1       0.051   1.169   0.752  0.00  0.00    +0.025 A 
ATOM     22  C   UNL     1      -0.058   0.004   0.002  0.00  0.00    +0.034 A 
ATOM     23 CL   UNL     1       3.789   2.347  -0.012  0.00  0.00    -0.084 Cl
ENDBRANCH   1  22
BRANCH  14  24
ATOM     24  C   UNL     1      -1.051  -6.868   0.995  0.00  0.00    +0.225 C 
ATOM     25  O   UNL     1      -1.063  -6.135   1.962  0.00  0.00    -0.275 OA
ATOM     26  N   UNL     1      -0.996  -8.204   1.164  0.00  0.00    -0.285 N 
ATOM     27  H   UNL     1      -0.917  -8.787   0.393  0.00  0.00    +0.155 HD
BRANCH  26  28
ATOM     28  C   UNL     1      -1.052  -8.750   2.451  0.00  0.00    +0.035 A 
ATOM     29  C   UNL     1      -1.701  -9.959   2.667  0.00  0.00    +0.025 A 
ATOM     30  C   UNL     1      -1.755 -10.496   3.938  0.00  0.00    +0.023 A 
ATOM     31  C   UNL     1      -1.163  -9.832   4.997  0.00  0.00    +0.059 A 
ATOM     32  C   UNL     1      -0.515  -8.626   4.786  0.00  0.00    +0.061 A 
ATOM     33  C   UNL     1      -0.454  -8.087   3.514  0.00  0.00    +0.044 A 
ATOM     34 CL   UNL     1       0.226  -7.794   6.117  0.00  0.00    -0.082 Cl
ATOM     35 CL   UNL     1      -1.233 -10.510   6.593  0.00  0.00    -0.082 Cl
ENDBRANCH  26  28
ENDBRANCH  14  24
TORSDOF 3
