REMARK  Name = ZINC06282125
REMARK  7 active torsions:
REMARK  status: ('A' for Active; 'I' for Inactive)
REMARK    1  A    between atoms: C_1  and  C_2
REMARK    2  A    between atoms: C_7  and  C_14
REMARK    3  A    between atoms: C_14  and  C_16
REMARK    4  A    between atoms: C_14  and  N_67
REMARK    5  A    between atoms: N_20  and  C_21
REMARK    6  A    between atoms: C_21  and  C_22
REMARK    7  A    between atoms: N_30  and  C_33
REMARK                            x       y       z     vdW  Elec       q    Type
REMARK                         _______ _______ _______ _____ _____    ______ ____
ROOT
ATOM      1  C   UNL     1       2.849   4.724   1.887  0.00  0.00    +0.039 C 
ENDROOT
BRANCH   1   8
ATOM      2  C   UNL     1       3.531  -0.316   8.031  0.00  0.00    +0.044 C 
ATOM      3  C   UNL     1       3.543   0.489   6.757  0.00  0.00    -0.048 A 
ATOM      4  C   UNL     1       4.283   0.043   5.670  0.00  0.00    +0.004 A 
ATOM      5  C   UNL     1       4.308   0.757   4.506  0.00  0.00    +0.010 A 
ATOM      6  C   UNL     1       3.582   1.949   4.408  0.00  0.00    -0.001 A 
ATOM      7  C   UNL     1       3.587   2.740   3.176  0.00  0.00    +0.017 A 
ATOM      8  C   UNL     1       2.865   3.887   3.139  0.00  0.00    +0.011 A 
ATOM      9  C   UNL     1       2.134   4.303   4.273  0.00  0.00    +0.251 A 
ATOM     10  O   UNL     1       1.495   5.340   4.220  0.00  0.00    -0.268 OA
ATOM     11  N   UNL     1       2.119   3.580   5.407  0.00  0.00    -0.322 N 
ATOM     12  H   UNL     1       1.602   3.893   6.166  0.00  0.00    +0.169 HD
ATOM     13  C   UNL     1       2.831   2.405   5.508  0.00  0.00    +0.049 A 
ATOM     14  C   UNL     1       2.821   1.661   6.684  0.00  0.00    +0.029 A 
ENDBRANCH   1   8
BRANCH   1  20
ATOM     15  C   UNL     1       3.163   6.966   1.027  0.00  0.00    -0.058 C 
ATOM     16  C   UNL     1       3.492   8.407   1.426  0.00  0.00    +0.086 C 
ATOM     17  N   UNL     1       4.832   8.452   2.027  0.00  0.00    -0.331 N 
ATOM     18  C   UNL     1       4.902   7.589   3.215  0.00  0.00    +0.086 C 
ATOM     19  C   UNL     1       4.572   6.149   2.816  0.00  0.00    -0.058 C 
ATOM     20  N   UNL     1       3.215   6.114   2.233  0.00  0.00    +0.391 N 
ATOM     21  H   UNL     1       2.545   6.473   2.924  0.00  0.00    -0.080 HD
BRANCH  17  22
ATOM     22  C   UNL     1       5.197   9.765   2.340  0.00  0.00    +0.065 A 
ATOM     23  C   UNL     1       6.461  10.034   2.846  0.00  0.00    +0.026 A 
ATOM     24  C   UNL     1       6.819  11.332   3.153  0.00  0.00    +0.002 A 
ATOM     25  C   UNL     1       5.921  12.364   2.958  0.00  0.00    +0.003 A 
ATOM     26  C   UNL     1       4.660  12.102   2.453  0.00  0.00    +0.040 A 
ATOM     27  C   UNL     1       4.296  10.806   2.138  0.00  0.00    +0.144 A 
ATOM     28  F   UNL     1       3.067  10.550   1.641  0.00  0.00    -0.204 F 
ENDBRANCH  17  22
ENDBRANCH   1  20
BRANCH   1  29
ATOM     29  C   UNL     1       1.463   4.715   1.295  0.00  0.00    +0.143 A 
ATOM     30  N   UNL     1       0.417   5.368   1.740  0.00  0.00    -0.115 NA
ATOM     31  N   UNL     1      -0.578   5.103   0.966  0.00  0.00    -0.023 NA
ATOM     32  N   UNL     1      -0.193   4.302   0.035  0.00  0.00    -0.044 NA
ATOM     33  N   UNL     1       1.058   4.035   0.206  0.00  0.00    -0.228 N 
BRANCH  33  34
ATOM     34  C   UNL     1       1.884   3.161  -0.630  0.00  0.00    +0.178 C 
BRANCH  34  35
ATOM     35  C   UNL     1       1.824   1.731  -0.089  0.00  0.00    +0.140 C 
ATOM     36  C   UNL     1       2.700   0.784  -0.948  0.00  0.00    +0.035 C 
ATOM     37  C   UNL     1       2.041  -0.592  -0.690  0.00  0.00    +0.031 C 
ATOM     38  C   UNL     1       0.621  -0.245  -0.201  0.00  0.00    +0.160 C 
ATOM     39  O   UNL     1       0.495   1.187  -0.237  0.00  0.00    -0.375 OA
ENDBRANCH  34  35
ENDBRANCH  33  34
ENDBRANCH   1  29
TORSDOF 6
