REMARK  Name = ZINC65055005
REMARK  7 active torsions:
REMARK  status: ('A' for Active; 'I' for Inactive)
REMARK    1  A    between atoms: C_1  and  C_2
REMARK    2  A    between atoms: C_5  and  C_8
REMARK    3  A    between atoms: C_9  and  C_18
REMARK    4  A    between atoms: N_10  and  C_13
REMARK    5  A    between atoms: C_21  and  C_23
REMARK    6  A    between atoms: N_25  and  C_26
REMARK    7  A    between atoms: C_26  and  C_27
REMARK                            x       y       z     vdW  Elec       q    Type
REMARK                         _______ _______ _______ _____ _____    ______ ____
ROOT
ATOM      1  C   UNL     1      -0.130  -4.280  -0.170  0.00  0.00    +0.075 A 
ATOM      2  C   UNL     1      -0.650  -5.090   0.831  0.00  0.00    +0.110 A 
ATOM      3  N   UNL     1      -0.139  -6.351   0.605  0.00  0.00    -0.326 N 
ATOM      4  C   UNL     1       0.650  -6.275  -0.488  0.00  0.00    +0.175 A 
ATOM      5  N   UNL     1       0.648  -5.053  -0.947  0.00  0.00    -0.345 N 
ATOM      6  H   UNL     1       1.137  -4.749  -1.727  0.00  0.00    +0.167 HD
ENDROOT
BRANCH   1  11
ATOM      7  C   UNL     1      -1.141   1.343  -0.874  0.00  0.00    +0.044 C 
ATOM      8  C   UNL     1      -0.876  -0.129  -0.690  0.00  0.00    -0.050 A 
ATOM      9  C   UNL     1      -1.929  -0.993  -0.450  0.00  0.00    +0.004 A 
ATOM     10  C   UNL     1      -1.694  -2.342  -0.280  0.00  0.00    +0.010 A 
ATOM     11  C   UNL     1      -0.390  -2.834  -0.352  0.00  0.00    +0.000 A 
ATOM     12  C   UNL     1       0.668  -1.957  -0.594  0.00  0.00    +0.010 A 
ATOM     13  C   UNL     1       0.418  -0.611  -0.767  0.00  0.00    +0.004 A 
ENDBRANCH   1  11
BRANCH   3  14
ATOM     14  C   UNL     1      -0.402  -7.550   1.403  0.00  0.00    +0.089 C 
ATOM     15  C   UNL     1       0.925  -8.141   1.924  0.00  0.00    +0.025 C 
ATOM     16  C   UNL     1       0.712  -9.673   1.854  0.00  0.00    +0.002 C 
ATOM     17  C   UNL     1      -0.097  -9.847   0.545  0.00  0.00    +0.002 C 
ATOM     18  C   UNL     1      -1.052  -8.635   0.527  0.00  0.00    +0.025 C 
ENDBRANCH   3  14
BRANCH   2  19
ATOM     19  C   UNL     1      -1.557  -4.687   1.909  0.00  0.00    +0.154 A 
ATOM     20  C   UNL     1      -1.361  -3.632   2.779  0.00  0.00    +0.052 A 
ATOM     21  C   UNL     1      -2.459  -3.603   3.639  0.00  0.00    +0.055 A 
ATOM     22  C   UNL     1      -3.288  -4.641   3.266  0.00  0.00    +0.190 A 
ATOM     23  O   UNL     1      -2.726  -5.279   2.217  0.00  0.00    -0.449 OA
BRANCH  22  24
ATOM     24  C   UNL     1      -4.561  -4.989   3.897  0.00  0.00    +0.280 C 
ATOM     25  O   UNL     1      -4.972  -4.336   4.839  0.00  0.00    -0.267 OA
ATOM     26  N   UNL     1      -5.279  -6.032   3.435  0.00  0.00    -0.305 N 
ATOM     27  H   UNL     1      -4.952  -6.552   2.685  0.00  0.00    +0.149 HD
BRANCH  26  28
ATOM     28  C   UNL     1      -6.555  -6.380   4.067  0.00  0.00    +0.141 C 
BRANCH  28  29
ATOM     29  C   UNL     1      -7.152  -7.574   3.368  0.00  0.00    -0.012 A 
ATOM     30  C   UNL     1      -7.999  -7.401   2.283  0.00  0.00    +0.008 A 
ATOM     31  C   UNL     1      -8.525  -8.528   1.671  0.00  0.00    +0.020 A 
ATOM     32  C   UNL     1      -8.191  -9.778   2.159  0.00  0.00    +0.111 A 
ATOM     33  N   UNL     1      -7.382  -9.904   3.193  0.00  0.00    -0.263 NA
ATOM     34  C   UNL     1      -6.858  -8.854   3.796  0.00  0.00    +0.115 A 
ENDBRANCH  28  29
ENDBRANCH  26  28
ENDBRANCH  22  24
ENDBRANCH   2  19
TORSDOF 6
