REMARK  Name = ZINC36597311
REMARK  20 active torsions:
REMARK  status: ('A' for Active; 'I' for Inactive)
REMARK    1  A    between atoms: C_1  and  C_2
REMARK    2  A    between atoms: C_5  and  C_7
REMARK    3  A    between atoms: C_7  and  N_8
REMARK    4  A    between atoms: N_8  and  C_9
REMARK    5  A    between atoms: C_9  and  C_11
REMARK    6  A    between atoms: C_9  and  C_21
REMARK    7  A    between atoms: C_14  and  O_19
REMARK    8  A    between atoms: C_15  and  O_17
REMARK    9  A    between atoms: O_17  and  C_18
REMARK   10  A    between atoms: O_19  and  C_20
REMARK   11  A    between atoms: N_23  and  C_24
REMARK   12  A    between atoms: C_24  and  C_25
REMARK   13  A    between atoms: C_24  and  C_26
REMARK   14  A    between atoms: C_24  and  C_27
REMARK   15  A    between atoms: C_27  and  C_28
REMARK   16  A    between atoms: C_28  and  C_29
REMARK   17  A    between atoms: C_28  and  C_30
REMARK   18  A    between atoms: C_28  and  C_31
REMARK   19  A    between atoms: C_32  and  C_34
REMARK   20  A    between atoms: C_37  and  O_40
REMARK                            x       y       z     vdW  Elec       q    Type
REMARK                         _______ _______ _______ _____ _____    ______ ____
ROOT
ATOM      1  C   UNL     1       4.086  -0.005  -2.201  0.00  0.00    +0.193 C 
ENDROOT
BRANCH   1   2
ATOM      2  C   UNL     1       4.749   1.327  -2.438  0.00  0.00    -0.015 A 
ATOM      3  C   UNL     1       4.623   2.337  -1.502  0.00  0.00    +0.010 A 
ATOM      4  C   UNL     1       5.229   3.561  -1.715  0.00  0.00    +0.050 A 
ATOM      5  C   UNL     1       5.966   3.778  -2.869  0.00  0.00    +0.162 A 
ATOM      6  C   UNL     1       6.093   2.761  -3.811  0.00  0.00    +0.162 A 
ATOM      7  C   UNL     1       5.487   1.535  -3.589  0.00  0.00    +0.055 A 
BRANCH   6   8
ATOM      8  O   UNL     1       6.815   2.970  -4.944  0.00  0.00    -0.491 OA
ATOM      9  C   UNL     1       6.849   1.905  -5.897  0.00  0.00    +0.277 C 
ENDBRANCH   6   8
BRANCH   5  10
ATOM     10  O   UNL     1       6.563   4.981  -3.080  0.00  0.00    -0.491 OA
ATOM     11  C   UNL     1       6.482   5.940  -2.023  0.00  0.00    +0.277 C 
ENDBRANCH   5  10
ENDBRANCH   1   2
BRANCH   1  12
ATOM     12  C   UNL     1       5.036  -0.915  -1.467  0.00  0.00    +0.239 C 
ATOM     13  O   UNL     1       4.650  -1.549  -0.508  0.00  0.00    -0.273 OA
ATOM     14  N   UNL     1       6.316  -1.026  -1.877  0.00  0.00    -0.308 N 
ATOM     15  H   UNL     1       6.606  -0.578  -2.687  0.00  0.00    +0.149 HD
BRANCH  14  16
ATOM     16  C   UNL     1       7.268  -1.822  -1.099  0.00  0.00    +0.030 C 
ATOM     17  C   UNL     1       7.510  -1.149   0.254  0.00  0.00    +0.031 C 
ATOM     18  C   UNL     1       6.698  -3.224  -0.876  0.00  0.00    +0.031 C 
BRANCH  16  19
ATOM     19  C   UNL     1       8.590  -1.924  -1.861  0.00  0.00    +0.031 C 
BRANCH  19  20
ATOM     20  C   UNL     1       8.394  -2.787  -3.109  0.00  0.00    -0.036 C 
ATOM     21  C   UNL     1       7.049  -2.450  -3.756  0.00  0.00    +0.010 C 
ATOM     22  C   UNL     1       9.523  -2.509  -4.104  0.00  0.00    +0.010 C 
ATOM     23  C   UNL     1       8.414  -4.265  -2.716  0.00  0.00    +0.010 C 
ENDBRANCH  19  20
ENDBRANCH  16  19
ENDBRANCH  14  16
ENDBRANCH   1  12
BRANCH   1  24
ATOM     24  N   UNL     1       2.876   0.188  -1.398  0.00  0.00    -0.275 N 
ATOM     25  C   UNL     1       1.931   1.059  -1.803  0.00  0.00    +0.248 C 
ATOM     26  O   UNL     1       0.967   1.282  -1.095  0.00  0.00    -0.270 OA
BRANCH  25  27
ATOM     27  C   UNL     1       2.065   1.742  -3.104  0.00  0.00    +0.037 A 
ATOM     28  C   UNL     1       3.099   1.391  -3.976  0.00  0.00    +0.016 A 
ATOM     29  C   UNL     1       3.220   2.031  -5.190  0.00  0.00    +0.046 A 
ATOM     30  C   UNL     1       2.317   3.025  -5.547  0.00  0.00    +0.117 A 
ATOM     31  C   UNL     1       1.287   3.377  -4.683  0.00  0.00    +0.046 A 
ATOM     32  C   UNL     1       1.155   2.738  -3.470  0.00  0.00    +0.016 A 
BRANCH  30  33
ATOM     33  O   UNL     1       2.440   3.653  -6.744  0.00  0.00    -0.507 OA
ATOM     34  H   UNL     1       1.955   3.227  -7.464  0.00  0.00    +0.292 HD
ENDBRANCH  30  33
ENDBRANCH  25  27
BRANCH  24  35
ATOM     35  C   UNL     1       2.694  -0.566  -0.156  0.00  0.00    +0.183 C 
BRANCH  35  40
ATOM     36  C   UNL     1      -0.266  -4.462  -1.383  0.00  0.00    +0.086 C 
ATOM     37  C   UNL     1       0.956  -3.662  -1.013  0.00  0.00    +0.102 A 
ATOM     38  C   UNL     1       2.200  -4.151  -0.858  0.00  0.00    +0.045 A 
ATOM     39  C   UNL     1       3.029  -3.058  -0.515  0.00  0.00    +0.046 A 
ATOM     40  C   UNL     1       2.243  -1.968  -0.480  0.00  0.00    +0.122 A 
ATOM     41  O   UNL     1       0.990  -2.338  -0.789  0.00  0.00    -0.463 OA
ENDBRANCH  35  40
ENDBRANCH  24  35
ENDBRANCH   1  24
TORSDOF 12
