REMARK  Name = ZINC13474990
REMARK  9 active torsions:
REMARK  status: ('A' for Active; 'I' for Inactive)
REMARK    1  A    between atoms: C_1  and  C_2
REMARK    2  A    between atoms: C_6  and  C_33
REMARK    3  A    between atoms: C_7  and  C_8
REMARK    4  A    between atoms: C_13  and  C_16
REMARK    5  A    between atoms: C_13  and  N_69
REMARK    6  A    between atoms: C_19  and  C_22
REMARK    7  A    between atoms: C_22  and  C_26
REMARK    8  A    between atoms: N_23  and  O_24
REMARK    9  A    between atoms: O_24  and  C_25
REMARK                            x       y       z     vdW  Elec       q    Type
REMARK                         _______ _______ _______ _____ _____    ______ ____
ROOT
ATOM      1  C   UNL     1      -2.709   5.631  -0.551  0.00  0.00    -0.077 C 
ATOM      2  C   UNL     1      -2.705   4.102  -0.478  0.00  0.00    -0.009 C 
ATOM      3  C   UNL     1      -1.300   3.617  -0.113  0.00  0.00    +0.038 C 
ATOM      4  C   UNL     1      -0.881   4.247   1.219  0.00  0.00    -0.009 C 
ATOM      5  C   UNL     1      -0.938   5.771   1.096  0.00  0.00    -0.077 C 
ATOM      6  N   UNL     1      -2.321   6.175   0.768  0.00  0.00    +0.383 N 
ATOM      7  H   UNL     1      -2.956   5.801   1.483  0.00  0.00    -0.081 HD
ENDROOT
BRANCH   6  13
ATOM      8  C   UNL     1      -0.510  11.255   1.197  0.00  0.00    +0.249 C 
ATOM      9  O   UNL     1      -0.293  11.671   2.318  0.00  0.00    -0.270 OA
ATOM     10  N   UNL     1      -1.421  10.280   1.004  0.00  0.00    -0.298 N 
ATOM     11  C   UNL     1      -2.160   9.711   2.140  0.00  0.00    +0.107 C 
ATOM     12  C   UNL     1      -1.996   8.188   2.122  0.00  0.00    +0.007 C 
ATOM     13  C   UNL     1      -2.428   7.649   0.756  0.00  0.00    -0.066 C 
ATOM     14  C   UNL     1      -1.535   8.244  -0.335  0.00  0.00    +0.007 C 
ATOM     15  C   UNL     1      -1.695   9.768  -0.345  0.00  0.00    +0.107 C 
ATOM     16  C   UNL     1      -3.884   8.037   0.492  0.00  0.00    -0.010 C 
BRANCH   8  23
ATOM     17  C   UNL     1       2.025  10.068   0.352  0.00  0.00    +0.044 C 
ATOM     18  C   UNL     1       1.440  11.256  -0.367  0.00  0.00    -0.035 A 
ATOM     19  C   UNL     1       2.088  11.819  -1.452  0.00  0.00    +0.024 A 
ATOM     20  C   UNL     1       1.522  12.909  -2.088  0.00  0.00    +0.111 A 
ATOM     21  N   UNL     1       0.376  13.418  -1.677  0.00  0.00    -0.259 NA
ATOM     22  C   UNL     1      -0.282  12.914  -0.654  0.00  0.00    +0.051 A 
ATOM     23  C   UNL     1       0.225  11.817   0.045  0.00  0.00    +0.061 A 
ATOM     24  C   UNL     1      -1.590  13.529  -0.230  0.00  0.00    +0.066 C 
ENDBRANCH   8  23
ENDBRANCH   6  13
BRANCH   3  25
ATOM     25  C   UNL     1      -1.304   2.116   0.020  0.00  0.00    +0.090 C 
ATOM     26  N   UNL     1      -2.415   1.461  -0.076  0.00  0.00    -0.089 NA
BRANCH  25  27
ATOM     27  C   UNL     1      -0.039   1.393   0.259  0.00  0.00    -0.000 A 
ATOM     28  C   UNL     1       1.154   1.865  -0.293  0.00  0.00    +0.011 A 
ATOM     29  C   UNL     1       2.331   1.182  -0.071  0.00  0.00    +0.016 A 
ATOM     30  C   UNL     1       2.332   0.030   0.698  0.00  0.00    +0.018 A 
ATOM     31  C   UNL     1       1.153  -0.443   1.248  0.00  0.00    +0.016 A 
ATOM     32  C   UNL     1      -0.031   0.231   1.033  0.00  0.00    +0.011 A 
ATOM     33 BR   UNL     1       3.951  -0.900   0.998  0.00  0.00    -0.050 Br
ENDBRANCH  25  27
BRANCH  26  34
ATOM     34  O   UNL     1      -2.404   0.045  -0.084  0.00  0.00    -0.397 OA
ATOM     35  C   UNL     1      -3.700  -0.546  -0.195  0.00  0.00    +0.313 C 
ENDBRANCH  26  34
ENDBRANCH   3  25
TORSDOF 5
