REMARK  Name = ZINC13494553
REMARK  16 active torsions:
REMARK  status: ('A' for Active; 'I' for Inactive)
REMARK    1  A    between atoms: C_1  and  C_2
REMARK    2  A    between atoms: C_2  and  C_3
REMARK    3  A    between atoms: C_3  and  C_5
REMARK    4  A    between atoms: C_3  and  N_74
REMARK    5  A    between atoms: N_9  and  C_10
REMARK    6  A    between atoms: C_10  and  C_11
REMARK    7  A    between atoms: C_10  and  C_12
REMARK    8  A    between atoms: C_10  and  C_13
REMARK    9  A    between atoms: C_14  and  C_15
REMARK   10  A    between atoms: C_14  and  N_74
REMARK   11  A    between atoms: C_15  and  C_16
REMARK   12  A    between atoms: C_21  and  C_22
REMARK   13  A    between atoms: C_23  and  C_24
REMARK   14  A    between atoms: C_23  and  N_74
REMARK   15  A    between atoms: C_28  and  C_37
REMARK   16  A    between atoms: C_30  and  C_36
REMARK                            x       y       z     vdW  Elec       q    Type
REMARK                         _______ _______ _______ _____ _____    ______ ____
ROOT
ATOM      1  N   UNL     1      -1.174   8.439  -0.327  0.00  0.00    +0.389 N 
ATOM      2  H   UNL     1      -0.381   7.787  -0.353  0.00  0.00    -0.080 HD
ENDROOT
BRANCH   1   3
ATOM      3  C   UNL     1      -2.203   7.982  -1.284  0.00  0.00    +0.003 C 
BRANCH   3   4
ATOM      4  C   UNL     1      -2.974   9.158  -1.827  0.00  0.00    +0.139 A 
ATOM      5  N   UNL     1      -2.473  10.235  -2.378  0.00  0.00    -0.115 NA
ATOM      6  N   UNL     1      -3.451  11.004  -2.712  0.00  0.00    -0.023 NA
ATOM      7  N   UNL     1      -4.564  10.444  -2.388  0.00  0.00    -0.043 NA
ATOM      8  N   UNL     1      -4.313   9.302  -1.844  0.00  0.00    -0.226 N 
BRANCH   8   9
ATOM      9  C   UNL     1      -5.298   8.343  -1.338  0.00  0.00    +0.059 C 
ATOM     10  C   UNL     1      -5.239   8.311   0.191  0.00  0.00    +0.036 C 
ATOM     11  C   UNL     1      -6.698   8.767  -1.786  0.00  0.00    +0.036 C 
ATOM     12  C   UNL     1      -4.985   6.951  -1.889  0.00  0.00    +0.036 C 
ENDBRANCH   8   9
ENDBRANCH   3   4
BRANCH   3  14
ATOM     13  C   UNL     1      -0.744   6.046  -1.888  0.00  0.00    +0.002 C 
ATOM     14  C   UNL     1      -1.508   7.253  -2.436  0.00  0.00    -0.011 C 
ENDBRANCH   3  14
ENDBRANCH   1   3
BRANCH   1  15
ATOM     15  C   UNL     1      -0.699   9.787  -0.702  0.00  0.00    -0.073 C 
BRANCH  15  16
ATOM     16  C   UNL     1       0.028   9.700  -2.045  0.00  0.00    +0.017 C 
BRANCH  16  17
ATOM     17  C   UNL     1       0.693  11.019  -2.343  0.00  0.00    -0.046 A 
ATOM     18  C   UNL     1       0.051  11.955  -3.132  0.00  0.00    +0.004 A 
ATOM     19  C   UNL     1       0.659  13.166  -3.401  0.00  0.00    +0.000 A 
ATOM     20  C   UNL     1       1.915  13.438  -2.890  0.00  0.00    +0.000 A 
ATOM     21  C   UNL     1       2.559  12.500  -2.105  0.00  0.00    +0.003 A 
ATOM     22  C   UNL     1       1.949  11.290  -1.832  0.00  0.00    -0.047 A 
ATOM     23  C   UNL     1       2.652  10.267  -0.977  0.00  0.00    +0.044 C 
ENDBRANCH  16  17
ENDBRANCH  15  16
ENDBRANCH   1  15
BRANCH   1  24
ATOM     24  C   UNL     1      -1.732   8.461   1.042  0.00  0.00    -0.037 C 
BRANCH  24  25
ATOM     25  C   UNL     1      -1.487   7.119   1.681  0.00  0.00    +0.001 A 
ATOM     26  C   UNL     1      -0.381   6.924   2.441  0.00  0.00    +0.017 A 
ATOM     27  C   UNL     1      -0.172   5.608   3.048  0.00  0.00    -0.001 A 
ATOM     28  C   UNL     1       0.950   5.347   3.841  0.00  0.00    +0.013 A 
ATOM     29  C   UNL     1       1.115   4.109   4.394  0.00  0.00    -0.050 A 
ATOM     30  C   UNL     1       0.178   3.107   4.176  0.00  0.00    +0.008 A 
ATOM     31  C   UNL     1      -0.931   3.340   3.393  0.00  0.00    -0.026 A 
ATOM     32  C   UNL     1      -1.124   4.595   2.824  0.00  0.00    +0.052 A 
ATOM     33  N   UNL     1      -2.228   4.858   2.042  0.00  0.00    -0.322 N 
ATOM     34  H   UNL     1      -2.883   4.159   1.889  0.00  0.00    +0.169 HD
ATOM     35  C   UNL     1      -2.411   6.069   1.488  0.00  0.00    +0.251 A 
ATOM     36  O   UNL     1      -3.399   6.266   0.802  0.00  0.00    -0.268 OA
ATOM     37  C   UNL     1      -1.936   2.242   3.159  0.00  0.00    +0.046 C 
ATOM     38  C   UNL     1       2.323   3.828   5.250  0.00  0.00    +0.044 C 
ENDBRANCH  24  25
ENDBRANCH   1  24
TORSDOF 9
