REMARK  Name = ZINC41586498
REMARK  9 active torsions:
REMARK  status: ('A' for Active; 'I' for Inactive)
REMARK    1  A    between atoms: C_1  and  C_2
REMARK    2  A    between atoms: C_2  and  O_3
REMARK    3  A    between atoms: O_3  and  C_4
REMARK    4  A    between atoms: C_4  and  C_6
REMARK    5  A    between atoms: N_11  and  C_13
REMARK    6  A    between atoms: C_13  and  C_14
REMARK    7  A    between atoms: C_15  and  O_32
REMARK    8  A    between atoms: C_22  and  C_23
REMARK    9  A    between atoms: C_28  and  C_29
REMARK                            x       y       z     vdW  Elec       q    Type
REMARK                         _______ _______ _______ _____ _____    ______ ____
ROOT
ATOM      1  C   UNL     1      -5.914  -5.737   0.140  0.00  0.00    +0.020 A 
ATOM      2  C   UNL     1      -6.549  -5.801   1.370  0.00  0.00    +0.122 A 
ATOM      3  C   UNL     1      -7.773  -6.451   1.503  0.00  0.00    +0.046 A 
ATOM      4  C   UNL     1      -8.361  -7.034   0.416  0.00  0.00    +0.019 A 
ATOM      5  C   UNL     1      -7.734  -6.976  -0.829  0.00  0.00    +0.068 A 
ATOM      6  C   UNL     1      -6.502  -6.319  -0.976  0.00  0.00    +0.144 A 
ATOM      7  O   UNL     1      -6.098  -6.389  -2.263  0.00  0.00    -0.451 OA
ATOM      8  C   UNL     1      -6.986  -7.059  -3.034  0.00  0.00    +0.176 C 
ATOM      9  C   UNL     1      -6.872  -7.300  -4.363  0.00  0.00    +0.058 C 
ATOM     10  C   UNL     1      -8.093  -7.489  -2.164  0.00  0.00    +0.231 C 
ATOM     11  O   UNL     1      -9.088  -8.118  -2.478  0.00  0.00    -0.283 OA
ENDROOT
BRANCH   9  12
ATOM     12  C   UNL     1      -5.761  -6.711  -5.124  0.00  0.00    -0.019 A 
ATOM     13  C   UNL     1      -4.636  -6.214  -4.456  0.00  0.00    +0.008 A 
ATOM     14  C   UNL     1      -3.598  -5.664  -5.176  0.00  0.00    +0.001 A 
ATOM     15  C   UNL     1      -3.666  -5.602  -6.558  0.00  0.00    +0.000 A 
ATOM     16  C   UNL     1      -4.774  -6.091  -7.227  0.00  0.00    +0.004 A 
ATOM     17  C   UNL     1      -5.818  -6.651  -6.521  0.00  0.00    -0.043 A 
ATOM     18  C   UNL     1      -7.022  -7.189  -7.251  0.00  0.00    +0.044 C 
ENDBRANCH   9  12
BRANCH   2  19
ATOM     19  O   UNL     1      -5.973  -5.225   2.456  0.00  0.00    -0.506 OA
ATOM     20  H   UNL     1      -6.226  -4.302   2.593  0.00  0.00    +0.292 HD
ENDBRANCH   2  19
BRANCH   1  21
ATOM     21  C   UNL     1      -4.590  -5.030   0.012  0.00  0.00    -0.036 C 
BRANCH  21  26
ATOM     22  C   UNL     1      -3.777  -1.408  -0.546  0.00  0.00    +0.081 C 
ATOM     23  C   UNL     1      -4.463  -1.225  -1.903  0.00  0.00    +0.011 C 
ATOM     24  C   UNL     1      -5.763  -2.034  -1.920  0.00  0.00    -0.018 C 
ATOM     25  C   UNL     1      -5.449  -3.502  -1.623  0.00  0.00    -0.078 C 
ATOM     26  N   UNL     1      -4.819  -3.613  -0.302  0.00  0.00    +0.383 N 
ATOM     27  C   UNL     1      -3.536  -2.899  -0.298  0.00  0.00    -0.064 C 
ATOM     28  H   UNL     1      -5.428  -3.211   0.395  0.00  0.00    -0.081 HD
BRANCH  22  29
ATOM     29  C   UNL     1      -2.459  -0.678  -0.545  0.00  0.00    +0.308 C 
ATOM     30  O   UNL     1      -1.431  -1.288  -0.364  0.00  0.00    -0.251 OA
BRANCH  29  31
ATOM     31  O   UNL     1      -2.426   0.648  -0.746  0.00  0.00    -0.465 OA
BRANCH  31  33
ATOM     32  C   UNL     1      -1.305   2.777  -0.978  0.00  0.00    +0.048 C 
ATOM     33  C   UNL     1      -1.142   1.275  -0.733  0.00  0.00    +0.229 C 
ENDBRANCH  31  33
ENDBRANCH  29  31
ENDBRANCH  22  29
ENDBRANCH  21  26
ENDBRANCH   1  21
TORSDOF 7
