REMARK  Name = ZINC35147172
REMARK  18 active torsions:
REMARK  status: ('A' for Active; 'I' for Inactive)
REMARK    1  A    between atoms: C_1  and  C_2
REMARK    2  A    between atoms: C_2  and  C_3
REMARK    3  A    between atoms: C_3  and  C_5
REMARK    4  A    between atoms: C_3  and  N_6
REMARK    5  A    between atoms: N_6  and  C_7
REMARK    6  A    between atoms: C_7  and  C_8
REMARK    7  A    between atoms: N_10  and  C_11
REMARK    8  A    between atoms: N_10  and  C_23
REMARK    9  A    between atoms: C_11  and  C_12
REMARK   10  A    between atoms: C_12  and  C_13
REMARK   11  A    between atoms: C_16  and  O_21
REMARK   12  A    between atoms: C_17  and  O_19
REMARK   13  A    between atoms: O_19  and  C_20
REMARK   14  A    between atoms: O_21  and  C_22
REMARK   15  A    between atoms: C_23  and  C_24
REMARK   16  A    between atoms: C_27  and  C_29
REMARK   17  A    between atoms: N_32  and  C_33
REMARK   18  A    between atoms: C_33  and  C_34
REMARK                            x       y       z     vdW  Elec       q    Type
REMARK                         _______ _______ _______ _____ _____    ______ ____
ROOT
ATOM      1  C   UNL     1       3.521  -1.030   3.083  0.00  0.00    +0.233 C 
ATOM      2  O   UNL     1       3.212  -2.169   2.806  0.00  0.00    -0.274 OA
ATOM      3  N   UNL     1       4.234  -0.777   4.198  0.00  0.00    -0.295 N 
ENDROOT
BRANCH   1   4
ATOM      4  C   UNL     1       3.109   0.103   2.179  0.00  0.00    +0.205 C 
BRANCH   4   5
ATOM      5  N   UNL     1       2.350  -0.428   1.044  0.00  0.00    -0.274 N 
ATOM      6  C   UNL     1       2.991  -0.794  -0.083  0.00  0.00    +0.303 C 
ATOM      7  O   UNL     1       4.186  -0.597  -0.195  0.00  0.00    -0.253 OA
ATOM      8  N   UNL     1       2.309  -1.381  -1.087  0.00  0.00    -0.295 N 
ATOM      9  H   UNL     1       1.344  -1.468  -1.030  0.00  0.00    +0.151 HD
BRANCH   5  10
ATOM     10  C   UNL     1       0.894  -0.561   1.135  0.00  0.00    +0.075 C 
ATOM     11  C   UNL     1       0.507  -2.036   1.004  0.00  0.00    +0.028 C 
BRANCH  10  13
ATOM     12  C   UNL     1       0.502   1.732   0.223  0.00  0.00    +0.006 C 
ATOM     13  C   UNL     1       0.237   0.240   0.009  0.00  0.00    +0.019 C 
ENDBRANCH  10  13
ENDBRANCH   5  10
BRANCH   8  14
ATOM     14  C   UNL     1       3.023  -1.885  -2.262  0.00  0.00    +0.141 C 
BRANCH  14  15
ATOM     15  C   UNL     1       2.037  -2.489  -3.228  0.00  0.00    -0.030 A 
ATOM     16  C   UNL     1       1.708  -3.828  -3.134  0.00  0.00    +0.005 A 
ATOM     17  C   UNL     1       0.804  -4.382  -4.021  0.00  0.00    +0.000 A 
ATOM     18  C   UNL     1       0.228  -3.596  -5.001  0.00  0.00    +0.000 A 
ATOM     19  C   UNL     1       0.556  -2.257  -5.095  0.00  0.00    +0.000 A 
ATOM     20  C   UNL     1       1.457  -1.702  -4.206  0.00  0.00    +0.005 A 
ENDBRANCH  14  15
ENDBRANCH   8  14
ENDBRANCH   4   5
ENDBRANCH   1   4
BRANCH   3  21
ATOM     21  C   UNL     1       4.635  -1.879   5.077  0.00  0.00    +0.113 C 
BRANCH  21  22
ATOM     22  C   UNL     1       5.999  -2.413   4.634  0.00  0.00    +0.054 C 
BRANCH  22  23
ATOM     23  C   UNL     1       6.412  -3.547   5.538  0.00  0.00    -0.042 A 
ATOM     24  C   UNL     1       7.138  -3.285   6.685  0.00  0.00    +0.007 A 
ATOM     25  C   UNL     1       7.519  -4.321   7.517  0.00  0.00    +0.049 A 
ATOM     26  C   UNL     1       7.172  -5.625   7.202  0.00  0.00    +0.161 A 
ATOM     27  C   UNL     1       6.441  -5.889   6.048  0.00  0.00    +0.162 A 
ATOM     28  C   UNL     1       6.058  -4.845   5.221  0.00  0.00    +0.053 A 
BRANCH  27  29
ATOM     29  O   UNL     1       6.098  -7.167   5.735  0.00  0.00    -0.491 OA
ATOM     30  C   UNL     1       5.347  -7.362   4.535  0.00  0.00    +0.277 C 
ENDBRANCH  27  29
BRANCH  26  31
ATOM     31  O   UNL     1       7.546  -6.646   8.019  0.00  0.00    -0.491 OA
ATOM     32  C   UNL     1       8.296  -6.301   9.186  0.00  0.00    +0.277 C 
ENDBRANCH  26  31
ENDBRANCH  22  23
ENDBRANCH  21  22
ENDBRANCH   3  21
BRANCH   3  33
ATOM     33  C   UNL     1       4.608   0.599   4.532  0.00  0.00    +0.150 C 
BRANCH  33  34
ATOM     34  C   UNL     1       3.531   1.220   5.384  0.00  0.00    +0.007 A 
ATOM     35  C   UNL     1       3.411   1.233   6.734  0.00  0.00    +0.013 A 
ATOM     36  C   UNL     1       2.326   1.871   7.305  0.00  0.00    +0.011 A 
ATOM     37  C   UNL     1       1.414   2.466   6.497  0.00  0.00    -0.013 A 
ATOM     38  S   UNL     1       2.084   2.135   4.876  0.00  0.00    -0.097 S 
ATOM     39  C   UNL     1       0.161   3.215   6.872  0.00  0.00    +0.051 C 
ENDBRANCH  33  34
ENDBRANCH   3  33
TORSDOF 13
