REMARK  Name = ZINC38675623
REMARK  9 active torsions:
REMARK  status: ('A' for Active; 'I' for Inactive)
REMARK    1  A    between atoms: C_1  and  C_2
REMARK    2  A    between atoms: C_5  and  O_33
REMARK    3  A    between atoms: C_6  and  N_8
REMARK    4  A    between atoms: C_9  and  C_11
REMARK    5  A    between atoms: C_11  and  C_13
REMARK    6  A    between atoms: C_11  and  O_19
REMARK    7  A    between atoms: O_19  and  C_20
REMARK    8  A    between atoms: C_20  and  C_22
REMARK    9  A    between atoms: O_33  and  C_34
REMARK                            x       y       z     vdW  Elec       q    Type
REMARK                         _______ _______ _______ _____ _____    ______ ____
ROOT
ATOM      1  C   UNL     1       0.285  -2.891   4.857  0.00  0.00    +0.292 C 
ENDROOT
BRANCH   1   2
ATOM      2  C   UNL     1      -0.980  -3.674   5.098  0.00  0.00    +0.002 A 
ATOM      3  C   UNL     1      -2.098  -3.041   5.609  0.00  0.00    +0.008 A 
ATOM      4  C   UNL     1      -3.258  -3.759   5.830  0.00  0.00    +0.000 A 
ATOM      5  C   UNL     1      -3.301  -5.109   5.540  0.00  0.00    +0.000 A 
ATOM      6  C   UNL     1      -2.184  -5.742   5.028  0.00  0.00    +0.000 A 
ATOM      7  C   UNL     1      -1.025  -5.024   4.803  0.00  0.00    +0.008 A 
ENDBRANCH   1   2
BRANCH   1   9
ATOM      8  N   UNL     1       0.068  -2.794   2.395  0.00  0.00    -0.279 N 
ATOM      9  C   UNL     1       0.165  -2.128   3.563  0.00  0.00    +0.263 C 
ATOM     10  O   UNL     1       0.156  -0.915   3.573  0.00  0.00    -0.271 OA
ATOM     11  H   UNL     1      -0.008  -3.761   2.392  0.00  0.00    +0.155 HD
BRANCH   8  17
ATOM     12  C   UNL     1       1.319   1.217  -0.160  0.00  0.00    +0.044 C 
ATOM     13  C   UNL     1       0.674  -0.143  -0.083  0.00  0.00    -0.048 A 
ATOM     14  C   UNL     1       0.090  -0.693  -1.209  0.00  0.00    +0.007 A 
ATOM     15  C   UNL     1      -0.504  -1.940  -1.145  0.00  0.00    +0.048 A 
ATOM     16  C   UNL     1      -0.514  -2.642   0.050  0.00  0.00    +0.141 A 
ATOM     17  C   UNL     1       0.075  -2.088   1.184  0.00  0.00    +0.076 A 
ATOM     18  C   UNL     1       0.674  -0.839   1.111  0.00  0.00    +0.030 A 
BRANCH  16  19
ATOM     19  O   UNL     1      -1.099  -3.868   0.115  0.00  0.00    -0.493 OA
ATOM     20  C   UNL     1      -1.683  -4.373  -1.087  0.00  0.00    +0.277 C 
ENDBRANCH  16  19
ENDBRANCH   8  17
ENDBRANCH   1   9
BRANCH   1  21
ATOM     21  O   UNL     1       0.490  -1.974   5.934  0.00  0.00    -0.444 OA
BRANCH  21  22
ATOM     22  C   UNL     1       1.207  -2.416   6.986  0.00  0.00    +0.337 C 
ATOM     23  O   UNL     1       1.645  -3.549   6.989  0.00  0.00    -0.245 OA
BRANCH  22  24
ATOM     24  C   UNL     1       1.459  -1.524   8.134  0.00  0.00    +0.054 C 
ATOM     25  C   UNL     1       0.885  -0.272   8.213  0.00  0.00    +0.007 A 
ATOM     26  C   UNL     1       0.001   0.220   7.156  0.00  0.00    +0.010 A 
ATOM     27  C   UNL     1      -0.539   1.457   7.279  0.00  0.00    +0.001 A 
ATOM     28  C   UNL     1      -0.268   2.267   8.390  0.00  0.00    +0.002 A 
ATOM     29  C   UNL     1       0.541   1.873   9.403  0.00  0.00    +0.024 A 
ATOM     30  C   UNL     1       1.155   0.602   9.375  0.00  0.00    +0.041 A 
ATOM     31  N   UNL     1       1.946   0.224  10.369  0.00  0.00    -0.285 N 
ATOM     32  C   UNL     1       2.555  -0.955  10.408  0.00  0.00    +0.222 C 
ATOM     33  O   UNL     1       3.269  -1.240  11.349  0.00  0.00    -0.275 OA
ATOM     34  C   UNL     1       2.355  -1.946   9.283  0.00  0.00    +0.139 C 
ATOM     35  H   UNL     1       2.086   0.840  11.105  0.00  0.00    +0.155 HD
ENDBRANCH  22  24
ENDBRANCH  21  22
ENDBRANCH   1  21
TORSDOF 7
