REMARK  Name = ZINC35590755
REMARK  10 active torsions:
REMARK  status: ('A' for Active; 'I' for Inactive)
REMARK    1  A    between atoms: C_1  and  C_2
REMARK    2  A    between atoms: C_2  and  N_3
REMARK    3  A    between atoms: N_6  and  C_9
REMARK    4  A    between atoms: C_10  and  C_33
REMARK    5  A    between atoms: C_11  and  C_24
REMARK    6  A    between atoms: N_12  and  C_15
REMARK    7  A    between atoms: C_13  and  C_14
REMARK    8  A    between atoms: C_15  and  C_16
REMARK    9  A    between atoms: N_26  and  C_27
REMARK   10  A    between atoms: C_27  and  C_28
REMARK                            x       y       z     vdW  Elec       q    Type
REMARK                         _______ _______ _______ _____ _____    ______ ____
ROOT
ATOM      1  C   UNL     1       3.493  -3.091  -2.912  0.00  0.00    +0.054 A 
ATOM      2  C   UNL     1       4.094  -2.948  -4.170  0.00  0.00    +0.001 A 
ATOM      3  C   UNL     1       5.365  -3.476  -4.075  0.00  0.00    +0.110 A 
ATOM      4  N   UNL     1       5.534  -3.930  -2.788  0.00  0.00    -0.334 N 
ATOM      5  C   UNL     1       4.394  -3.687  -2.087  0.00  0.00    +0.038 A 
ATOM      6  C   UNL     1       4.166  -4.026  -0.636  0.00  0.00    +0.065 C 
ATOM      7  C   UNL     1       3.469  -2.334  -5.396  0.00  0.00    +0.048 C 
ENDROOT
BRANCH   1  11
ATOM      8  N   UNL     1      -0.098  -2.243  -1.022  0.00  0.00    +0.382 N 
ATOM      9  C   UNL     1       1.113  -1.458  -0.754  0.00  0.00    -0.060 C 
ATOM     10  C   UNL     1       1.936  -1.333  -2.041  0.00  0.00    +0.086 C 
ATOM     11  N   UNL     1       2.192  -2.685  -2.563  0.00  0.00    -0.332 N 
ATOM     12  C   UNL     1       1.049  -3.599  -2.709  0.00  0.00    +0.086 C 
ATOM     13  C   UNL     1       0.268  -3.617  -1.391  0.00  0.00    -0.060 C 
ATOM     14  H   UNL     1      -0.611  -1.818  -1.780  0.00  0.00    -0.082 HD
BRANCH   8  16
ATOM     15  C   UNL     1      -1.424  -0.853   0.496  0.00  0.00    -0.017 C 
ATOM     16  C   UNL     1      -0.939  -2.269   0.182  0.00  0.00    -0.082 C 
ENDBRANCH   8  16
ENDBRANCH   1  11
BRANCH   3  17
ATOM     17  C   UNL     1       6.358  -3.541  -5.153  0.00  0.00    +0.261 C 
ATOM     18  O   UNL     1       6.142  -2.984  -6.213  0.00  0.00    -0.269 OA
ATOM     19  N   UNL     1       7.508  -4.218  -4.970  0.00  0.00    -0.303 N 
ATOM     20  H   UNL     1       7.640  -4.741  -4.163  0.00  0.00    +0.150 HD
BRANCH  19  21
ATOM     21  C   UNL     1       8.560  -4.165  -5.988  0.00  0.00    +0.179 C 
BRANCH  21  22
ATOM     22  C   UNL     1       9.733  -5.000  -5.543  0.00  0.00    +0.122 A 
ATOM     23  C   UNL     1       9.914  -6.306  -5.810  0.00  0.00    +0.046 A 
ATOM     24  C   UNL     1      11.136  -6.682  -5.206  0.00  0.00    +0.041 A 
ATOM     25  C   UNL     1      11.628  -5.583  -4.606  0.00  0.00    +0.195 A 
ATOM     26  O   UNL     1      10.777  -4.566  -4.819  0.00  0.00    -0.466 OA
ENDBRANCH  21  22
ENDBRANCH  19  21
ENDBRANCH   3  17
BRANCH   4  27
ATOM     27  C   UNL     1       6.743  -4.565  -2.258  0.00  0.00    +0.163 C 
BRANCH  27  28
ATOM     28  C   UNL     1       6.550  -6.059  -2.219  0.00  0.00    +0.042 A 
ATOM     29  C   UNL     1       6.186  -6.681  -1.037  0.00  0.00    +0.131 A 
ATOM     30  C   UNL     1       6.009  -8.053  -1.003  0.00  0.00    +0.039 A 
ATOM     31  C   UNL     1       6.195  -8.804  -2.149  0.00  0.00    +0.006 A 
ATOM     32  C   UNL     1       6.559  -8.184  -3.329  0.00  0.00    +0.039 A 
ATOM     33  C   UNL     1       6.731  -6.811  -3.368  0.00  0.00    +0.131 A 
ATOM     34  F   UNL     1       7.081  -6.205  -4.523  0.00  0.00    -0.205 F 
ATOM     35  F   UNL     1       6.004  -5.948   0.083  0.00  0.00    -0.205 F 
ENDBRANCH  27  28
ENDBRANCH   4  27
TORSDOF 7
