REMARK  Name = ZINC13734757
REMARK  6 active torsions:
REMARK  status: ('A' for Active; 'I' for Inactive)
REMARK    1  A    between atoms: C_1  and  C_2
REMARK    2  A    between atoms: C_5  and  N_9
REMARK    3  A    between atoms: C_7  and  C_8
REMARK    4  A    between atoms: C_37  and  C_39
REMARK    5  A    between atoms: C_39  and  C_40
REMARK    6  A    between atoms: C_39  and  C_41
REMARK                            x       y       z     vdW  Elec       q    Type
REMARK                         _______ _______ _______ _____ _____    ______ ____
ROOT
ATOM      1  N   UNL     1       0.110  -4.149  -0.046  0.00  0.00    -0.210 N 
ATOM      2  C   UNL     1       0.198  -4.872   1.076  0.00  0.00    +0.232 C 
ATOM      3  O   UNL     1       0.295  -4.419   2.196  0.00  0.00    -0.274 OA
ATOM      4  C   UNL     1       0.158  -6.343   0.730  0.00  0.00    +0.107 C 
ATOM      5  C   UNL     1       0.044  -6.344  -0.820  0.00  0.00    +0.121 C 
ATOM      6  C   UNL     1       0.009  -4.872  -1.167  0.00  0.00    +0.233 C 
ATOM      7  O   UNL     1      -0.090  -4.418  -2.287  0.00  0.00    -0.274 OA
ATOM      8  C   UNL     1       1.357  -6.974  -1.303  0.00  0.00    +0.118 C 
ATOM      9  C   UNL     1       1.184  -8.425  -1.641  0.00  0.00    +0.005 A 
ATOM     10  C   UNL     1       0.777  -9.524  -0.915  0.00  0.00    +0.008 A 
ATOM     11  C   UNL     1       0.716 -10.768  -1.517  0.00  0.00    +0.000 A 
ATOM     12  C   UNL     1       1.064 -10.906  -2.848  0.00  0.00    +0.002 A 
ATOM     13  C   UNL     1       1.473  -9.810  -3.578  0.00  0.00    +0.026 A 
ATOM     14  C   UNL     1       1.536  -8.554  -2.978  0.00  0.00    +0.057 A 
ATOM     15  N   UNL     1       1.915  -7.312  -3.512  0.00  0.00    -0.262 N 
ATOM     16  C   UNL     1       1.836  -6.323  -2.576  0.00  0.00    +0.143 A 
ATOM     17  N   UNL     1       2.136  -5.081  -2.828  0.00  0.00    -0.231 NA
ATOM     18  C   UNL     1       2.549  -4.672  -4.051  0.00  0.00    +0.078 A 
ATOM     19  C   UNL     1       2.863  -3.337  -4.314  0.00  0.00    +0.028 A 
ATOM     20  C   UNL     1       3.277  -2.970  -5.575  0.00  0.00    +0.002 A 
ATOM     21  C   UNL     1       3.388  -3.912  -6.590  0.00  0.00    +0.001 A 
ATOM     22  C   UNL     1       3.084  -5.234  -6.355  0.00  0.00    +0.015 A 
ATOM     23  C   UNL     1       2.662  -5.627  -5.086  0.00  0.00    +0.065 A 
ATOM     24  C   UNL     1       2.323  -7.021  -4.775  0.00  0.00    +0.266 A 
ATOM     25  O   UNL     1       2.405  -7.891  -5.623  0.00  0.00    -0.267 OA
ATOM     26  N   UNL     1       2.326  -6.780  -0.208  0.00  0.00    -0.296 NA
ATOM     27  C   UNL     1       1.528  -6.980   1.043  0.00  0.00    +0.070 C 
ATOM     28  H   UNL     1       3.079  -7.449  -0.270  0.00  0.00    +0.123 HD
ENDROOT
BRANCH   1  33
ATOM     29  C   UNL     1       0.136   1.527  -0.050  0.00  0.00    +0.044 C 
ATOM     30  C   UNL     1       0.129   0.020  -0.049  0.00  0.00    -0.047 A 
ATOM     31  C   UNL     1       1.169  -0.674   0.541  0.00  0.00    +0.005 A 
ATOM     32  C   UNL     1       1.166  -2.055   0.544  0.00  0.00    +0.024 A 
ATOM     33  C   UNL     1       0.116  -2.747  -0.046  0.00  0.00    +0.044 A 
ATOM     34  C   UNL     1      -0.927  -2.047  -0.638  0.00  0.00    +0.027 A 
ATOM     35  C   UNL     1      -0.920  -0.665  -0.633  0.00  0.00    -0.046 A 
ATOM     36  C   UNL     1      -2.054   0.095  -1.270  0.00  0.00    +0.044 C 
ENDBRANCH   1  33
BRANCH  27  37
ATOM     37  C   UNL     1       2.177  -6.283   2.241  0.00  0.00    +0.001 C 
ATOM     38  C   UNL     1       1.347  -6.552   3.498  0.00  0.00    +0.009 C 
ATOM     39  C   UNL     1       3.594  -6.825   2.440  0.00  0.00    +0.009 C 
ENDBRANCH  27  37
TORSDOF 2
