REMARK  Name = ZINC00969663
REMARK  10 active torsions:
REMARK  status: ('A' for Active; 'I' for Inactive)
REMARK    1  A    between atoms: C_1  and  C_2
REMARK    2  A    between atoms: C_7  and  N_8
REMARK    3  A    between atoms: C_9  and  C_11
REMARK    4  A    between atoms: C_11  and  N_12
REMARK    5  A    between atoms: N_12  and  C_13
REMARK    6  A    between atoms: N_12  and  S_27
REMARK    7  A    between atoms: C_14  and  C_26
REMARK    8  A    between atoms: N_15  and  C_25
REMARK    9  A    between atoms: N_16  and  C_19
REMARK   10  A    between atoms: S_27  and  C_30
REMARK                            x       y       z     vdW  Elec       q    Type
REMARK                         _______ _______ _______ _____ _____    ______ ____
ROOT
ATOM      1  N   UNL     1      -1.310   4.707   0.659  0.00  0.00    -0.187 N 
ENDROOT
BRANCH   1   2
ATOM      2  C   UNL     1      -0.359   3.665   0.696  0.00  0.00    +0.138 A 
ATOM      3  C   UNL     1       0.886   3.710   0.176  0.00  0.00    +0.061 A 
ATOM      4  N   UNL     1       1.498   2.503   0.416  0.00  0.00    -0.282 N 
ATOM      5  N   UNL     1       0.595   1.686   1.109  0.00  0.00    -0.216 N 
ATOM      6  C   UNL     1      -0.545   2.386   1.280  0.00  0.00    +0.295 A 
ATOM      7  O   UNL     1      -1.553   1.992   1.839  0.00  0.00    -0.264 OA
ATOM      8  C   UNL     1       2.858   2.134   0.016  0.00  0.00    +0.171 C 
ATOM      9  C   UNL     1       1.500   4.883  -0.544  0.00  0.00    +0.067 C 
BRANCH   5  10
ATOM     10  C   UNL     1       0.831   0.377   1.540  0.00  0.00    +0.067 A 
ATOM     11  C   UNL     1       1.381  -0.554   0.669  0.00  0.00    +0.028 A 
ATOM     12  C   UNL     1       1.618  -1.845   1.100  0.00  0.00    +0.002 A 
ATOM     13  C   UNL     1       1.298  -2.213   2.394  0.00  0.00    +0.000 A 
ATOM     14  C   UNL     1       0.745  -1.290   3.262  0.00  0.00    +0.002 A 
ATOM     15  C   UNL     1       0.510   0.004   2.839  0.00  0.00    +0.028 A 
ENDBRANCH   5  10
ENDBRANCH   1   2
BRANCH   1  16
ATOM     16  S   UNL     1      -2.850   4.440   1.205  0.00  0.00    +0.075 S 
ATOM     17  O   UNL     1      -3.652   5.493   0.687  0.00  0.00    -0.150 OA
ATOM     18  O   UNL     1      -3.138   3.071   0.957  0.00  0.00    -0.150 OA
BRANCH  16  19
ATOM     19  C   UNL     1      -2.826   4.640   2.955  0.00  0.00    +0.109 A 
ATOM     20  C   UNL     1      -2.574   3.554   3.772  0.00  0.00    +0.029 A 
ATOM     21  C   UNL     1      -2.550   3.712   5.145  0.00  0.00    +0.002 A 
ATOM     22  C   UNL     1      -2.787   4.954   5.702  0.00  0.00    +0.000 A 
ATOM     23  C   UNL     1      -3.044   6.040   4.885  0.00  0.00    +0.002 A 
ATOM     24  C   UNL     1      -3.063   5.883   3.512  0.00  0.00    +0.029 A 
ENDBRANCH  16  19
ENDBRANCH   1  16
BRANCH   1  25
ATOM     25  C   UNL     1      -0.934   6.024   0.140  0.00  0.00    +0.227 C 
BRANCH  25  27
ATOM     26  N   UNL     1      -0.805   7.152  -2.058  0.00  0.00    -0.284 N 
ATOM     27  C   UNL     1      -1.095   6.037  -1.359  0.00  0.00    +0.236 C 
ATOM     28  O   UNL     1      -1.484   5.044  -1.936  0.00  0.00    -0.274 OA
ATOM     29  H   UNL     1      -0.437   7.927  -1.605  0.00  0.00    +0.155 HD
BRANCH  26  36
ATOM     30  C   UNL     1      -1.376   9.671  -3.252  0.00  0.00    +0.045 C 
ATOM     31  C   UNL     1      -1.317   8.401  -4.061  0.00  0.00    -0.029 A 
ATOM     32  C   UNL     1      -1.544   8.438  -5.423  0.00  0.00    +0.005 A 
ATOM     33  C   UNL     1      -1.489   7.273  -6.166  0.00  0.00    +0.000 A 
ATOM     34  C   UNL     1      -1.208   6.068  -5.548  0.00  0.00    +0.002 A 
ATOM     35  C   UNL     1      -0.976   6.025  -4.187  0.00  0.00    +0.023 A 
ATOM     36  C   UNL     1      -1.035   7.193  -3.437  0.00  0.00    +0.036 A 
ENDBRANCH  26  36
ENDBRANCH  25  27
ENDBRANCH   1  25
TORSDOF 7
