REMARK  Name = ZINC12031979
REMARK  8 active torsions:
REMARK  status: ('A' for Active; 'I' for Inactive)
REMARK    1  A    between atoms: C_1  and  C_2
REMARK    2  A    between atoms: C_5  and  C_29
REMARK    3  A    between atoms: C_6  and  C_8
REMARK    4  A    between atoms: C_8  and  N_56
REMARK    5  A    between atoms: C_14  and  C_18
REMARK    6  A    between atoms: C_18  and  C_20
REMARK    7  A    between atoms: C_18  and  N_21
REMARK    8  A    between atoms: C_22  and  C_24
REMARK                            x       y       z     vdW  Elec       q    Type
REMARK                         _______ _______ _______ _____ _____    ______ ____
ROOT
ATOM      1  C   UNL     1       0.002  -0.004   0.002  0.00  0.00    -0.071 C 
ATOM      2  C   UNL     1       1.219  -0.508   0.784  0.00  0.00    +0.058 C 
ATOM      3  C   UNL     1       2.394  -0.608  -0.155  0.00  0.00    +0.132 A 
ATOM      4  N   UNL     1       3.236  -1.592  -0.275  0.00  0.00    -0.134 NA
ATOM      5  N   UNL     1       4.117  -1.298  -1.167  0.00  0.00    -0.132 NA
ATOM      6  C   UNL     1       3.868  -0.112  -1.659  0.00  0.00    +0.154 A 
ATOM      7  N   UNL     1       2.761   0.350  -1.041  0.00  0.00    -0.315 N 
ATOM      8  C   UNL     1       2.065   1.616  -1.278  0.00  0.00    +0.106 C 
ATOM      9  C   UNL     1       1.332   2.034   0.000  0.00  0.00    -0.056 C 
ATOM     10  N   UNL     1      -0.039   1.474   0.038  0.00  0.00    +0.384 N 
ATOM     11  H   UNL     1      -0.493   1.771   0.909  0.00  0.00    -0.081 HD
ENDROOT
BRANCH   6  12
ATOM     12  C   UNL     1       4.668   0.604  -2.717  0.00  0.00    +0.138 C 
ATOM     13  C   UNL     1       4.380  -0.021  -4.084  0.00  0.00    +0.036 C 
BRANCH  12  14
ATOM     14  N   UNL     1       6.096   0.482  -2.416  0.00  0.00    -0.299 N 
ATOM     15  C   UNL     1       6.963   1.405  -2.877  0.00  0.00    +0.280 C 
ATOM     16  O   UNL     1       6.559   2.340  -3.543  0.00  0.00    -0.267 OA
ATOM     17  H   UNL     1       6.418  -0.263  -1.885  0.00  0.00    +0.150 HD
BRANCH  15  18
ATOM     18  C   UNL     1       8.393   1.284  -2.575  0.00  0.00    +0.189 A 
ATOM     19  C   UNL     1       9.374   2.144  -2.978  0.00  0.00    +0.054 A 
ATOM     20  C   UNL     1      10.582   1.645  -2.466  0.00  0.00    +0.042 A 
ATOM     21  C   UNL     1      10.290   0.517  -1.783  0.00  0.00    +0.196 A 
ATOM     22  O   UNL     1       8.969   0.305  -1.847  0.00  0.00    -0.458 OA
ENDBRANCH  15  18
ENDBRANCH  12  14
ENDBRANCH   6  12
BRANCH  10  23
ATOM     23  C   UNL     1      -0.820   1.982  -1.105  0.00  0.00    -0.043 C 
BRANCH  23  29
ATOM     24  C   UNL     1      -4.704  -0.996  -2.150  0.00  0.00    +0.044 C 
ATOM     25  C   UNL     1      -4.122   0.178  -1.405  0.00  0.00    -0.050 A 
ATOM     26  C   UNL     1      -4.915   0.907  -0.538  0.00  0.00    +0.003 A 
ATOM     27  C   UNL     1      -4.383   1.984   0.145  0.00  0.00    +0.004 A 
ATOM     28  C   UNL     1      -3.057   2.332  -0.038  0.00  0.00    -0.049 A 
ATOM     29  C   UNL     1      -2.264   1.603  -0.905  0.00  0.00    -0.061 A 
ATOM     30  C   UNL     1      -2.799   0.528  -1.592  0.00  0.00    +0.005 A 
ATOM     31  C   UNL     1      -2.476   3.506   0.706  0.00  0.00    +0.044 C 
ENDBRANCH  23  29
ENDBRANCH  10  23
TORSDOF 5
