REMARK  Name = ZINC12731067
REMARK  9 active torsions:
REMARK  status: ('A' for Active; 'I' for Inactive)
REMARK    1  A    between atoms: C_1  and  C_2
REMARK    2  A    between atoms: C_2  and  C_3
REMARK    3  A    between atoms: C_3  and  C_4
REMARK    4  A    between atoms: C_3  and  C_6
REMARK    5  A    between atoms: C_4  and  C_5
REMARK    6  A    between atoms: C_6  and  C_7
REMARK    7  A    between atoms: C_10  and  C_34
REMARK    8  A    between atoms: C_13  and  C_15
REMARK    9  A    between atoms: C_16  and  C_28
REMARK                            x       y       z     vdW  Elec       q    Type
REMARK                         _______ _______ _______ _____ _____    ______ ____
ROOT
ATOM      1  C   UNL     1       2.459  -7.058   0.795  0.00  0.00    +0.070 A 
ATOM      2  C   UNL     1       3.323  -7.368   1.847  0.00  0.00    +0.005 A 
ATOM      3  C   UNL     1       3.298  -8.734   2.389  0.00  0.00    +0.008 A 
ATOM      4  C   UNL     1       4.143  -9.096   3.444  0.00  0.00    +0.030 A 
ATOM      5  C   UNL     1       4.105 -10.380   3.939  0.00  0.00    +0.042 A 
ATOM      6  C   UNL     1       3.233 -11.316   3.396  0.00  0.00    +0.022 A 
ATOM      7  C   UNL     1       2.395 -10.974   2.357  0.00  0.00    +0.028 A 
ATOM      8  C   UNL     1       2.416  -9.681   1.841  0.00  0.00    +0.050 A 
ATOM      9  N   UNL     1       1.576  -9.337   0.800  0.00  0.00    -0.322 N 
ATOM     10  H   UNL     1       0.975 -10.007   0.438  0.00  0.00    +0.169 HD
ATOM     11  C   UNL     1       1.564  -8.098   0.280  0.00  0.00    +0.259 A 
ATOM     12  O   UNL     1       0.803  -7.838  -0.635  0.00  0.00    -0.267 OA
ATOM     13 CL   UNL     1       5.152 -10.833   5.247  0.00  0.00    -0.084 Cl
ENDROOT
BRANCH   1  19
ATOM     14  C   UNL     1       1.545  -2.294   0.354  0.00  0.00    +0.236 C 
ATOM     15  O   UNL     1       1.704  -1.345  -0.384  0.00  0.00    -0.274 OA
ATOM     16  N   UNL     1       2.023  -3.506   0.007  0.00  0.00    -0.182 N 
ATOM     17  C   UNL     1       2.759  -3.813  -1.230  0.00  0.00    +0.172 C 
ATOM     18  C   UNL     1       3.058  -5.320  -1.109  0.00  0.00    +0.090 C 
ATOM     19  C   UNL     1       2.443  -5.709   0.216  0.00  0.00    +0.075 C 
ATOM     20  N   UNL     1       1.907  -4.670   0.764  0.00  0.00    -0.181 NA
BRANCH  17  21
ATOM     21  C   UNL     1       1.903  -3.534  -2.438  0.00  0.00    +0.128 A 
ATOM     22  C   UNL     1       2.329  -3.005  -3.599  0.00  0.00    +0.046 A 
ATOM     23  C   UNL     1       1.203  -2.919  -4.449  0.00  0.00    +0.041 A 
ATOM     24  C   UNL     1       0.155  -3.400  -3.756  0.00  0.00    +0.195 A 
ATOM     25  O   UNL     1       0.586  -3.777  -2.541  0.00  0.00    -0.466 OA
ENDBRANCH  17  21
BRANCH  14  26
ATOM     26  C   UNL     1       0.812  -2.119   1.660  0.00  0.00    +0.101 C 
BRANCH  26  27
ATOM     27  C   UNL     1       0.379  -0.660   1.809  0.00  0.00    -0.003 C 
BRANCH  27  29
ATOM     28  C   UNL     1      -0.979   1.174   0.790  0.00  0.00    +0.004 C 
ATOM     29  C   UNL     1      -0.643  -0.317   0.723  0.00  0.00    +0.000 C 
ENDBRANCH  27  29
BRANCH  27  30
ATOM     30  C   UNL     1      -0.255  -0.454   3.187  0.00  0.00    +0.000 C 
ATOM     31  C   UNL     1       0.800  -0.683   4.272  0.00  0.00    +0.004 C 
ENDBRANCH  27  30
ENDBRANCH  26  27
ENDBRANCH  14  26
ENDBRANCH   1  19
BRANCH   2  32
ATOM     32  C   UNL     1       4.238  -6.350   2.401  0.00  0.00    -0.016 A 
ATOM     33  C   UNL     1       5.291  -5.857   1.626  0.00  0.00    +0.008 A 
ATOM     34  C   UNL     1       6.141  -4.906   2.150  0.00  0.00    +0.001 A 
ATOM     35  C   UNL     1       5.954  -4.440   3.440  0.00  0.00    +0.000 A 
ATOM     36  C   UNL     1       4.914  -4.925   4.213  0.00  0.00    +0.001 A 
ATOM     37  C   UNL     1       4.052  -5.872   3.701  0.00  0.00    +0.008 A 
ENDBRANCH   2  32
TORSDOF 7
