REMARK  Name = ZINC13915697
REMARK  13 active torsions:
REMARK  status: ('A' for Active; 'I' for Inactive)
REMARK    1  A    between atoms: C_1  and  C_2
REMARK    2  A    between atoms: C_3  and  C_23
REMARK    3  A    between atoms: C_4  and  C_10
REMARK    4  A    between atoms: C_14  and  O_20
REMARK    5  A    between atoms: C_15  and  O_16
REMARK    6  A    between atoms: O_16  and  C_17
REMARK    7  A    between atoms: C_17  and  C_18
REMARK    8  A    between atoms: C_17  and  C_19
REMARK    9  A    between atoms: O_20  and  C_21
REMARK   10  A    between atoms: N_25  and  C_26
REMARK   11  A    between atoms: C_31  and  C_32
REMARK   12  A    between atoms: C_32  and  O_34
REMARK   13  A    between atoms: O_34  and  C_35
REMARK                            x       y       z     vdW  Elec       q    Type
REMARK                         _______ _______ _______ _____ _____    ______ ____
ROOT
ATOM      1  C   UNL     1      -1.098   2.648  -0.235  0.00  0.00    +0.061 C 
ATOM      2  C   UNL     1      -1.498   2.741   1.215  0.00  0.00    +0.017 C 
ATOM      3  C   UNL     1      -0.600   2.424   2.173  0.00  0.00    +0.056 C 
ATOM      4  C   UNL     1      -1.043   2.532   3.618  0.00  0.00    +0.143 C 
ATOM      5  N   UNL     1      -2.425   2.977   3.861  0.00  0.00    -0.315 N 
ATOM      6  C   UNL     1      -3.205   3.258   2.798  0.00  0.00    +0.135 C 
ATOM      7  S   UNL     1      -4.814   3.777   3.065  0.00  0.00    -0.019 S 
ATOM      8  N   UNL     1      -2.759   3.150   1.540  0.00  0.00    -0.300 N 
ATOM      9  H   UNL     1      -2.767   3.065   4.764  0.00  0.00    +0.149 HD
ATOM     10  H   UNL     1      -3.368   3.372   0.818  0.00  0.00    +0.154 HD
ENDROOT
BRANCH   4  11
ATOM     11  C   UNL     1      -0.116   3.493   4.317  0.00  0.00    +0.024 A 
ATOM     12  C   UNL     1       0.069   4.766   3.811  0.00  0.00    +0.029 A 
ATOM     13  C   UNL     1       0.918   5.651   4.451  0.00  0.00    +0.045 A 
ATOM     14  C   UNL     1       1.586   5.265   5.599  0.00  0.00    +0.069 A 
ATOM     15  C   UNL     1       1.405   3.990   6.111  0.00  0.00    +0.163 A 
ATOM     16  C   UNL     1       0.545   3.103   5.470  0.00  0.00    +0.168 A 
ATOM     17 CL   UNL     1       1.147   7.248   3.811  0.00  0.00    -0.083 Cl
BRANCH  15  18
ATOM     18  O   UNL     1       2.060   3.609   7.239  0.00  0.00    -0.491 OA
ATOM     19  C   UNL     1       2.921   4.575   7.847  0.00  0.00    +0.277 C 
ENDBRANCH  15  18
BRANCH  16  20
ATOM     20  O   UNL     1       0.360   1.852   5.971  0.00  0.00    -0.485 OA
BRANCH  20  21
ATOM     21  C   UNL     1       1.346   0.870   5.647  0.00  0.00    +0.168 C 
ATOM     22  C   UNL     1       1.543  -0.068   6.840  0.00  0.00    +0.051 C 
ATOM     23  C   UNL     1       0.880   0.061   4.434  0.00  0.00    +0.051 C 
ENDBRANCH  20  21
ENDBRANCH  16  20
ENDBRANCH   4  11
BRANCH   3  24
ATOM     24  C   UNL     1       0.710   2.004   1.838  0.00  0.00    +0.248 C 
ATOM     25  O   UNL     1       1.656   2.745   2.037  0.00  0.00    -0.270 OA
ATOM     26  N   UNL     1       0.910   0.785   1.298  0.00  0.00    -0.281 N 
ATOM     27  H   UNL     1       0.152   0.221   1.081  0.00  0.00    +0.155 HD
BRANCH  26  28
ATOM     28  C   UNL     1       2.204   0.337   1.053  0.00  0.00    +0.048 A 
ATOM     29  C   UNL     1       3.241   0.700   1.902  0.00  0.00    +0.024 A 
ATOM     30  C   UNL     1       4.524   0.255   1.656  0.00  0.00    +0.002 A 
ATOM     31  C   UNL     1       4.788  -0.557   0.564  0.00  0.00    +0.001 A 
ATOM     32  C   UNL     1       3.772  -0.928  -0.289  0.00  0.00    +0.017 A 
ATOM     33  C   UNL     1       2.467  -0.489  -0.051  0.00  0.00    +0.080 A 
BRANCH  33  34
ATOM     34  C   UNL     1       1.374  -0.886  -0.956  0.00  0.00    +0.341 C 
ATOM     35  O   UNL     1       0.262  -0.420  -0.808  0.00  0.00    -0.245 OA
BRANCH  34  36
ATOM     36  O   UNL     1       1.609  -1.768  -1.949  0.00  0.00    -0.464 OA
ATOM     37  C   UNL     1       0.486  -2.113  -2.802  0.00  0.00    +0.280 C 
ENDBRANCH  34  36
ENDBRANCH  33  34
ENDBRANCH  26  28
ENDBRANCH   3  24
TORSDOF 8
