REMARK  Name = ZINC37920680
REMARK  5 active torsions:
REMARK  status: ('A' for Active; 'I' for Inactive)
REMARK    1  A    between atoms: C_1  and  C_2
REMARK    2  A    between atoms: C_8  and  C_14
REMARK    3  A    between atoms: C_11  and  C_13
REMARK    4  A    between atoms: N_16  and  C_17
REMARK    5  A    between atoms: C_17  and  C_18
REMARK                            x       y       z     vdW  Elec       q    Type
REMARK                         _______ _______ _______ _____ _____    ______ ____
ROOT
ATOM      1  C   UNL     1      -0.019   1.526   0.010  0.00  0.00    +0.016 C 
ATOM      2  C   UNL     1       0.002  -0.004   0.002  0.00  0.00    +0.060 C 
ATOM      3  C   UNL     1      -1.402  -0.566   0.122  0.00  0.00    +0.001 A 
ATOM      4  C   UNL     1      -2.426  -0.695  -0.790  0.00  0.00    +0.007 A 
ATOM      5  C   UNL     1      -3.631  -1.265  -0.411  0.00  0.00    +0.001 A 
ATOM      6  C   UNL     1      -3.809  -1.705   0.883  0.00  0.00    +0.017 A 
ATOM      7  C   UNL     1      -2.780  -1.575   1.815  0.00  0.00    +0.079 A 
ATOM      8  C   UNL     1      -1.557  -0.995   1.433  0.00  0.00    +0.137 A 
ATOM      9  O   UNL     1      -0.439  -0.755   2.167  0.00  0.00    -0.487 OA
ATOM     10  C   UNL     1       0.677  -0.555   1.280  0.00  0.00    +0.178 C 
ATOM     11  C   UNL     1       1.385  -1.881   0.992  0.00  0.00    +0.052 C 
ENDROOT
BRANCH   7  12
ATOM     12  C   UNL     1      -2.974  -2.047   3.200  0.00  0.00    +0.248 C 
ATOM     13  O   UNL     1      -2.076  -1.934   4.012  0.00  0.00    -0.270 OA
ATOM     14  N   UNL     1      -4.146  -2.603   3.564  0.00  0.00    -0.304 N 
ATOM     15  H   UNL     1      -4.862  -2.693   2.916  0.00  0.00    +0.149 HD
BRANCH  14  16
ATOM     16  C   UNL     1      -4.338  -3.071   4.939  0.00  0.00    +0.182 C 
BRANCH  16  17
ATOM     17  C   UNL     1      -5.723  -3.647   5.085  0.00  0.00    +0.168 A 
ATOM     18  N   UNL     1      -6.058  -4.920   4.879  0.00  0.00    -0.218 NA
ATOM     19  H   UNL     1      -8.783  -3.703   5.664  0.00  0.00    +0.190 HD
ATOM     20  C   UNL     1      -7.339  -5.082   5.092  0.00  0.00    +0.216 A 
ATOM     21  N   UNL     1      -7.857  -3.892   5.445  0.00  0.00    -0.265 N 
ATOM     22  N   UNL     1      -6.790  -2.979   5.438  0.00  0.00    -0.156 NA
ENDBRANCH  16  17
ENDBRANCH  14  16
ENDBRANCH   7  12
TORSDOF 3
