REMARK  Name = ZINC63386374
REMARK  9 active torsions:
REMARK  status: ('A' for Active; 'I' for Inactive)
REMARK    1  A    between atoms: C_1  and  C_2
REMARK    2  A    between atoms: C_5  and  O_33
REMARK    3  A    between atoms: C_7  and  O_32
REMARK    4  A    between atoms: C_13  and  C_15
REMARK    5  A    between atoms: C_15  and  C_16
REMARK    6  A    between atoms: N_18  and  C_19
REMARK    7  A    between atoms: C_19  and  C_21
REMARK    8  A    between atoms: C_19  and  C_22
REMARK    9  A    between atoms: C_22  and  C_23
REMARK                            x       y       z     vdW  Elec       q    Type
REMARK                         _______ _______ _______ _____ _____    ______ ____
ROOT
ATOM      1  C   UNL     1       0.505   0.274   2.441  0.00  0.00    +0.111 C 
ENDROOT
BRANCH   1  13
ATOM      2  C   UNL     1      -0.019   1.526   0.010  0.00  0.00    +0.013 C 
ATOM      3  C   UNL     1       0.002  -0.004   0.002  0.00  0.00    +0.037 C 
ATOM      4  C   UNL     1      -1.407  -0.525   0.133  0.00  0.00    +0.040 A 
ATOM      5  C   UNL     1      -2.423   0.134  -0.553  0.00  0.00    +0.127 A 
ATOM      6  C   UNL     1      -3.730  -0.315  -0.467  0.00  0.00    +0.091 A 
ATOM      7  C   UNL     1      -4.030  -1.426   0.306  0.00  0.00    +0.124 A 
ATOM      8  C   UNL     1      -3.021  -2.082   0.992  0.00  0.00    +0.092 A 
ATOM      9  C   UNL     1      -1.708  -1.629   0.909  0.00  0.00    +0.142 A 
ATOM     10  O   UNL     1      -0.752  -2.293   1.615  0.00  0.00    -0.425 OA
ATOM     11  C   UNL     1       0.535  -1.977   1.370  0.00  0.00    +0.317 C 
ATOM     12  O   UNL     1       1.395  -2.824   1.311  0.00  0.00    -0.250 OA
ATOM     13  C   UNL     1       0.852  -0.508   1.172  0.00  0.00    +0.114 C 
BRANCH   7  14
ATOM     14  O   UNL     1      -5.311  -1.871   0.391  0.00  0.00    -0.507 OA
ATOM     15  H   UNL     1      -5.547  -2.523  -0.283  0.00  0.00    +0.292 HD
ENDBRANCH   7  14
BRANCH   5  16
ATOM     16  O   UNL     1      -2.130   1.222  -1.312  0.00  0.00    -0.506 OA
ATOM     17  H   UNL     1      -1.912   1.015  -2.231  0.00  0.00    +0.292 HD
ENDBRANCH   5  16
ENDBRANCH   1  13
BRANCH   1  18
ATOM     18  C   UNL     1       1.429  -0.142   3.556  0.00  0.00    +0.214 C 
ATOM     19  O   UNL     1       2.281  -0.981   3.356  0.00  0.00    -0.276 OA
ATOM     20  N   UNL     1       1.308   0.419   4.776  0.00  0.00    -0.312 N 
ATOM     21  H   UNL     1       0.626   1.090   4.936  0.00  0.00    +0.149 HD
BRANCH  20  22
ATOM     22  C   UNL     1       2.207   0.015   5.860  0.00  0.00    +0.074 C 
ATOM     23  C   UNL     1       3.502   0.824   5.777  0.00  0.00    +0.028 C 
BRANCH  22  24
ATOM     24  C   UNL     1       1.529   0.273   7.207  0.00  0.00    +0.055 C 
BRANCH  24  25
ATOM     25  C   UNL     1       0.319  -0.616   7.339  0.00  0.00    -0.040 C 
ATOM     26  C   UNL     1       0.258  -1.819   7.954  0.00  0.00    -0.001 A 
ATOM     27  C   UNL     1       1.260  -2.630   8.655  0.00  0.00    +0.010 A 
ATOM     28  C   UNL     1       0.891  -3.822   9.177  0.00  0.00    +0.001 A 
ATOM     29  C   UNL     1      -0.421  -4.301   9.066  0.00  0.00    +0.002 A 
ATOM     30  C   UNL     1      -1.398  -3.613   8.437  0.00  0.00    +0.026 A 
ATOM     31  C   UNL     1      -1.122  -2.347   7.850  0.00  0.00    +0.043 A 
ATOM     32  N   UNL     1      -1.883  -1.503   7.197  0.00  0.00    -0.380 N 
ATOM     33  C   UNL     1      -1.073  -0.340   6.818  0.00  0.00    +0.144 C 
ATOM     34  H   UNL     1      -2.825  -1.625   7.002  0.00  0.00    +0.160 HD
ENDBRANCH  24  25
ENDBRANCH  22  24
ENDBRANCH  20  22
ENDBRANCH   1  18
TORSDOF 7
