REMARK  Name = ZINC39853420
REMARK  9 active torsions:
REMARK  status: ('A' for Active; 'I' for Inactive)
REMARK    1  A    between atoms: C_1  and  C_2
REMARK    2  A    between atoms: C_2  and  O_3
REMARK    3  A    between atoms: O_3  and  C_4
REMARK    4  A    between atoms: C_4  and  C_6
REMARK    5  A    between atoms: N_9  and  C_12
REMARK    6  A    between atoms: C_12  and  C_14
REMARK    7  A    between atoms: C_12  and  C_20
REMARK    8  A    between atoms: C_24  and  N_25
REMARK    9  A    between atoms: C_26  and  C_28
REMARK                            x       y       z     vdW  Elec       q    Type
REMARK                         _______ _______ _______ _____ _____    ______ ____
ROOT
ATOM      1  C   UNL     1       4.319  -4.091  -4.573  0.00  0.00    -0.004 C 
ENDROOT
BRANCH   1   2
ATOM      2  C   UNL     1       5.760  -3.877  -4.962  0.00  0.00    -0.025 A 
ATOM      3  C   UNL     1       6.084  -3.509  -6.268  0.00  0.00    -0.033 A 
ATOM      4  C   UNL     1       7.405  -3.335  -6.541  0.00  0.00    -0.005 A 
ATOM      5  S   UNL     1       8.208  -3.677  -4.998  0.00  0.00    -0.078 S 
ATOM      6  C   UNL     1       6.745  -4.037  -4.039  0.00  0.00    +0.074 A 
ATOM      7  C   UNL     1       8.022  -2.947  -7.846  0.00  0.00    +0.043 C 
ATOM      8  C   UNL     1       6.968  -3.124  -8.950  0.00  0.00    +0.005 C 
ATOM      9  C   UNL     1       5.659  -2.478  -8.488  0.00  0.00    +0.005 C 
ATOM     10  C   UNL     1       5.038  -3.302  -7.359  0.00  0.00    +0.036 C 
BRANCH   6  11
ATOM     11  N   UNL     1       6.640  -4.392  -2.691  0.00  0.00    -0.280 N 
ATOM     12  C   UNL     1       7.731  -4.364  -1.901  0.00  0.00    +0.214 C 
ATOM     13  O   UNL     1       8.804  -4.032  -2.359  0.00  0.00    -0.276 OA
ATOM     14  C   UNL     1       7.619  -4.747  -0.447  0.00  0.00    +0.109 C 
ATOM     15  H   UNL     1       5.782  -4.658  -2.325  0.00  0.00    +0.155 HD
ENDBRANCH   6  11
ENDBRANCH   1   2
BRANCH   1  19
ATOM     16  C   UNL     1       2.693  -1.292  -1.803  0.00  0.00    +0.094 C 
ATOM     17  C   UNL     1       4.168  -1.185  -2.203  0.00  0.00    -0.004 C 
ATOM     18  C   UNL     1       4.390  -1.942  -3.515  0.00  0.00    -0.077 C 
ATOM     19  N   UNL     1       4.031  -3.354  -3.336  0.00  0.00    +0.387 N 
ATOM     20  C   UNL     1       2.602  -3.468  -3.022  0.00  0.00    -0.077 C 
ATOM     21  C   UNL     1       2.310  -2.770  -1.692  0.00  0.00    -0.004 C 
ATOM     22  H   UNL     1       4.573  -3.744  -2.580  0.00  0.00    -0.080 HD
BRANCH  16  23
ATOM     23  C   UNL     1       2.483  -0.615  -0.473  0.00  0.00    +0.310 C 
ATOM     24  O   UNL     1       2.068  -1.249   0.469  0.00  0.00    -0.251 OA
BRANCH  23  25
ATOM     25  O   UNL     1       2.755   0.692  -0.334  0.00  0.00    -0.465 OA
BRANCH  25  27
ATOM     26  C   UNL     1       2.896   2.753   0.919  0.00  0.00    +0.048 C 
ATOM     27  C   UNL     1       2.532   1.268   0.955  0.00  0.00    +0.229 C 
ENDBRANCH  25  27
ENDBRANCH  23  25
ENDBRANCH  16  23
ENDBRANCH   1  19
BRANCH   1  28
ATOM     28  C   UNL     1       4.072  -5.561  -4.351  0.00  0.00    -0.057 A 
ATOM     29  C   UNL     1       4.120  -6.085  -3.072  0.00  0.00    +0.002 A 
ATOM     30  C   UNL     1       3.894  -7.433  -2.869  0.00  0.00    +0.000 A 
ATOM     31  C   UNL     1       3.619  -8.258  -3.943  0.00  0.00    +0.000 A 
ATOM     32  C   UNL     1       3.569  -7.734  -5.222  0.00  0.00    +0.000 A 
ATOM     33  C   UNL     1       3.792  -6.385  -5.425  0.00  0.00    +0.002 A 
ENDBRANCH   1  28
TORSDOF 7
