REMARK  Name = ZINC18200017
REMARK  9 active torsions:
REMARK  status: ('A' for Active; 'I' for Inactive)
REMARK    1  A    between atoms: C_1  and  C_2
REMARK    2  A    between atoms: C_5  and  C_8
REMARK    3  A    between atoms: C_22  and  C_25
REMARK    4  A    between atoms: C_27  and  O_35
REMARK    5  A    between atoms: C_28  and  O_33
REMARK    6  A    between atoms: C_29  and  O_31
REMARK    7  A    between atoms: O_31  and  C_32
REMARK    8  A    between atoms: O_33  and  C_34
REMARK    9  A    between atoms: O_35  and  C_36
REMARK                            x       y       z     vdW  Elec       q    Type
REMARK                         _______ _______ _______ _____ _____    ______ ____
ROOT
ATOM      1  C   UNL     1      -2.718   2.949   4.763  0.00  0.00    +0.086 C 
ATOM      2  C   UNL     1      -3.734   1.925   5.180  0.00  0.00    -0.011 A 
ATOM      3  C   UNL     1      -3.321   0.774   5.831  0.00  0.00    +0.056 A 
ATOM      4  C   UNL     1      -4.248  -0.179   6.217  0.00  0.00    +0.167 A 
ATOM      5  C   UNL     1      -5.602   0.018   5.952  0.00  0.00    +0.168 A 
ATOM      6  C   UNL     1      -6.015   1.170   5.305  0.00  0.00    +0.073 A 
ATOM      7  C   UNL     1      -5.081   2.123   4.920  0.00  0.00    +0.039 A 
ATOM      8  N   UNL     1      -5.494   3.287   4.267  0.00  0.00    -0.317 N 
ATOM      9  C   UNL     1      -4.686   4.386   4.235  0.00  0.00    +0.016 C 
ATOM     10  C   UNL     1      -3.360   4.281   4.474  0.00  0.00    +0.024 C 
ATOM     11  C   UNL     1      -2.532   5.416   4.461  0.00  0.00    +0.162 C 
ATOM     12  O   UNL     1      -1.343   5.288   4.676  0.00  0.00    -0.292 OA
ATOM     13  C   UNL     1      -3.088   6.786   4.187  0.00  0.00    +0.088 C 
ATOM     14  C   UNL     1      -4.549   6.833   4.648  0.00  0.00    +0.032 C 
ATOM     15  C   UNL     1      -5.318   5.723   3.929  0.00  0.00    +0.059 C 
ATOM     16  O   UNL     1      -6.301  -1.054   6.425  0.00  0.00    -0.453 OA
ATOM     17  C   UNL     1      -5.412  -1.718   7.343  0.00  0.00    +0.466 C 
ATOM     18  O   UNL     1      -4.100  -1.378   6.857  0.00  0.00    -0.453 OA
ATOM     19  H   UNL     1      -6.361   3.313   3.834  0.00  0.00    +0.152 HD
ENDROOT
BRANCH   1  24
ATOM     20  C   UNL     1      -0.013   1.086   0.008  0.00  0.00    +0.044 C 
ATOM     21  C   UNL     1      -0.718   1.572   1.248  0.00  0.00    -0.050 A 
ATOM     22  C   UNL     1      -2.083   1.789   1.226  0.00  0.00    +0.003 A 
ATOM     23  C   UNL     1      -2.731   2.231   2.365  0.00  0.00    +0.005 A 
ATOM     24  C   UNL     1      -2.012   2.464   3.522  0.00  0.00    -0.035 A 
ATOM     25  C   UNL     1      -0.646   2.251   3.543  0.00  0.00    +0.005 A 
ATOM     26  C   UNL     1       0.001   1.806   2.405  0.00  0.00    +0.003 A 
ENDBRANCH   1  24
BRANCH  14  27
ATOM     27  C   UNL     1      -5.148   8.172   4.301  0.00  0.00    -0.036 A 
ATOM     28  C   UNL     1      -5.178   8.593   2.986  0.00  0.00    +0.053 A 
ATOM     29  C   UNL     1      -5.733   9.822   2.662  0.00  0.00    +0.165 A 
ATOM     30  C   UNL     1      -6.250  10.634   3.664  0.00  0.00    +0.204 A 
ATOM     31  C   UNL     1      -6.213  10.209   4.986  0.00  0.00    +0.165 A 
ATOM     32  C   UNL     1      -5.661   8.977   5.301  0.00  0.00    +0.053 A 
BRANCH  31  33
ATOM     33  O   UNL     1      -6.718  11.001   5.971  0.00  0.00    -0.491 OA
ATOM     34  C   UNL     1      -6.645  10.499   7.307  0.00  0.00    +0.277 C 
ENDBRANCH  31  33
BRANCH  30  35
ATOM     35  O   UNL     1      -6.792  11.843   3.351  0.00  0.00    -0.488 OA
ATOM     36  C   UNL     1      -5.910  12.967   3.346  0.00  0.00    +0.277 C 
ENDBRANCH  30  35
BRANCH  29  37
ATOM     37  O   UNL     1      -5.767  10.234   1.366  0.00  0.00    -0.491 OA
ATOM     38  C   UNL     1      -5.218   9.347   0.389  0.00  0.00    +0.277 C 
ENDBRANCH  29  37
ENDBRANCH  14  27
TORSDOF 5
