REMARK  Name = ZINC14748339
REMARK  8 active torsions:
REMARK  status: ('A' for Active; 'I' for Inactive)
REMARK    1  A    between atoms: C_1  and  C_2
REMARK    2  A    between atoms: C_2  and  C_3
REMARK    3  A    between atoms: C_2  and  C_4
REMARK    4  A    between atoms: C_4  and  N_5
REMARK    5  A    between atoms: N_8  and  C_30
REMARK    6  A    between atoms: C_16  and  C_17
REMARK    7  A    between atoms: C_16  and  N_71
REMARK    8  A    between atoms: C_30  and  C_31
REMARK                            x       y       z     vdW  Elec       q    Type
REMARK                         _______ _______ _______ _____ _____    ______ ____
ROOT
ATOM      1  N   UNL     1       2.165   0.825   0.071  0.00  0.00    -0.271 N 
ATOM      2  C   UNL     1       1.162   1.724   0.095  0.00  0.00    +0.312 C 
ATOM      3  O   UNL     1       1.330   2.926   0.039  0.00  0.00    -0.252 OA
ATOM      4  N   UNL     1      -0.041   1.144   0.188  0.00  0.00    -0.218 N 
ATOM      5  C   UNL     1       0.058  -0.201   0.234  0.00  0.00    +0.247 C 
ATOM      6  O   UNL     1      -0.849  -1.002   0.317  0.00  0.00    -0.273 OA
ATOM      7  C   UNL     1       1.537  -0.499   0.158  0.00  0.00    +0.112 C 
ATOM      8  C   UNL     1       1.852  -1.325  -1.085  0.00  0.00    +0.017 C 
ATOM      9  C   UNL     1       3.352  -1.634  -1.121  0.00  0.00    -0.076 C 
ATOM     10  C   UNL     1       3.494  -1.542   1.298  0.00  0.00    -0.076 C 
ATOM     11  C   UNL     1       2.000  -1.229   1.415  0.00  0.00    +0.017 C 
ATOM     12  N   UNL     1       3.715  -2.383   0.102  0.00  0.00    +0.382 N 
ATOM     13  H   UNL     1       3.122  -3.218   0.169  0.00  0.00    -0.081 HD
ENDROOT
BRANCH   1  14
ATOM     14  C   UNL     1       3.598   1.112  -0.025  0.00  0.00    +0.113 C 
BRANCH  14  16
ATOM     15  C   UNL     1       3.846   1.206   2.459  0.00  0.00    +0.009 C 
ATOM     16  C   UNL     1       4.023   1.987   1.156  0.00  0.00    +0.000 C 
ATOM     17  C   UNL     1       5.492   2.384   0.994  0.00  0.00    +0.009 C 
ENDBRANCH  14  16
ENDBRANCH   1  14
BRANCH  12  18
ATOM     18  C   UNL     1       5.129  -2.803   0.035  0.00  0.00    -0.043 C 
BRANCH  18  19
ATOM     19  C   UNL     1       5.279  -3.828  -1.060  0.00  0.00    -0.064 A 
ATOM     20  C   UNL     1       5.590  -3.424  -2.346  0.00  0.00    +0.002 A 
ATOM     21  C   UNL     1       5.729  -4.357  -3.353  0.00  0.00    +0.009 A 
ATOM     22  C   UNL     1       5.555  -5.714  -3.075  0.00  0.00    -0.014 A 
ATOM     23  C   UNL     1       5.242  -6.110  -1.778  0.00  0.00    -0.035 A 
ATOM     24  C   UNL     1       5.111  -5.171  -0.776  0.00  0.00    +0.006 A 
ATOM     25  C   UNL     1       5.117  -7.614  -1.779  0.00  0.00    +0.071 C 
ATOM     26  C   UNL     1       5.386  -8.053  -3.198  0.00  0.00    -0.035 A 
ATOM     27  C   UNL     1       5.644  -6.910  -3.949  0.00  0.00    -0.014 A 
ATOM     28  C   UNL     1       5.928  -7.035  -5.310  0.00  0.00    +0.009 A 
ATOM     29  C   UNL     1       5.951  -8.283  -5.897  0.00  0.00    +0.001 A 
ATOM     30  C   UNL     1       5.694  -9.413  -5.143  0.00  0.00    +0.000 A 
ATOM     31  C   UNL     1       5.412  -9.297  -3.793  0.00  0.00    +0.004 A 
ENDBRANCH  18  19
ENDBRANCH  12  18
BRANCH   4  32
ATOM     32  C   UNL     1      -1.308   1.878   0.229  0.00  0.00    +0.173 C 
BRANCH  32  33
ATOM     33  C   UNL     1      -1.666   2.183   1.661  0.00  0.00    +0.059 A 
ATOM     34  C   UNL     1      -1.318   3.405   2.207  0.00  0.00    +0.025 A 
ATOM     35  C   UNL     1      -1.652   3.676   3.524  0.00  0.00    +0.003 A 
ATOM     36  C   UNL     1      -2.327   2.704   4.248  0.00  0.00    +0.020 A 
ATOM     37  C   UNL     1      -2.641   1.506   3.635  0.00  0.00    +0.111 A 
ATOM     38  N   UNL     1      -2.312   1.284   2.377  0.00  0.00    -0.258 NA
ENDBRANCH  32  33
ENDBRANCH   4  32
TORSDOF 6
