REMARK  Name = ZINC13274744
REMARK  9 active torsions:
REMARK  status: ('A' for Active; 'I' for Inactive)
REMARK    1  A    between atoms: C_3  and  S_21
REMARK    2  A    between atoms: C_4  and  N_18
REMARK    3  A    between atoms: C_6  and  S_7
REMARK    4  A    between atoms: S_7  and  N_10
REMARK    5  A    between atoms: C_13  and  C_16
REMARK    6  A    between atoms: S_21  and  C_22
REMARK    7  A    between atoms: C_22  and  C_24
REMARK    8  A    between atoms: C_22  and  C_27
REMARK    9  A    between atoms: C_24  and  C_25
REMARK                            x       y       z     vdW  Elec       q    Type
REMARK                         _______ _______ _______ _____ _____    ______ ____
ROOT
ATOM      1  C   UNL     1      -5.455  -2.195   0.010  0.00  0.00    +0.030 A 
ATOM      2  C   UNL     1      -4.463  -1.248   0.176  0.00  0.00    +0.019 A 
ATOM      3  C   UNL     1      -3.720  -1.222   1.350  0.00  0.00    +0.039 A 
ATOM      4  C   UNL     1      -3.985  -2.142   2.357  0.00  0.00    +0.141 A 
ATOM      5  C   UNL     1      -4.982  -3.082   2.186  0.00  0.00    +0.062 A 
ATOM      6  C   UNL     1      -5.716  -3.109   1.014  0.00  0.00    +0.108 A 
ENDROOT
BRANCH   6   7
ATOM      7  S   UNL     1      -6.988  -4.309   0.801  0.00  0.00    +0.061 S 
ATOM      8  O   UNL     1      -7.161  -4.473  -0.600  0.00  0.00    -0.153 OA
ATOM      9  O   UNL     1      -6.670  -5.395   1.661  0.00  0.00    -0.153 OA
BRANCH   7  10
ATOM     10  N   UNL     1      -8.391  -3.644   1.377  0.00  0.00    -0.177 NA
ATOM     11  C   UNL     1      -8.779  -3.816   2.783  0.00  0.00    +0.110 C 
ATOM     12  C   UNL     1     -10.195  -4.386   2.842  0.00  0.00    +0.032 C 
ATOM     13  C   UNL     1     -11.137  -3.490   2.035  0.00  0.00    +0.105 C 
ATOM     14  C   UNL     1     -10.688  -3.461   0.573  0.00  0.00    +0.032 C 
ATOM     15  C   UNL     1      -9.274  -2.875   0.489  0.00  0.00    +0.110 C 
BRANCH  13  16
ATOM     16  C   UNL     1     -12.540  -4.034   2.118  0.00  0.00    +0.359 C 
ATOM     17  O   UNL     1     -13.121  -4.364   1.111  0.00  0.00    -0.246 OA
ATOM     18  O   UNL     1     -13.145  -4.152   3.310  0.00  0.00    -0.246 OA
ENDBRANCH  13  16
ENDBRANCH   7  10
ENDBRANCH   6   7
BRANCH   4  19
ATOM     19  N   UNL     1      -3.200  -2.115   3.612  0.00  0.00    +0.058 N 
ATOM     20  O   UNL     1      -3.433  -2.921   4.494  0.00  0.00    -0.126 OA
ATOM     21  O   UNL     1      -2.321  -1.285   3.762  0.00  0.00    -0.126 OA
ENDBRANCH   4  19
BRANCH   3  22
ATOM     22  S   UNL     1      -2.449  -0.021   1.564  0.00  0.00    -0.108 S 
BRANCH  22  23
ATOM     23  C   UNL     1      -2.479   0.930   0.019  0.00  0.00    +0.175 C 
BRANCH  23  24
ATOM     24  C   UNL     1      -3.791   1.662  -0.095  0.00  0.00    +0.370 C 
ATOM     25  O   UNL     1      -4.604   1.321  -0.921  0.00  0.00    -0.245 OA
ATOM     26  O   UNL     1      -4.057   2.693   0.722  0.00  0.00    -0.245 OA
ENDBRANCH  23  24
BRANCH  23  27
ATOM     27  C   UNL     1      -1.329   1.940   0.019  0.00  0.00    +0.151 C 
BRANCH  27  28
ATOM     28  C   UNL     1      -0.014   1.204   0.009  0.00  0.00    +0.358 C 
ATOM     29  O   UNL     1       0.002  -0.004   0.002  0.00  0.00    -0.246 OA
ATOM     30  O   UNL     1       1.139   1.891   0.001  0.00  0.00    -0.246 OA
ENDBRANCH  27  28
ENDBRANCH  23  27
ENDBRANCH  22  23
ENDBRANCH   3  22
TORSDOF 9
