REMARK  Name = ZINC09304787
REMARK  11 active torsions:
REMARK  status: ('A' for Active; 'I' for Inactive)
REMARK    1  A    between atoms: C_1  and  C_2
REMARK    2  A    between atoms: C_2  and  O_3
REMARK    3  A    between atoms: O_3  and  C_4
REMARK    4  A    between atoms: C_7  and  C_13
REMARK    5  A    between atoms: C_9  and  O_10
REMARK    6  A    between atoms: O_10  and  C_11
REMARK    7  A    between atoms: C_11  and  C_12
REMARK    8  A    between atoms: C_15  and  C_27
REMARK    9  A    between atoms: C_16  and  C_21
REMARK   10  A    between atoms: N_29  and  C_30
REMARK   11  A    between atoms: C_33  and  C_36
REMARK                            x       y       z     vdW  Elec       q    Type
REMARK                         _______ _______ _______ _____ _____    ______ ____
ROOT
ATOM      1  C   UNL     1       1.947   1.411   0.481  0.00  0.00    +0.140 C 
ATOM      2  C   UNL     1       1.323   2.542  -0.310  0.00  0.00    +0.061 C 
ATOM      3  C   UNL     1       0.007   2.423  -0.655  0.00  0.00    +0.050 C 
ATOM      4  N   UNL     1      -0.717   1.313  -0.292  0.00  0.00    -0.296 N 
ATOM      5  C   UNL     1      -0.205   0.292   0.407  0.00  0.00    +0.135 C 
ATOM      6  S   UNL     1      -1.217  -1.033   0.794  0.00  0.00    -0.019 S 
ATOM      7  N   UNL     1       1.079   0.270   0.815  0.00  0.00    -0.315 N 
ATOM      8  H   UNL     1      -1.776   1.230  -0.576  0.00  0.00    +0.154 HD
ATOM      9  H   UNL     1       1.481  -0.578   1.388  0.00  0.00    +0.149 HD
ENDROOT
BRANCH   1  13
ATOM     10  C   UNL     1       5.280  -0.075  -1.748  0.00  0.00    +0.162 A 
ATOM     11  C   UNL     1       5.480   0.828  -0.716  0.00  0.00    +0.050 A 
ATOM     12  C   UNL     1       4.401   1.306   0.002  0.00  0.00    +0.009 A 
ATOM     13  C   UNL     1       3.120   0.886  -0.306  0.00  0.00    -0.019 A 
ATOM     14  C   UNL     1       2.914  -0.019  -1.331  0.00  0.00    +0.055 A 
ATOM     15  C   UNL     1       3.991  -0.498  -2.058  0.00  0.00    +0.162 A 
BRANCH  10  16
ATOM     16  O   UNL     1       6.341  -0.548  -2.455  0.00  0.00    -0.489 OA
BRANCH  16  18
ATOM     17  C   UNL     1       8.694  -0.708  -2.982  0.00  0.00    +0.048 C 
ATOM     18  C   UNL     1       7.635  -0.071  -2.081  0.00  0.00    +0.226 C 
ENDBRANCH  16  18
ENDBRANCH  10  16
BRANCH  15  19
ATOM     19  O   UNL     1       3.790  -1.384  -3.070  0.00  0.00    -0.489 OA
BRANCH  19  20
ATOM     20  C   UNL     1       2.435  -1.701  -3.395  0.00  0.00    +0.226 C 
ATOM     21  C   UNL     1       2.409  -2.731  -4.526  0.00  0.00    +0.048 C 
ENDBRANCH  19  20
ENDBRANCH  15  19
ENDBRANCH   1  13
BRANCH   3  22
ATOM     22  C   UNL     1      -0.645   3.500  -1.427  0.00  0.00    -0.003 A 
ATOM     23  C   UNL     1      -1.371   3.195  -2.580  0.00  0.00    +0.010 A 
ATOM     24  C   UNL     1      -1.983   4.205  -3.294  0.00  0.00    +0.001 A 
ATOM     25  C   UNL     1      -1.869   5.519  -2.875  0.00  0.00    +0.000 A 
ATOM     26  C   UNL     1      -1.147   5.829  -1.736  0.00  0.00    +0.001 A 
ATOM     27  C   UNL     1      -0.535   4.828  -1.010  0.00  0.00    +0.010 A 
ENDBRANCH   3  22
BRANCH   2  28
ATOM     28  C   UNL     1       2.074   3.678  -0.678  0.00  0.00    +0.248 C 
ATOM     29  O   UNL     1       2.408   4.488   0.169  0.00  0.00    -0.270 OA
ATOM     30  N   UNL     1       2.422   3.868  -1.966  0.00  0.00    -0.282 N 
ATOM     31  H   UNL     1       2.036   3.195  -2.745  0.00  0.00    +0.155 HD
BRANCH  30  32
ATOM     32  C   UNL     1       3.275   4.921  -2.312  0.00  0.00    +0.034 A 
ATOM     33  C   UNL     1       4.289   5.309  -1.446  0.00  0.00    +0.023 A 
ATOM     34  C   UNL     1       5.133   6.346  -1.793  0.00  0.00    +0.005 A 
ATOM     35  C   UNL     1       4.961   7.005  -2.996  0.00  0.00    -0.050 A 
ATOM     36  C   UNL     1       3.949   6.626  -3.858  0.00  0.00    +0.005 A 
ATOM     37  C   UNL     1       3.105   5.586  -3.519  0.00  0.00    +0.023 A 
ATOM     38  C   UNL     1       5.880   8.140  -3.369  0.00  0.00    +0.044 C 
ENDBRANCH  30  32
ENDBRANCH   2  28
TORSDOF 8
