REMARK  Name = ZINC16739791
REMARK  7 active torsions:
REMARK  status: ('A' for Active; 'I' for Inactive)
REMARK    1  A    between atoms: C_1  and  C_2
REMARK    2  A    between atoms: C_5  and  N_8
REMARK    3  A    between atoms: C_11  and  C_28
REMARK    4  A    between atoms: C_15  and  C_16
REMARK    5  A    between atoms: C_15  and  C_18
REMARK    6  A    between atoms: N_20  and  C_21
REMARK    7  A    between atoms: C_28  and  C_29
REMARK                            x       y       z     vdW  Elec       q    Type
REMARK                         _______ _______ _______ _____ _____    ______ ____
ROOT
ATOM      1  N   UNL     1       5.409   4.479  -1.945  0.00  0.00    -0.232 N 
ATOM      2  C   UNL     1       5.271   3.271  -1.426  0.00  0.00    +0.238 C 
ATOM      3  O   UNL     1       6.215   2.639  -1.002  0.00  0.00    -0.274 OA
ATOM      4  C   UNL     1       3.853   2.724  -1.395  0.00  0.00    +0.143 C 
ATOM      5  S   UNL     1       2.944   4.125  -2.159  0.00  0.00    -0.095 S 
ATOM      6  C   UNL     1       4.345   5.201  -2.428  0.00  0.00    +0.098 C 
ATOM      7  C   UNL     1       4.355   6.476  -2.995  0.00  0.00    +0.142 C 
ENDROOT
BRANCH   1  12
ATOM      8  C   UNL     1      10.596   6.768  -2.187  0.00  0.00    +0.044 C 
ATOM      9  C   UNL     1       9.219   6.160  -2.123  0.00  0.00    -0.050 A 
ATOM     10  C   UNL     1       8.533   6.129  -0.922  0.00  0.00    +0.005 A 
ATOM     11  C   UNL     1       7.271   5.572  -0.860  0.00  0.00    +0.024 A 
ATOM     12  C   UNL     1       6.690   5.044  -2.005  0.00  0.00    +0.042 A 
ATOM     13  C   UNL     1       7.382   5.072  -3.208  0.00  0.00    +0.024 A 
ATOM     14  C   UNL     1       8.643   5.635  -3.264  0.00  0.00    +0.005 A 
ENDBRANCH   1  12
BRANCH   7  15
ATOM     15  C   UNL     1       5.584   7.269  -2.989  0.00  0.00    +0.261 C 
ATOM     16  O   UNL     1       6.300   7.289  -3.973  0.00  0.00    -0.269 OA
ATOM     17  N   UNL     1       5.923   7.977  -1.894  0.00  0.00    -0.281 N 
ATOM     18  H   UNL     1       5.322   8.013  -1.134  0.00  0.00    +0.155 HD
BRANCH  17  19
ATOM     19  C   UNL     1       7.143   8.662  -1.854  0.00  0.00    +0.034 A 
ATOM     20  C   UNL     1       7.668   9.215  -3.014  0.00  0.00    +0.024 A 
ATOM     21  C   UNL     1       8.870   9.895  -2.970  0.00  0.00    +0.017 A 
ATOM     22  C   UNL     1       9.555  10.015  -1.774  0.00  0.00    +0.018 A 
ATOM     23  C   UNL     1       9.036   9.460  -0.618  0.00  0.00    +0.017 A 
ATOM     24  C   UNL     1       7.832   8.784  -0.654  0.00  0.00    +0.024 A 
ATOM     25 BR   UNL     1      11.204  10.940  -1.720  0.00  0.00    -0.050 Br
ENDBRANCH  17  19
ENDBRANCH   7  15
BRANCH   7  26
ATOM     26  C   UNL     1       3.163   7.008  -3.583  0.00  0.00    +0.107 C 
ATOM     27  N   UNL     1       2.217   7.430  -4.050  0.00  0.00    -0.191 NA
ENDBRANCH   7  26
BRANCH   4  28
ATOM     28  C   UNL     1       3.385   2.475   0.040  0.00  0.00    +0.059 C 
BRANCH  28  29
ATOM     29  C   UNL     1       2.027   1.821   0.020  0.00  0.00    -0.046 A 
ATOM     30  C   UNL     1       0.885   2.599   0.031  0.00  0.00    +0.004 A 
ATOM     31  C   UNL     1      -0.360   1.999   0.013  0.00  0.00    +0.000 A 
ATOM     32  C   UNL     1      -0.463   0.621  -0.014  0.00  0.00    +0.000 A 
ATOM     33  C   UNL     1       0.680  -0.157  -0.023  0.00  0.00    +0.000 A 
ATOM     34  C   UNL     1       1.925   0.443  -0.005  0.00  0.00    +0.004 A 
ENDBRANCH  28  29
ENDBRANCH   4  28
TORSDOF 6
