REMARK  Name = ZINC67089017
REMARK  10 active torsions:
REMARK  status: ('A' for Active; 'I' for Inactive)
REMARK    1  A    between atoms: C_1  and  C_2
REMARK    2  A    between atoms: C_2  and  C_4
REMARK    3  A    between atoms: C_2  and  N_11
REMARK    4  A    between atoms: N_11  and  C_12
REMARK    5  A    between atoms: N_15  and  C_16
REMARK    6  A    between atoms: C_16  and  C_17
REMARK    7  A    between atoms: N_19  and  C_20
REMARK    8  A    between atoms: N_19  and  C_21
REMARK    9  A    between atoms: C_21  and  C_22
REMARK   10  A    between atoms: C_22  and  C_23
REMARK                            x       y       z     vdW  Elec       q    Type
REMARK                         _______ _______ _______ _____ _____    ______ ____
ROOT
ATOM      1  N   UNL     1       0.617  -0.401  -1.310  0.00  0.00    -0.282 N 
ATOM      2  C   UNL     1       2.001  -0.051  -1.638  0.00  0.00    +0.134 C 
ATOM      3  C   UNL     1      -0.169  -0.984  -2.237  0.00  0.00    +0.303 C 
ATOM      4  O   UNL     1      -1.317  -1.274  -1.965  0.00  0.00    -0.253 OA
ATOM      5  N   UNL     1       0.319  -1.244  -3.466  0.00  0.00    -0.291 N 
ATOM      6  H   UNL     1       1.236  -1.012  -3.684  0.00  0.00    +0.151 HD
ENDROOT
BRANCH   1   8
ATOM      7  C   UNL     1       0.302   1.360   0.358  0.00  0.00    +0.033 C 
ATOM      8  C   UNL     1       0.087  -0.118   0.026  0.00  0.00    +0.104 C 
BRANCH   8   9
ATOM      9  C   UNL     1       0.804  -0.970   1.042  0.00  0.00    -0.027 A 
ATOM     10  C   UNL     1       2.183  -0.923   1.133  0.00  0.00    +0.008 A 
ATOM     11  C   UNL     1       2.841  -1.703   2.064  0.00  0.00    +0.038 A 
ATOM     12  C   UNL     1       2.119  -2.533   2.906  0.00  0.00    +0.123 A 
ATOM     13  C   UNL     1       0.739  -2.579   2.814  0.00  0.00    +0.038 A 
ATOM     14  C   UNL     1       0.082  -1.794   1.885  0.00  0.00    +0.008 A 
ATOM     15  F   UNL     1       2.762  -3.296   3.817  0.00  0.00    -0.205 F 
ENDBRANCH   8   9
ENDBRANCH   1   8
BRANCH   5  16
ATOM     16  C   UNL     1      -0.535  -1.877  -4.474  0.00  0.00    +0.201 C 
BRANCH  16  17
ATOM     17  C   UNL     1       0.244  -2.056  -5.752  0.00  0.00    +0.233 C 
ATOM     18  O   UNL     1       1.399  -1.691  -5.814  0.00  0.00    -0.274 OA
ATOM     19  N   UNL     1      -0.342  -2.622  -6.825  0.00  0.00    -0.303 N 
ATOM     20  C   UNL     1      -1.737  -3.063  -6.750  0.00  0.00    +0.132 C 
BRANCH  19  21
ATOM     21  C   UNL     1       0.415  -2.797  -8.067  0.00  0.00    +0.113 C 
BRANCH  21  22
ATOM     22  C   UNL     1       1.114  -4.158  -8.051  0.00  0.00    +0.074 C 
BRANCH  22  23
ATOM     23  C   UNL     1       1.893  -4.337  -9.329  0.00  0.00    +0.043 A 
ATOM     24  C   UNL     1       3.242  -4.635  -9.271  0.00  0.00    +0.023 A 
ATOM     25  C   UNL     1       3.949  -4.798 -10.451  0.00  0.00    +0.003 A 
ATOM     26  C   UNL     1       3.271  -4.654 -11.652  0.00  0.00    +0.020 A 
ATOM     27  C   UNL     1       1.922  -4.356 -11.632  0.00  0.00    +0.111 A 
ATOM     28  N   UNL     1       1.280  -4.213 -10.489  0.00  0.00    -0.260 NA
ENDBRANCH  22  23
ENDBRANCH  21  22
ENDBRANCH  19  21
ENDBRANCH  16  17
ENDBRANCH   5  16
TORSDOF 7
