REMARK  Name = ZINC35523356
REMARK  6 active torsions:
REMARK  status: ('A' for Active; 'I' for Inactive)
REMARK    1  A    between atoms: C_1  and  C_2
REMARK    2  A    between atoms: C_5  and  C_8
REMARK    3  A    between atoms: N_17  and  C_18
REMARK    4  A    between atoms: C_18  and  C_19
REMARK    5  A    between atoms: C_22  and  C_24
REMARK    6  A    between atoms: N_26  and  C_27
REMARK                            x       y       z     vdW  Elec       q    Type
REMARK                         _______ _______ _______ _____ _____    ______ ____
ROOT
ATOM      1  C   UNL     1       0.059  -4.275  -0.021  0.00  0.00    +0.011 C 
ATOM      2  C   UNL     1       1.464  -4.768   0.230  0.00  0.00    +0.009 A 
ATOM      3  C   UNL     1       2.610  -4.316  -0.298  0.00  0.00    +0.021 A 
ATOM      4  C   UNL     1       3.657  -5.090   0.246  0.00  0.00    +0.019 A 
ATOM      5  C   UNL     1       3.103  -5.989   1.088  0.00  0.00    +0.086 A 
ATOM      6  N   UNL     1       1.759  -5.800   1.082  0.00  0.00    -0.353 N 
ATOM      7  C   UNL     1       0.734  -6.540   1.829  0.00  0.00    +0.103 C 
ATOM      8  C   UNL     1      -0.627  -6.242   1.189  0.00  0.00    -0.055 C 
ATOM      9  N   UNL     1      -0.808  -4.790   1.052  0.00  0.00    +0.394 N 
ATOM     10  H   UNL     1      -0.567  -4.339   1.922  0.00  0.00    -0.080 HD
ENDROOT
BRANCH   1  15
ATOM     11  C   UNL     1      -0.018   1.503   0.010  0.00  0.00    +0.044 C 
ATOM     12  C   UNL     1       0.002  -0.004   0.002  0.00  0.00    -0.050 A 
ATOM     13  C   UNL     1       0.006  -0.689  -1.199  0.00  0.00    +0.003 A 
ATOM     14  C   UNL     1       0.025  -2.071  -1.206  0.00  0.00    +0.002 A 
ATOM     15  C   UNL     1       0.040  -2.768  -0.013  0.00  0.00    -0.055 A 
ATOM     16  C   UNL     1       0.037  -2.084   1.188  0.00  0.00    +0.002 A 
ATOM     17  C   UNL     1       0.023  -0.702   1.195  0.00  0.00    +0.003 A 
ENDBRANCH   1  15
BRANCH   9  18
ATOM     18  C   UNL     1      -2.211  -4.500   0.727  0.00  0.00    -0.002 C 
BRANCH  18  19
ATOM     19  C   UNL     1      -3.089  -4.915   1.879  0.00  0.00    +0.090 A 
ATOM     20  C   UNL     1      -3.448  -4.128   2.918  0.00  0.00    +0.043 A 
ATOM     21  C   UNL     1      -4.265  -4.901   3.757  0.00  0.00    +0.055 A 
ATOM     22  C   UNL     1      -4.365  -6.135   3.181  0.00  0.00    +0.189 A 
ATOM     23  O   UNL     1      -3.648  -6.121   2.039  0.00  0.00    -0.457 OA
BRANCH  22  24
ATOM     24  C   UNL     1      -5.123  -7.274   3.710  0.00  0.00    +0.280 C 
ATOM     25  O   UNL     1      -5.738  -7.163   4.754  0.00  0.00    -0.267 OA
ATOM     26  N   UNL     1      -5.139  -8.442   3.039  0.00  0.00    -0.306 N 
ATOM     27  H   UNL     1      -4.649  -8.530   2.206  0.00  0.00    +0.149 HD
BRANCH  26  28
ATOM     28  C   UNL     1      -5.896  -9.580   3.566  0.00  0.00    +0.073 C 
ATOM     29  C   UNL     1      -5.035 -10.341   4.577  0.00  0.00    +0.022 C 
ATOM     30  C   UNL     1      -5.826 -11.529   5.128  0.00  0.00    +0.002 C 
ATOM     31  C   UNL     1      -6.209 -12.463   3.979  0.00  0.00    +0.000 C 
ATOM     32  C   UNL     1      -7.070 -11.703   2.969  0.00  0.00    +0.002 C 
ATOM     33  C   UNL     1      -6.279 -10.515   2.417  0.00  0.00    +0.022 C 
ENDBRANCH  26  28
ENDBRANCH  22  24
ENDBRANCH  18  19
ENDBRANCH   9  18
TORSDOF 5
