REMARK  Name = ZINC63139158
REMARK  13 active torsions:
REMARK  status: ('A' for Active; 'I' for Inactive)
REMARK    1  A    between atoms: C_1  and  C_2
REMARK    2  A    between atoms: C_2  and  C_3
REMARK    3  A    between atoms: C_3  and  C_4
REMARK    4  A    between atoms: C_4  and  C_5
REMARK    5  A    between atoms: C_5  and  C_6
REMARK    6  A    between atoms: C_6  and  N_7
REMARK    7  A    between atoms: C_27  and  C_29
REMARK    8  A    between atoms: C_31  and  O_39
REMARK    9  A    between atoms: C_32  and  O_37
REMARK   10  A    between atoms: C_33  and  O_35
REMARK   11  A    between atoms: O_35  and  C_36
REMARK   12  A    between atoms: O_37  and  C_38
REMARK   13  A    between atoms: O_39  and  C_40
REMARK                            x       y       z     vdW  Elec       q    Type
REMARK                         _______ _______ _______ _____ _____    ______ ____
ROOT
ATOM      1  N   UNL     1       2.232  -4.563   3.651  0.00  0.00    -0.291 N 
ATOM      2  C   UNL     1       3.688  -4.795   3.642  0.00  0.00    +0.203 C 
ATOM      3  C   UNL     1       3.965  -6.135   4.291  0.00  0.00    +0.234 C 
ATOM      4  O   UNL     1       4.756  -6.920   3.813  0.00  0.00    -0.274 OA
ATOM      5  N   UNL     1       3.279  -6.419   5.447  0.00  0.00    -0.279 N 
ATOM      6  C   UNL     1       2.431  -5.355   5.943  0.00  0.00    +0.167 C 
ATOM      7  C   UNL     1       1.578  -4.817   4.823  0.00  0.00    +0.237 C 
ATOM      8  O   UNL     1       0.387  -4.625   4.953  0.00  0.00    -0.274 OA
ATOM      9  C   UNL     1       1.639  -5.601   7.201  0.00  0.00    +0.065 C 
ATOM     10  C   UNL     1       1.727  -7.053   7.585  0.00  0.00    -0.034 C 
ATOM     11  C   UNL     1       0.825  -7.906   8.049  0.00  0.00    -0.001 A 
ATOM     12  C   UNL     1      -0.594  -7.736   8.403  0.00  0.00    +0.010 A 
ATOM     13  C   UNL     1      -1.238  -8.846   8.850  0.00  0.00    +0.001 A 
ATOM     14  C   UNL     1      -0.620 -10.094   8.980  0.00  0.00    +0.002 A 
ATOM     15  C   UNL     1       0.680 -10.340   8.681  0.00  0.00    +0.026 A 
ATOM     16  C   UNL     1       1.462  -9.249   8.203  0.00  0.00    +0.043 A 
ATOM     17  N   UNL     1       2.714  -9.200   7.858  0.00  0.00    -0.375 N 
ATOM     18  C   UNL     1       3.041  -7.823   7.467  0.00  0.00    +0.131 C 
ATOM     19  C   UNL     1       3.444  -7.754   6.002  0.00  0.00    +0.134 C 
ATOM     20  H   UNL     1       3.330  -9.949   7.859  0.00  0.00    +0.160 HD
ENDROOT
BRANCH  19  21
ATOM     21  C   UNL     1       4.881  -8.179   5.839  0.00  0.00    -0.018 A 
ATOM     22  C   UNL     1       5.898  -7.268   6.052  0.00  0.00    +0.055 A 
ATOM     23  C   UNL     1       7.221  -7.655   5.902  0.00  0.00    +0.165 A 
ATOM     24  C   UNL     1       7.524  -8.962   5.539  0.00  0.00    +0.204 A 
ATOM     25  C   UNL     1       6.498  -9.875   5.327  0.00  0.00    +0.165 A 
ATOM     26  C   UNL     1       5.178  -9.482   5.483  0.00  0.00    +0.055 A 
BRANCH  25  27
ATOM     27  O   UNL     1       6.790 -11.155   4.971  0.00  0.00    -0.491 OA
ATOM     28  C   UNL     1       5.685 -12.040   4.769  0.00  0.00    +0.277 C 
ENDBRANCH  25  27
BRANCH  24  29
ATOM     29  O   UNL     1       8.821  -9.345   5.391  0.00  0.00    -0.488 OA
ATOM     30  C   UNL     1       9.481  -9.860   6.549  0.00  0.00    +0.277 C 
ENDBRANCH  24  29
BRANCH  23  31
ATOM     31  O   UNL     1       8.221  -6.757   6.111  0.00  0.00    -0.491 OA
ATOM     32  C   UNL     1       7.836  -5.432   6.482  0.00  0.00    +0.277 C 
ENDBRANCH  23  31
ENDBRANCH  19  21
BRANCH   1  33
ATOM     33  C   UNL     1       1.524  -4.077   2.464  0.00  0.00    +0.108 C 
BRANCH  33  34
ATOM     34  C   UNL     1       1.503  -2.548   2.473  0.00  0.00    +0.019 C 
BRANCH  34  35
ATOM     35  C   UNL     1       0.763  -2.041   1.233  0.00  0.00    +0.002 C 
BRANCH  35  36
ATOM     36  C   UNL     1       0.742  -0.511   1.242  0.00  0.00    -0.000 C 
BRANCH  36  38
ATOM     37  C   UNL     1      -0.019   1.526   0.010  0.00  0.00    +0.004 C 
ATOM     38  C   UNL     1       0.002  -0.004   0.002  0.00  0.00    -0.003 C 
ENDBRANCH  36  38
ENDBRANCH  35  36
ENDBRANCH  34  35
ENDBRANCH  33  34
ENDBRANCH   1  33
TORSDOF 9
