REMARK  Name = ZINC64697157
REMARK  11 active torsions:
REMARK  status: ('A' for Active; 'I' for Inactive)
REMARK    1  A    between atoms: C_1  and  C_2
REMARK    2  A    between atoms: C_2  and  C_4
REMARK    3  A    between atoms: C_2  and  N_17
REMARK    4  A    between atoms: N_17  and  C_18
REMARK    5  A    between atoms: C_18  and  C_19
REMARK    6  A    between atoms: C_19  and  C_21
REMARK    7  A    between atoms: C_19  and  C_31
REMARK    8  A    between atoms: C_25  and  O_29
REMARK    9  A    between atoms: C_26  and  O_27
REMARK   10  A    between atoms: O_27  and  C_28
REMARK   11  A    between atoms: O_29  and  C_30
REMARK                            x       y       z     vdW  Elec       q    Type
REMARK                         _______ _______ _______ _____ _____    ______ ____
ROOT
ATOM      1  C   UNL     1       3.055  -0.605   2.109  0.00  0.00    +0.034 C 
ENDROOT
BRANCH   1   2
ATOM      2  C   UNL     1       3.065  -2.112   2.109  0.00  0.00    -0.036 C 
ATOM      3  C   UNL     1       2.617  -2.929   3.090  0.00  0.00    -0.001 A 
ATOM      4  C   UNL     1       2.011  -2.668   4.401  0.00  0.00    +0.010 A 
ATOM      5  C   UNL     1       1.658  -3.715   5.180  0.00  0.00    +0.001 A 
ATOM      6  C   UNL     1       1.857  -5.040   4.769  0.00  0.00    +0.002 A 
ATOM      7  C   UNL     1       2.408  -5.359   3.578  0.00  0.00    +0.026 A 
ATOM      8  C   UNL     1       2.816  -4.337   2.678  0.00  0.00    +0.043 A 
ATOM      9  N   UNL     1       3.365  -4.389   1.489  0.00  0.00    -0.380 N 
ATOM     10  C   UNL     1       3.572  -3.018   1.009  0.00  0.00    +0.145 C 
ATOM     11  H   UNL     1       3.594  -5.198   1.006  0.00  0.00    +0.160 HD
ENDBRANCH   1   2
BRANCH   1  12
ATOM     12  C   UNL     1       4.465  -0.093   1.973  0.00  0.00    +0.003 A 
ATOM     13  C   UNL     1       5.214  -0.417   0.857  0.00  0.00    +0.008 A 
ATOM     14  C   UNL     1       6.508   0.051   0.729  0.00  0.00    +0.004 A 
ATOM     15  C   UNL     1       7.061   0.844   1.717  0.00  0.00    +0.049 A 
ATOM     16  C   UNL     1       6.316   1.173   2.838  0.00  0.00    +0.162 A 
ATOM     17  C   UNL     1       5.010   0.707   2.964  0.00  0.00    +0.165 A 
BRANCH  17  18
ATOM     18  O   UNL     1       4.274   1.031   4.060  0.00  0.00    -0.491 OA
ATOM     19  C   UNL     1       4.356   0.149   5.181  0.00  0.00    +0.277 C 
ENDBRANCH  17  18
BRANCH  16  20
ATOM     20  O   UNL     1       6.857   1.954   3.811  0.00  0.00    -0.491 OA
ATOM     21  C   UNL     1       8.200   2.400   3.612  0.00  0.00    +0.277 C 
ENDBRANCH  16  20
ENDBRANCH   1  12
BRANCH   1  22
ATOM     22  C   UNL     1       2.214  -0.101   0.934  0.00  0.00    -0.069 C 
BRANCH  22  23
ATOM     23  N   UNL     1       0.813  -0.499   1.128  0.00  0.00    +0.387 N 
ATOM     24  H   UNL     1       0.466  -0.099   1.987  0.00  0.00    -0.085 HD
ATOM     25  H   UNL     1       0.753  -1.505   1.177  0.00  0.00    -0.085 HD
BRANCH  23  27
ATOM     26  C   UNL     1      -0.005   1.516   0.001  0.00  0.00    -0.004 C 
ATOM     27  C   UNL     1       0.006  -0.014   0.001  0.00  0.00    +0.013 C 
BRANCH  27  28
ATOM     28  C   UNL     1      -1.405  -0.526   0.137  0.00  0.00    +0.206 C 
ATOM     29  O   UNL     1      -1.842  -0.818   1.230  0.00  0.00    -0.277 OA
ATOM     30  N   UNL     1      -2.182  -0.659  -0.957  0.00  0.00    -0.262 N 
ATOM     31  C   UNL     1      -1.645  -0.413  -2.304  0.00  0.00    +0.209 C 
ATOM     32  C   UNL     1      -2.664   0.356  -3.105  0.00  0.00    +0.235 C 
ATOM     33  O   UNL     1      -2.294   1.103  -3.987  0.00  0.00    -0.274 OA
ATOM     34  N   UNL     1      -3.981   0.224  -2.855  0.00  0.00    -0.283 N 
ATOM     35  C   UNL     1      -4.433  -0.592  -1.813  0.00  0.00    +0.055 A 
ATOM     36  C   UNL     1      -3.527  -1.044  -0.847  0.00  0.00    +0.058 A 
ATOM     37  C   UNL     1      -3.957  -1.850   0.191  0.00  0.00    +0.025 A 
ATOM     38  C   UNL     1      -5.290  -2.216   0.270  0.00  0.00    +0.002 A 
ATOM     39  C   UNL     1      -6.188  -1.778  -0.686  0.00  0.00    +0.002 A 
ATOM     40  C   UNL     1      -5.766  -0.960  -1.727  0.00  0.00    +0.025 A 
ATOM     41  H   UNL     1      -4.623   0.700  -3.405  0.00  0.00    +0.155 HD
ENDBRANCH  27  28
ENDBRANCH  23  27
ENDBRANCH  22  23
ENDBRANCH   1  22
TORSDOF 8
