REMARK  Name = ZINC34747895
REMARK  7 active torsions:
REMARK  status: ('A' for Active; 'I' for Inactive)
REMARK    1  A    between atoms: C_1  and  C_2
REMARK    2  A    between atoms: C_5  and  C_9
REMARK    3  A    between atoms: C_6  and  C_8
REMARK    4  A    between atoms: C_9  and  N_10
REMARK    5  A    between atoms: N_28  and  C_29
REMARK    6  A    between atoms: C_29  and  C_30
REMARK    7  A    between atoms: C_30  and  C_31
REMARK                            x       y       z     vdW  Elec       q    Type
REMARK                         _______ _______ _______ _____ _____    ______ ____
ROOT
ATOM      1  N   UNL     1      -2.281  -3.906   0.415  0.00  0.00    +0.384 N 
ATOM      2  C   UNL     1      -3.667  -4.117   0.852  0.00  0.00    -0.059 C 
ATOM      3  C   UNL     1      -3.939  -5.620   0.978  0.00  0.00    +0.089 C 
ATOM      4  N   UNL     1      -3.600  -6.264  -0.300  0.00  0.00    -0.304 N 
ATOM      5  C   UNL     1      -2.286  -5.976  -0.895  0.00  0.00    +0.089 C 
ATOM      6  C   UNL     1      -2.092  -4.456  -0.933  0.00  0.00    -0.059 C 
ATOM      7  C   UNL     1      -4.486  -7.110  -0.920  0.00  0.00    +0.202 A 
ATOM      8  N   UNL     1      -5.399  -6.614  -1.729  0.00  0.00    -0.208 NA
ATOM      9  C   UNL     1      -6.268  -7.411  -2.342  0.00  0.00    +0.117 A 
ATOM     10  C   UNL     1      -6.258  -8.801  -2.163  0.00  0.00    +0.076 A 
ATOM     11  C   UNL     1      -7.280  -9.556  -2.907  0.00  0.00    -0.023 A 
ATOM     12  C   UNL     1      -8.116  -8.845  -3.680  0.00  0.00    -0.004 A 
ATOM     13  S   UNL     1      -7.610  -7.153  -3.472  0.00  0.00    -0.073 S 
ATOM     14  C   UNL     1      -9.112  -9.719  -4.395  0.00  0.00    +0.043 C 
ATOM     15  C   UNL     1      -8.517 -11.142  -4.299  0.00  0.00    +0.010 C 
ATOM     16  C   UNL     1      -7.655 -11.036  -3.026  0.00  0.00    +0.037 C 
ATOM     17  C   UNL     1      -5.255  -9.313  -1.281  0.00  0.00    +0.264 A 
ATOM     18  O   UNL     1      -5.171 -10.511  -1.067  0.00  0.00    -0.267 OA
ATOM     19  N   UNL     1      -4.402  -8.452  -0.695  0.00  0.00    -0.280 N 
ATOM     20  H   UNL     1      -1.655  -4.369   1.057  0.00  0.00    -0.081 HD
ENDROOT
BRANCH   1  21
ATOM     21  C   UNL     1      -1.988  -2.467   0.400  0.00  0.00    -0.043 C 
BRANCH  21  26
ATOM     22  C   UNL     1      -2.272  -0.389   5.785  0.00  0.00    +0.044 C 
ATOM     23  C   UNL     1      -2.198  -0.931   4.381  0.00  0.00    -0.050 A 
ATOM     24  C   UNL     1      -3.263  -0.757   3.516  0.00  0.00    +0.003 A 
ATOM     25  C   UNL     1      -3.195  -1.254   2.228  0.00  0.00    +0.002 A 
ATOM     26  C   UNL     1      -2.062  -1.924   1.804  0.00  0.00    -0.061 A 
ATOM     27  C   UNL     1      -0.998  -2.097   2.669  0.00  0.00    -0.049 A 
ATOM     28  C   UNL     1      -1.064  -1.597   3.956  0.00  0.00    +0.007 A 
ATOM     29  C   UNL     1       0.237  -2.828   2.207  0.00  0.00    +0.044 C 
ENDBRANCH  21  26
ENDBRANCH   1  21
BRANCH  19  30
ATOM     30  C   UNL     1      -3.368  -8.966   0.207  0.00  0.00    +0.133 C 
BRANCH  30  31
ATOM     31  C   UNL     1      -3.955  -9.145   1.608  0.00  0.00    +0.057 C 
BRANCH  31  32
ATOM     32  C   UNL     1      -2.892  -9.674   2.535  0.00  0.00    -0.046 A 
ATOM     33  C   UNL     1      -2.717 -11.037   2.681  0.00  0.00    +0.004 A 
ATOM     34  C   UNL     1      -1.742 -11.522   3.531  0.00  0.00    +0.000 A 
ATOM     35  C   UNL     1      -0.940 -10.644   4.236  0.00  0.00    +0.000 A 
ATOM     36  C   UNL     1      -1.114  -9.280   4.090  0.00  0.00    +0.000 A 
ATOM     37  C   UNL     1      -2.087  -8.795   3.236  0.00  0.00    +0.004 A 
ENDBRANCH  31  32
ENDBRANCH  30  31
ENDBRANCH  19  30
TORSDOF 5
