REMARK  Name = ZINC06720058
REMARK  6 active torsions:
REMARK  status: ('A' for Active; 'I' for Inactive)
REMARK    1  A    between atoms: C_1  and  C_2
REMARK    2  A    between atoms: C_2  and  C_3
REMARK    3  A    between atoms: C_3  and  C_4
REMARK    4  A    between atoms: C_11  and  N_28
REMARK    5  A    between atoms: C_12  and  C_26
REMARK    6  A    between atoms: C_13  and  C_15
REMARK                            x       y       z     vdW  Elec       q    Type
REMARK                         _______ _______ _______ _____ _____    ______ ____
ROOT
ATOM      1  C   UNL     1       0.762  -2.018   1.233  0.00  0.00    +0.044 A 
ATOM      2  C   UNL     1       1.657  -2.794   0.604  0.00  0.00    +0.049 A 
ATOM      3  C   UNL     1       1.319  -4.143   0.851  0.00  0.00    +0.245 A 
ATOM      4  N   UNL     1       0.256  -4.160   1.602  0.00  0.00    -0.135 NA
ATOM      5  N   UNL     1      -0.115  -2.832   1.864  0.00  0.00    -0.278 N 
ATOM      6  H   UNL     1      -0.870  -2.547   2.402  0.00  0.00    +0.189 HD
ATOM      7  O   UNL     1       2.048  -5.173   0.345  0.00  0.00    -0.421 OA
ATOM      8  C   UNL     1       3.257  -4.882  -0.175  0.00  0.00    +0.201 C 
ATOM      9  C   UNL     1       3.685  -3.636  -0.464  0.00  0.00    +0.098 C 
ATOM     10  C   UNL     1       2.844  -2.404  -0.240  0.00  0.00    +0.104 C 
ENDROOT
BRANCH  10  11
ATOM     11  C   UNL     1       2.371  -1.863  -1.564  0.00  0.00    +0.003 A 
ATOM     12  C   UNL     1       1.620  -2.645  -2.393  0.00  0.00    +0.017 A 
ATOM     13  C   UNL     1       1.199  -2.100  -3.621  0.00  0.00    +0.001 A 
ATOM     14  C   UNL     1       0.423  -2.845  -4.524  0.00  0.00    +0.010 A 
ATOM     15  C   UNL     1       0.035  -2.282  -5.701  0.00  0.00    +0.001 A 
ATOM     16  C   UNL     1       0.398  -0.976  -6.023  0.00  0.00    +0.002 A 
ATOM     17  C   UNL     1       1.149  -0.226  -5.172  0.00  0.00    +0.028 A 
ATOM     18  C   UNL     1       1.569  -0.771  -3.946  0.00  0.00    +0.073 A 
ATOM     19  N   UNL     1       2.306  -0.058  -3.090  0.00  0.00    -0.235 NA
ATOM     20  C   UNL     1       2.696  -0.560  -1.942  0.00  0.00    +0.134 A 
ATOM     21 CL   UNL     1       3.646   0.419  -0.869  0.00  0.00    -0.062 Cl
ENDBRANCH  10  11
BRANCH   8  22
ATOM     22  N   UNL     1       4.112  -5.926  -0.427  0.00  0.00    -0.328 N 
ATOM     23  H   UNL     1       3.838  -6.835  -0.231  0.00  0.00    +0.145 HD
ATOM     24  H   UNL     1       4.990  -5.754  -0.801  0.00  0.00    +0.145 HD
ENDBRANCH   8  22
BRANCH   9  25
ATOM     25  C   UNL     1       5.000  -3.475  -1.010  0.00  0.00    +0.101 C 
ATOM     26  N   UNL     1       6.042  -3.347  -1.442  0.00  0.00    -0.191 NA
ENDBRANCH   9  25
BRANCH   1  27
ATOM     27  C   UNL     1       0.742  -0.511   1.242  0.00  0.00    +0.055 C 
BRANCH  27  29
ATOM     28  C   UNL     1      -0.019   1.526   0.010  0.00  0.00    +0.004 C 
ATOM     29  C   UNL     1       0.002  -0.004   0.002  0.00  0.00    +0.003 C 
ENDBRANCH  27  29
ENDBRANCH   1  27
TORSDOF 5
