REMARK  Name = ZINC59171031
REMARK  8 active torsions:
REMARK  status: ('A' for Active; 'I' for Inactive)
REMARK    1  A    between atoms: C_1  and  C_2
REMARK    2  A    between atoms: C_2  and  C_3
REMARK    3  A    between atoms: C_6  and  N_9
REMARK    4  A    between atoms: C_11  and  C_23
REMARK    5  A    between atoms: C_17  and  O_20
REMARK    6  A    between atoms: O_20  and  C_21
REMARK    7  A    between atoms: C_21  and  C_22
REMARK    8  A    between atoms: C_23  and  N_25
REMARK                            x       y       z     vdW  Elec       q    Type
REMARK                         _______ _______ _______ _____ _____    ______ ____
ROOT
ATOM      1  N   UNL     1      -5.498  -1.835   0.442  0.00  0.00    -0.325 N 
ATOM      2  C   UNL     1      -6.255  -1.370  -0.528  0.00  0.00    +0.209 A 
ATOM      3  C   UNL     1      -7.559  -1.990  -0.839  0.00  0.00    +0.064 A 
ATOM      4  C   UNL     1      -8.522  -1.178  -1.425  0.00  0.00    +0.027 A 
ATOM      5  C   UNL     1      -8.159   0.218  -1.682  0.00  0.00    +0.022 A 
ATOM      6  C   UNL     1      -9.137   1.163  -2.018  0.00  0.00    +0.012 A 
ATOM      7  C   UNL     1      -8.778   2.461  -2.248  0.00  0.00    +0.004 A 
ATOM      8  C   UNL     1      -7.451   2.854  -2.152  0.00  0.00    +0.049 A 
ATOM      9  C   UNL     1      -6.467   1.937  -1.824  0.00  0.00    +0.163 A 
ATOM     10  C   UNL     1      -6.811   0.609  -1.588  0.00  0.00    +0.179 A 
ATOM     11  O   UNL     1      -5.865  -0.303  -1.270  0.00  0.00    -0.435 OA
ATOM     12  H   UNL     1      -5.832  -2.534   1.026  0.00  0.00    +0.169 HD
ENDROOT
BRANCH   1  16
ATOM     13  C   UNL     1      -1.689  -0.319   1.001  0.00  0.00    -0.047 A 
ATOM     14  C   UNL     1      -2.522  -0.509   2.090  0.00  0.00    +0.005 A 
ATOM     15  C   UNL     1      -3.793  -1.014   1.911  0.00  0.00    +0.026 A 
ATOM     16  C   UNL     1      -4.239  -1.334   0.627  0.00  0.00    +0.042 A 
ATOM     17  C   UNL     1      -3.393  -1.140  -0.468  0.00  0.00    +0.026 A 
ATOM     18  C   UNL     1      -2.127  -0.629  -0.275  0.00  0.00    +0.005 A 
BRANCH  13  20
ATOM     19  C   UNL     1      -0.344   1.760   1.124  0.00  0.00    +0.009 C 
ATOM     20  C   UNL     1      -0.302   0.233   1.205  0.00  0.00    +0.032 C 
ENDBRANCH  13  20
ENDBRANCH   1  16
BRANCH   3  21
ATOM     21  C   UNL     1      -7.827  -3.405  -0.542  0.00  0.00    +0.082 C 
ATOM     22  S   UNL     1      -6.568  -4.411   0.037  0.00  0.00    -0.035 S 
BRANCH  21  23
ATOM     23  N   UNL     1      -9.063  -3.910  -0.725  0.00  0.00    -0.352 N 
ATOM     24  H   UNL     1      -9.776  -3.340  -1.052  0.00  0.00    +0.143 HD
ATOM     25  H   UNL     1      -9.240  -4.843  -0.528  0.00  0.00    +0.143 HD
ENDBRANCH  21  23
ENDBRANCH   3  21
BRANCH   9  26
ATOM     26  O   UNL     1      -5.169   2.332  -1.734  0.00  0.00    -0.489 OA
BRANCH  26  27
ATOM     27  C   UNL     1      -4.890   3.710  -1.990  0.00  0.00    +0.226 C 
ATOM     28  C   UNL     1      -3.389   3.963  -1.841  0.00  0.00    +0.048 C 
ENDBRANCH  26  27
ENDBRANCH   9  26
TORSDOF 6
