REMARK  Name = ZINC36484987
REMARK  11 active torsions:
REMARK  status: ('A' for Active; 'I' for Inactive)
REMARK    1  A    between atoms: C_1  and  C_2
REMARK    2  A    between atoms: C_2  and  C_3
REMARK    3  A    between atoms: C_3  and  C_4
REMARK    4  A    between atoms: C_4  and  N_5
REMARK    5  A    between atoms: C_6  and  C_8
REMARK    6  A    between atoms: C_8  and  C_10
REMARK    7  A    between atoms: C_8  and  N_17
REMARK    8  A    between atoms: N_17  and  C_18
REMARK    9  A    between atoms: C_25  and  C_27
REMARK   10  A    between atoms: C_28  and  O_34
REMARK   11  A    between atoms: C_32  and  O_33
REMARK                            x       y       z     vdW  Elec       q    Type
REMARK                         _______ _______ _______ _____ _____    ______ ____
ROOT
ATOM      1  N   UNL     1      -5.221  -5.851  -0.226  0.00  0.00    -0.251 N 
ATOM      2  C   UNL     1      -4.801  -6.255  -1.441  0.00  0.00    +0.259 C 
ATOM      3  O   UNL     1      -3.924  -5.641  -2.017  0.00  0.00    -0.269 OA
ENDROOT
BRANCH   1   4
ATOM      4  C   UNL     1      -6.292  -6.501   0.396  0.00  0.00    +0.039 A 
ATOM      5  C   UNL     1      -7.569  -5.961   0.326  0.00  0.00    +0.023 A 
ATOM      6  C   UNL     1      -8.625  -6.605   0.941  0.00  0.00    +0.003 A 
ATOM      7  C   UNL     1      -8.412  -7.787   1.625  0.00  0.00    +0.020 A 
ATOM      8  C   UNL     1      -7.140  -8.329   1.698  0.00  0.00    +0.043 A 
ATOM      9  C   UNL     1      -6.081  -7.691   1.080  0.00  0.00    +0.043 A 
ATOM     10 CL   UNL     1      -6.877  -9.813   2.559  0.00  0.00    -0.083 Cl
ENDBRANCH   1   4
BRANCH   2  11
ATOM     11  C   UNL     1      -5.406  -7.440  -2.072  0.00  0.00    +0.120 A 
ATOM     12  C   UNL     1      -6.505  -7.299  -2.932  0.00  0.00    +0.133 A 
ATOM     13  C   UNL     1      -7.065  -8.421  -3.521  0.00  0.00    +0.046 A 
ATOM     14  C   UNL     1      -6.545  -9.675  -3.264  0.00  0.00    +0.007 A 
ATOM     15  C   UNL     1      -5.462  -9.826  -2.418  0.00  0.00    +0.046 A 
ATOM     16  C   UNL     1      -4.883  -8.717  -1.823  0.00  0.00    +0.133 A 
BRANCH  16  17
ATOM     17  O   UNL     1      -3.817  -8.867  -0.997  0.00  0.00    -0.506 OA
ATOM     18  H   UNL     1      -4.053  -8.996  -0.069  0.00  0.00    +0.292 HD
ENDBRANCH  16  17
BRANCH  12  19
ATOM     19  O   UNL     1      -7.017  -6.069  -3.186  0.00  0.00    -0.506 OA
ATOM     20  H   UNL     1      -6.617  -5.625  -3.947  0.00  0.00    +0.292 HD
ENDBRANCH  12  19
ENDBRANCH   2  11
BRANCH   1  21
ATOM     21  C   UNL     1      -4.555  -4.731   0.444  0.00  0.00    +0.197 C 
BRANCH  21  22
ATOM     22  C   UNL     1      -5.289  -4.399   1.717  0.00  0.00    -0.018 A 
ATOM     23  C   UNL     1      -5.434  -5.358   2.702  0.00  0.00    +0.007 A 
ATOM     24  C   UNL     1      -6.108  -5.054   3.870  0.00  0.00    +0.020 A 
ATOM     25  C   UNL     1      -6.637  -3.789   4.053  0.00  0.00    +0.041 A 
ATOM     26  C   UNL     1      -6.492  -2.830   3.067  0.00  0.00    +0.020 A 
ATOM     27  C   UNL     1      -5.813  -3.133   1.902  0.00  0.00    +0.007 A 
ATOM     28 CL   UNL     1      -7.484  -3.406   5.520  0.00  0.00    -0.084 Cl
ENDBRANCH  21  22
BRANCH  21  30
ATOM     29  N   UNL     1      -2.325  -4.234   1.392  0.00  0.00    -0.313 N 
ATOM     30  C   UNL     1      -3.134  -5.114   0.769  0.00  0.00    +0.238 C 
ATOM     31  O   UNL     1      -2.718  -6.213   0.471  0.00  0.00    -0.273 OA
ATOM     32  H   UNL     1      -2.657  -3.354   1.631  0.00  0.00    +0.149 HD
BRANCH  29  33
ATOM     33  C   UNL     1      -0.943  -4.606   1.708  0.00  0.00    +0.104 C 
BRANCH  33  34
ATOM     34  C   UNL     1      -0.248  -3.436   2.408  0.00  0.00    +0.018 C 
BRANCH  34  36
ATOM     35  C   UNL     1       1.890  -2.655   3.437  0.00  0.00    +0.004 C 
ATOM     36  C   UNL     1       1.195  -3.824   2.738  0.00  0.00    -0.002 C 
ENDBRANCH  34  36
ENDBRANCH  33  34
ENDBRANCH  29  33
ENDBRANCH  21  30
ENDBRANCH   1  21
TORSDOF 10
