REMARK  Name = ZINC38990208
REMARK  7 active torsions:
REMARK  status: ('A' for Active; 'I' for Inactive)
REMARK    1  A    between atoms: C_1  and  C_2
REMARK    2  A    between atoms: C_4  and  C_8
REMARK    3  A    between atoms: C_12  and  S_16
REMARK    4  A    between atoms: N_14  and  N_15
REMARK    5  A    between atoms: S_16  and  C_17
REMARK    6  A    between atoms: C_17  and  C_18
REMARK    7  A    between atoms: N_20  and  C_21
REMARK                            x       y       z     vdW  Elec       q    Type
REMARK                         _______ _______ _______ _____ _____    ______ ____
ROOT
ATOM      1  C   UNL     1      -0.962  -2.966   1.222  0.00  0.00    +0.185 C 
ATOM      2  N   UNL     1      -0.396  -2.327   2.439  0.00  0.00    -0.234 NA
ATOM      3  N   UNL     1      -0.369  -3.400   3.437  0.00  0.00    -0.228 NA
ATOM      4  C   UNL     1      -0.345  -4.676   2.695  0.00  0.00    +0.214 C 
ATOM      5  N   UNL     1      -0.368  -4.329   1.253  0.00  0.00    -0.197 NA
ATOM      6  H   UNL     1       0.533  -1.974   2.263  0.00  0.00    +0.143 HD
ATOM      7  H   UNL     1       0.438  -3.315   4.037  0.00  0.00    +0.143 HD
ENDROOT
BRANCH   1  11
ATOM      8  C   UNL     1      -0.017   1.480  -0.044  0.00  0.00    +0.067 C 
ATOM      9  C   UNL     1       0.005  -0.027  -0.042  0.00  0.00    +0.058 C 
ATOM     10  C   UNL     1      -1.083  -0.801  -0.038  0.00  0.00    +0.029 C 
ATOM     11  C   UNL     1      -0.526  -2.214  -0.037  0.00  0.00    +0.186 C 
ATOM     12  N   UNL     1       0.930  -1.996  -0.041  0.00  0.00    -0.177 NA
ATOM     13  N   UNL     1       1.128  -0.778  -0.049  0.00  0.00    -0.159 NA
ENDBRANCH   1  11
BRANCH   5  14
ATOM     14  N   UNL     1      -1.182  -5.269   0.499  0.00  0.00    -0.264 NA
ATOM     15  H   UNL     1      -0.780  -6.194   0.520  0.00  0.00    +0.137 HD
ATOM     16  H   UNL     1      -2.132  -5.280   0.841  0.00  0.00    +0.137 HD
ENDBRANCH   5  14
BRANCH   4  17
ATOM     17  S   UNL     1       1.165  -5.598   3.092  0.00  0.00    -0.115 S 
BRANCH  17  18
ATOM     18  C   UNL     1       2.505  -4.472   2.616  0.00  0.00    +0.168 C 
BRANCH  18  19
ATOM     19  C   UNL     1       3.834  -5.124   2.898  0.00  0.00    +0.227 C 
ATOM     20  O   UNL     1       3.873  -6.240   3.373  0.00  0.00    -0.275 OA
ATOM     21  N   UNL     1       4.979  -4.469   2.622  0.00  0.00    -0.285 N 
ATOM     22  H   UNL     1       4.949  -3.606   2.180  0.00  0.00    +0.155 HD
BRANCH  21  23
ATOM     23  C   UNL     1       6.211  -5.034   2.973  0.00  0.00    +0.035 A 
ATOM     24  C   UNL     1       7.255  -4.219   3.392  0.00  0.00    +0.025 A 
ATOM     25  C   UNL     1       8.469  -4.778   3.738  0.00  0.00    +0.023 A 
ATOM     26  C   UNL     1       8.647  -6.149   3.667  0.00  0.00    +0.059 A 
ATOM     27  C   UNL     1       7.608  -6.963   3.248  0.00  0.00    +0.061 A 
ATOM     28  C   UNL     1       6.389  -6.409   2.906  0.00  0.00    +0.044 A 
ATOM     29 CL   UNL     1       7.835  -8.682   3.159  0.00  0.00    -0.082 Cl
ATOM     30 CL   UNL     1      10.175  -6.848   4.102  0.00  0.00    -0.082 Cl
ENDBRANCH  21  23
ENDBRANCH  18  19
ENDBRANCH  17  18
ENDBRANCH   4  17
TORSDOF 6
