REMARK  Name = ZINC02247525
REMARK  2 active torsions:
REMARK  status: ('A' for Active; 'I' for Inactive)
REMARK    1  A    between atoms: C_5  and  C_7
REMARK    2  A    between atoms: C_25  and  C_27
REMARK                            x       y       z     vdW  Elec       q    Type
REMARK                         _______ _______ _______ _____ _____    ______ ____
ROOT
ATOM      1  C   UNL     1       1.228  -2.186  -0.022  0.00  0.00    +0.237 C 
ATOM      2  C   UNL     1       1.231  -2.674  -1.441  0.00  0.00    +0.028 C 
ATOM      3  C   UNL     1       0.072  -2.911  -2.089  0.00  0.00    +0.083 C 
ATOM      4  C   UNL     1      -1.190  -2.681  -1.340  0.00  0.00    +0.044 A 
ATOM      5  C   UNL     1      -2.411  -2.578  -1.992  0.00  0.00    +0.033 A 
ATOM      6  C   UNL     1      -3.562  -2.361  -1.255  0.00  0.00    +0.042 A 
ATOM      7  C   UNL     1      -3.495  -2.248   0.124  0.00  0.00    +0.023 A 
ATOM      8  C   UNL     1      -2.282  -2.350   0.779  0.00  0.00    +0.048 A 
ATOM      9  C   UNL     1      -1.123  -2.568   0.054  0.00  0.00    +0.131 A 
ATOM     10  O   UNL     1       0.078  -2.678   0.669  0.00  0.00    -0.479 OA
ATOM     11 CL   UNL     1      -5.094  -2.231  -2.061  0.00  0.00    -0.084 Cl
ATOM     12  N   UNL     1       0.053  -3.345  -3.373  0.00  0.00    -0.213 NA
ATOM     13  C   UNL     1       1.127  -3.579  -4.091  0.00  0.00    +0.237 C 
ATOM     14  N   UNL     1       1.286  -4.010  -5.362  0.00  0.00    -0.205 NA
ATOM     15  C   UNL     1       2.554  -4.101  -5.655  0.00  0.00    +0.203 C 
ATOM     16  N   UNL     1       3.297  -3.728  -4.577  0.00  0.00    -0.251 N 
ATOM     17  N   UNL     1       2.391  -3.390  -3.569  0.00  0.00    -0.208 N 
ATOM     18  C   UNL     1       2.525  -2.915  -2.187  0.00  0.00    +0.166 C 
ATOM     19  H   UNL     1       4.265  -3.703  -4.519  0.00  0.00    +0.171 HD
ENDROOT
BRANCH   1  24
ATOM     20  C   UNL     1      -0.008   1.377   0.140  0.00  0.00    +0.001 A 
ATOM     21  C   UNL     1       1.171   2.087   0.002  0.00  0.00    +0.003 A 
ATOM     22  C   UNL     1       2.369   1.414  -0.143  0.00  0.00    +0.039 A 
ATOM     23  C   UNL     1       2.389   0.030  -0.151  0.00  0.00    +0.130 A 
ATOM     24  C   UNL     1       1.208  -0.679  -0.013  0.00  0.00    +0.032 A 
ATOM     25  C   UNL     1       0.010  -0.005   0.132  0.00  0.00    +0.010 A 
ATOM     26  F   UNL     1       3.560  -0.629  -0.293  0.00  0.00    -0.205 F 
ENDBRANCH   1  24
BRANCH  18  27
ATOM     27  C   UNL     1       3.329  -3.931  -1.417  0.00  0.00    +0.016 A 
ATOM     28  C   UNL     1       4.365  -3.731  -0.565  0.00  0.00    +0.013 A 
ATOM     29  C   UNL     1       4.958  -4.825   0.036  0.00  0.00    +0.008 A 
ATOM     30  C   UNL     1       4.487  -6.065  -0.243  0.00  0.00    +0.045 A 
ATOM     31  S   UNL     1       3.160  -5.707  -1.382  0.00  0.00    -0.099 S 
ENDBRANCH  18  27
TORSDOF 2
