REMARK  Name = ZINC04277868
REMARK  7 active torsions:
REMARK  status: ('A' for Active; 'I' for Inactive)
REMARK    1  A    between atoms: C_1  and  C_2
REMARK    2  A    between atoms: C_8  and  C_11
REMARK    3  A    between atoms: N_13  and  C_14
REMARK    4  A    between atoms: C_14  and  C_16
REMARK    5  A    between atoms: C_14  and  C_23
REMARK    6  A    between atoms: C_16  and  C_17
REMARK    7  A    between atoms: C_26  and  C_28
REMARK                            x       y       z     vdW  Elec       q    Type
REMARK                         _______ _______ _______ _____ _____    ______ ____
ROOT
ATOM      1  C   UNL     1      -3.609   4.047   6.797  0.00  0.00    +0.109 C 
ATOM      2  C   UNL     1      -2.776   3.256   5.822  0.00  0.00    +0.213 C 
ATOM      3  O   UNL     1      -1.608   3.036   6.062  0.00  0.00    -0.276 OA
ATOM      4  N   UNL     1      -3.330   2.793   4.684  0.00  0.00    -0.298 N 
ATOM      5  C   UNL     1      -4.768   2.959   4.430  0.00  0.00    +0.127 C 
ATOM      6  C   UNL     1      -4.948   3.675   3.086  0.00  0.00    +0.127 C 
ATOM      7  N   UNL     1      -4.125   2.994   2.076  0.00  0.00    -0.287 N 
ATOM      8  C   UNL     1      -2.687   2.828   2.331  0.00  0.00    +0.179 C 
ATOM      9  C   UNL     1      -2.506   2.112   3.675  0.00  0.00    +0.139 C 
ATOM     10  C   UNL     1      -4.678   2.530   0.939  0.00  0.00    +0.219 C 
ATOM     11  O   UNL     1      -4.007   1.898   0.152  0.00  0.00    -0.275 OA
ENDROOT
BRANCH  10  12
ATOM     12  C   UNL     1      -6.132   2.798   0.644  0.00  0.00    +0.072 C 
ATOM     13  C   UNL     1      -7.006   1.986   1.604  0.00  0.00    -0.007 C 
ATOM     14  C   UNL     1      -8.480   2.213   1.259  0.00  0.00    -0.082 C 
ATOM     15  C   UNL     1      -7.937   2.602  -1.070  0.00  0.00    -0.082 C 
ATOM     16  C   UNL     1      -6.447   2.385  -0.796  0.00  0.00    -0.007 C 
ATOM     17  N   UNL     1      -8.738   1.794  -0.131  0.00  0.00    +0.379 N 
ATOM     18  H   UNL     1      -9.735   1.919  -0.343  0.00  0.00    -0.086 HD
ATOM     19  H   UNL     1      -8.487   0.804  -0.238  0.00  0.00    -0.086 HD
ENDBRANCH  10  12
BRANCH   8  20
ATOM     20  C   UNL     1      -2.071   2.002   1.231  0.00  0.00    +0.236 C 
ATOM     21  O   UNL     1      -2.360   0.830   1.119  0.00  0.00    -0.274 OA
ATOM     22  N   UNL     1      -1.200   2.567   0.371  0.00  0.00    -0.302 N 
ATOM     23  H   UNL     1      -0.969   3.505   0.461  0.00  0.00    +0.150 HD
BRANCH  22  24
ATOM     24  C   UNL     1      -0.601   1.764  -0.698  0.00  0.00    +0.159 C 
BRANCH  24  25
ATOM     25  C   UNL     1       0.612   1.044  -0.167  0.00  0.00    +0.231 C 
ATOM     26  O   UNL     1       0.943   1.188   0.991  0.00  0.00    -0.274 OA
ATOM     27  N   UNL     1       1.328   0.241  -0.978  0.00  0.00    -0.328 N 
ATOM     28  H   UNL     1       1.063   0.126  -1.904  0.00  0.00    +0.145 HD
ATOM     29  H   UNL     1       2.109  -0.223  -0.636  0.00  0.00    +0.145 HD
ENDBRANCH  24  25
BRANCH  24  30
ATOM     30  C   UNL     1      -0.186   2.679  -1.852  0.00  0.00    +0.035 C 
BRANCH  30  31
ATOM     31  C   UNL     1      -1.432   3.314  -2.472  0.00  0.00    -0.009 C 
ATOM     32  C   UNL     1      -2.296   2.225  -3.110  0.00  0.00    +0.003 C 
ATOM     33  C   UNL     1      -3.542   2.860  -3.730  0.00  0.00    +0.000 C 
ATOM     34  C   UNL     1      -3.121   3.869  -4.800  0.00  0.00    +0.000 C 
ATOM     35  C   UNL     1      -2.257   4.959  -4.162  0.00  0.00    +0.000 C 
ATOM     36  C   UNL     1      -1.011   4.324  -3.542  0.00  0.00    +0.003 C 
ENDBRANCH  30  31
ENDBRANCH  24  30
ENDBRANCH  22  24
ENDBRANCH   8  20
TORSDOF 6
