REMARK  Name = ZINC66704340
REMARK  8 active torsions:
REMARK  status: ('A' for Active; 'I' for Inactive)
REMARK    1  A    between atoms: C_1  and  C_2
REMARK    2  A    between atoms: C_2  and  C_3
REMARK    3  A    between atoms: C_3  and  N_4
REMARK    4  A    between atoms: N_4  and  C_5
REMARK    5  A    between atoms: C_5  and  C_6
REMARK    6  A    between atoms: C_11  and  O_12
REMARK    7  A    between atoms: N_15  and  C_16
REMARK    8  A    between atoms: C_16  and  C_17
REMARK                            x       y       z     vdW  Elec       q    Type
REMARK                         _______ _______ _______ _____ _____    ______ ____
ROOT
ATOM      1  N   UNL     1       0.804  -0.970  -1.606  0.00  0.00    -0.281 N 
ATOM      2  C   UNL     1       1.647  -1.818  -0.986  0.00  0.00    +0.303 C 
ATOM      3  O   UNL     1       1.437  -3.016  -1.018  0.00  0.00    -0.253 OA
ATOM      4  N   UNL     1       2.723  -1.340  -0.331  0.00  0.00    -0.295 N 
ATOM      5  H   UNL     1       2.891  -0.385  -0.305  0.00  0.00    +0.151 HD
ENDROOT
BRANCH   1   6
ATOM      6  C   UNL     1       1.057   0.473  -1.568  0.00  0.00    +0.109 C 
BRANCH   6   8
ATOM      7  C   UNL     1       0.627   2.587  -0.307  0.00  0.00    +0.005 C 
ATOM      8  C   UNL     1       0.363   1.080  -0.347  0.00  0.00    +0.016 C 
ENDBRANCH   6   8
ENDBRANCH   1   6
BRANCH   1   9
ATOM      9  C   UNL     1      -0.366  -1.490  -2.319  0.00  0.00    +0.148 C 
BRANCH   9  10
ATOM     10  C   UNL     1       0.003  -1.771  -3.752  0.00  0.00    +0.011 A 
ATOM     11  C   UNL     1      -0.325  -0.864  -4.742  0.00  0.00    +0.009 A 
ATOM     12  C   UNL     1       0.013  -1.122  -6.057  0.00  0.00    +0.001 A 
ATOM     13  C   UNL     1       0.680  -2.288  -6.386  0.00  0.00    +0.004 A 
ATOM     14  C   UNL     1       1.011  -3.198  -5.401  0.00  0.00    +0.046 A 
ATOM     15  C   UNL     1       0.677  -2.939  -4.079  0.00  0.00    +0.122 A 
BRANCH  15  16
ATOM     16  O   UNL     1       1.006  -3.829  -3.107  0.00  0.00    -0.506 OA
ATOM     17  H   UNL     1       0.330  -4.500  -2.943  0.00  0.00    +0.292 HD
ENDBRANCH  15  16
ENDBRANCH   9  10
ENDBRANCH   1   9
BRANCH   4  18
ATOM     18  C   UNL     1       3.640  -2.263   0.343  0.00  0.00    +0.141 C 
BRANCH  18  19
ATOM     19  C   UNL     1       4.751  -1.480   0.995  0.00  0.00    -0.026 A 
ATOM     20  C   UNL     1       5.920  -1.193   0.301  0.00  0.00    +0.023 A 
ATOM     21  C   UNL     1       6.918  -0.474   0.926  0.00  0.00    +0.084 A 
ATOM     22  N   UNL     1       6.775  -0.058   2.170  0.00  0.00    -0.350 N 
ATOM     23  C   UNL     1       5.677  -0.312   2.865  0.00  0.00    +0.099 A 
ATOM     24  C   UNL     1       4.628  -1.027   2.296  0.00  0.00    +0.047 A 
ATOM     25  N   UNL     1       5.569   0.145   4.173  0.00  0.00    -0.317 N 
ATOM     26  C   UNL     1       4.428  -0.267   4.960  0.00  0.00    +0.106 C 
ATOM     27  C   UNL     1       3.268   0.739   4.760  0.00  0.00    +0.019 C 
ATOM     28  C   UNL     1       3.578   2.014   5.425  0.00  0.00    +0.002 C 
ATOM     29  C   UNL     1       4.802   2.733   4.867  0.00  0.00    +0.002 C 
ATOM     30  C   UNL     1       6.045   2.193   5.530  0.00  0.00    +0.019 C 
ATOM     31  C   UNL     1       6.627   1.027   4.704  0.00  0.00    +0.106 C 
ATOM     32  H   UNL     1       7.493   0.445   2.586  0.00  0.00    +0.166 HD
ENDBRANCH  18  19
ENDBRANCH   4  18
TORSDOF 7
