REMARK  Name = ZINC35685488
REMARK  4 active torsions:
REMARK  status: ('A' for Active; 'I' for Inactive)
REMARK    1  A    between atoms: C_7  and  N_12
REMARK    2  A    between atoms: C_10  and  O_11
REMARK    3  A    between atoms: N_12  and  S_13
REMARK    4  A    between atoms: S_13  and  C_16
REMARK                            x       y       z     vdW  Elec       q    Type
REMARK                         _______ _______ _______ _____ _____    ______ ____
ROOT
ATOM      1  N   UNL     1      -0.423  -2.910   0.038  0.00  0.00    -0.216 N 
ATOM      2  H   UNL     1      -1.265  -2.872  -0.441  0.00  0.00    +0.174 HD
ENDROOT
BRANCH   1   9
ATOM      3  C   UNL     1      -2.216   0.861   0.522  0.00  0.00    +0.001 A 
ATOM      4  C   UNL     1      -1.421   1.998   0.657  0.00  0.00    +0.001 A 
ATOM      5  C   UNL     1      -0.063   1.909   0.634  0.00  0.00    +0.012 A 
ATOM      6  C   UNL     1       0.550   0.656   0.473  0.00  0.00    +0.025 A 
ATOM      7  C   UNL     1      -0.258  -0.500   0.336  0.00  0.00    +0.008 A 
ATOM      8  C   UNL     1      -1.656  -0.370   0.364  0.00  0.00    +0.010 A 
ATOM      9  C   UNL     1       0.357  -1.759   0.174  0.00  0.00    +0.056 A 
ATOM     10  C   UNL     1       1.732  -1.845   0.152  0.00  0.00    +0.029 A 
ATOM     11  C   UNL     1       2.519  -0.706   0.287  0.00  0.00    +0.048 A 
ATOM     12  C   UNL     1       1.953   0.527   0.445  0.00  0.00    +0.125 A 
BRANCH  12  13
ATOM     13  O   UNL     1       2.741   1.627   0.574  0.00  0.00    -0.506 OA
ATOM     14  H   UNL     1       2.976   1.837   1.488  0.00  0.00    +0.292 HD
ENDBRANCH  12  13
ENDBRANCH   1   9
BRANCH   1  15
ATOM     15  S   UNL     1       0.091  -4.341   0.696  0.00  0.00    +0.073 S 
ATOM     16  O   UNL     1      -0.959  -5.278   0.500  0.00  0.00    -0.150 OA
ATOM     17  O   UNL     1       1.409  -4.560   0.212  0.00  0.00    -0.150 OA
BRANCH  15  18
ATOM     18  C   UNL     1       0.228  -4.094   2.436  0.00  0.00    +0.118 A 
ATOM     19  C   UNL     1      -0.078  -2.886   2.982  0.00  0.00    +0.029 A 
ATOM     20  C   UNL     1       0.024  -2.672   4.355  0.00  0.00    +0.003 A 
ATOM     21  C   UNL     1       0.433  -3.667   5.190  0.00  0.00    +0.008 A 
ATOM     22  C   UNL     1       0.758  -4.928   4.663  0.00  0.00    -0.015 A 
ATOM     23  C   UNL     1       0.649  -5.146   3.267  0.00  0.00    +0.027 A 
ATOM     24  C   UNL     1       0.969  -6.410   2.740  0.00  0.00    +0.051 A 
ATOM     25  C   UNL     1       1.374  -7.406   3.576  0.00  0.00    +0.021 A 
ATOM     26  C   UNL     1       1.475  -7.192   4.950  0.00  0.00    +0.002 A 
ATOM     27  C   UNL     1       1.185  -5.978   5.493  0.00  0.00    +0.008 A 
ATOM     28 CL   UNL     1       0.849  -6.700   1.032  0.00  0.00    -0.083 Cl
ENDBRANCH  15  18
ENDBRANCH   1  15
TORSDOF 4
