REMARK  Name = ZINC64480279
REMARK  11 active torsions:
REMARK  status: ('A' for Active; 'I' for Inactive)
REMARK    1  A    between atoms: C_1  and  C_2
REMARK    2  A    between atoms: C_2  and  N_3
REMARK    3  A    between atoms: C_5  and  C_17
REMARK    4  A    between atoms: N_19  and  C_20
REMARK    5  A    between atoms: C_20  and  C_22
REMARK    6  A    between atoms: C_20  and  C_25
REMARK    7  A    between atoms: C_22  and  C_23
REMARK    8  A    between atoms: C_22  and  C_24
REMARK    9  A    between atoms: N_27  and  C_28
REMARK   10  A    between atoms: C_28  and  C_29
REMARK   11  A    between atoms: C_29  and  C_30
REMARK                            x       y       z     vdW  Elec       q    Type
REMARK                         _______ _______ _______ _____ _____    ______ ____
ROOT
ATOM      1  C   UNL     1      -2.990  -2.842   2.382  0.00  0.00    +0.246 C 
ATOM      2  O   UNL     1      -3.573  -3.910   2.329  0.00  0.00    -0.270 OA
ATOM      3  N   UNL     1      -2.540  -2.378   3.565  0.00  0.00    -0.300 N 
ATOM      4  H   UNL     1      -2.076  -1.527   3.607  0.00  0.00    +0.150 HD
ENDROOT
BRANCH   1   7
ATOM      5  N   UNL     1      -1.372  -0.511   0.012  0.00  0.00    -0.325 N 
ATOM      6  C   UNL     1      -2.065  -0.771   1.280  0.00  0.00    +0.149 C 
ATOM      7  C   UNL     1      -2.787  -2.092   1.208  0.00  0.00    +0.079 C 
ATOM      8  C   UNL     1      -3.244  -2.567   0.013  0.00  0.00    +0.198 C 
ATOM      9  O   UNL     1      -3.911  -3.743  -0.044  0.00  0.00    -0.287 OA
ATOM     10  C   UNL     1      -3.006  -1.787  -1.211  0.00  0.00    +0.047 A 
ATOM     11  C   UNL     1      -2.050  -0.751  -1.181  0.00  0.00    +0.045 A 
ATOM     12  C   UNL     1      -1.802  -0.002  -2.316  0.00  0.00    +0.073 A 
ATOM     13  C   UNL     1      -2.502  -0.266  -3.485  0.00  0.00    +0.168 A 
ATOM     14  C   UNL     1      -3.456  -1.286  -3.520  0.00  0.00    +0.167 A 
ATOM     15  C   UNL     1      -3.706  -2.052  -2.389  0.00  0.00    +0.063 A 
ATOM     16  O   UNL     1      -3.995  -1.333  -4.775  0.00  0.00    -0.453 OA
ATOM     17  C   UNL     1      -3.656  -0.074  -5.386  0.00  0.00    +0.466 C 
ATOM     18  O   UNL     1      -2.444   0.317  -4.716  0.00  0.00    -0.453 OA
BRANCH   5  20
ATOM     19  C   UNL     1      -0.019   1.526   0.010  0.00  0.00    +0.024 C 
ATOM     20  C   UNL     1       0.002  -0.004   0.002  0.00  0.00    +0.102 C 
ENDBRANCH   5  20
ENDBRANCH   1   7
BRANCH   3  21
ATOM     21  C   UNL     1      -2.752  -3.158   4.787  0.00  0.00    +0.162 C 
BRANCH  21  22
ATOM     22  C   UNL     1      -2.743  -2.236   5.979  0.00  0.00    +0.234 C 
ATOM     23  O   UNL     1      -2.577  -1.045   5.824  0.00  0.00    -0.274 OA
ATOM     24  N   UNL     1      -2.921  -2.736   7.218  0.00  0.00    -0.313 N 
ATOM     25  H   UNL     1      -3.054  -3.689   7.342  0.00  0.00    +0.149 HD
BRANCH  24  26
ATOM     26  C   UNL     1      -2.913  -1.840   8.377  0.00  0.00    +0.108 C 
BRANCH  26  27
ATOM     27  C   UNL     1      -3.134  -2.655   9.653  0.00  0.00    +0.052 C 
BRANCH  27  28
ATOM     28  C   UNL     1      -3.126  -1.734  10.845  0.00  0.00    -0.040 C 
ATOM     29  C   UNL     1      -4.200  -1.178  11.452  0.00  0.00    -0.001 A 
ATOM     30  C   UNL     1      -5.642  -1.262  11.191  0.00  0.00    +0.010 A 
ATOM     31  C   UNL     1      -6.493  -0.576  11.988  0.00  0.00    +0.001 A 
ATOM     32  C   UNL     1      -6.033   0.210  13.053  0.00  0.00    +0.002 A 
ATOM     33  C   UNL     1      -4.723   0.337  13.355  0.00  0.00    +0.026 A 
ATOM     34  C   UNL     1      -3.740  -0.341  12.583  0.00  0.00    +0.043 A 
ATOM     35  N   UNL     1      -2.433  -0.377  12.672  0.00  0.00    -0.380 N 
ATOM     36  C   UNL     1      -1.915  -1.248  11.611  0.00  0.00    +0.144 C 
ATOM     37  H   UNL     1      -1.897   0.090  13.333  0.00  0.00    +0.160 HD
ENDBRANCH  27  28
ENDBRANCH  26  27
ENDBRANCH  24  26
ENDBRANCH  21  22
BRANCH  21  38
ATOM     38  C   UNL     1      -1.633  -4.191   4.933  0.00  0.00    +0.012 C 
ATOM     39  C   UNL     1      -1.641  -5.126   3.722  0.00  0.00    +0.009 C 
ATOM     40  C   UNL     1      -0.284  -3.473   5.013  0.00  0.00    +0.009 C 
ENDBRANCH  21  38
ENDBRANCH   3  21
TORSDOF 8
