REMARK  Name = ZINC08441714
REMARK  9 active torsions:
REMARK  status: ('A' for Active; 'I' for Inactive)
REMARK    1  A    between atoms: C_1  and  C_2
REMARK    2  A    between atoms: C_3  and  C_24
REMARK    3  A    between atoms: C_5  and  C_7
REMARK    4  A    between atoms: C_17  and  C_23
REMARK    5  A    between atoms: C_18  and  C_19
REMARK    6  A    between atoms: C_19  and  O_21
REMARK    7  A    between atoms: O_21  and  C_22
REMARK    8  A    between atoms: C_24  and  O_25
REMARK    9  A    between atoms: O_25  and  C_26
REMARK                            x       y       z     vdW  Elec       q    Type
REMARK                         _______ _______ _______ _____ _____    ______ ____
ROOT
ATOM      1  C   UNL     1      -1.200   2.284   0.020  0.00  0.00    +0.099 C 
ATOM      2  C   UNL     1      -1.141   3.143   1.258  0.00  0.00    +0.024 C 
ATOM      3  C   UNL     1      -0.731   4.428   1.188  0.00  0.00    +0.015 C 
ATOM      4  C   UNL     1      -0.672   5.294   2.422  0.00  0.00    +0.051 C 
ATOM      5  C   UNL     1      -0.375   4.425   3.646  0.00  0.00    +0.014 C 
ATOM      6  C   UNL     1      -1.471   3.360   3.763  0.00  0.00    +0.080 C 
ATOM      7  C   UNL     1      -1.523   2.570   2.484  0.00  0.00    +0.162 C 
ATOM      8  O   UNL     1      -1.903   1.416   2.511  0.00  0.00    -0.292 OA
ATOM      9  N   UNL     1      -0.361   4.974  -0.012  0.00  0.00    -0.321 N 
ATOM     10  C   UNL     1      -0.763   4.406  -1.189  0.00  0.00    +0.016 C 
ATOM     11  C   UNL     1      -1.175   3.126  -1.221  0.00  0.00    +0.066 C 
ATOM     12  C   UNL     1      -0.742   5.218  -2.458  0.00  0.00    +0.061 C 
ATOM     13  H   UNL     1       0.265   5.878  -0.035  0.00  0.00    +0.152 HD
ENDROOT
BRANCH   1  18
ATOM     14  C   UNL     1       3.791  -0.395  -0.036  0.00  0.00    +0.052 C 
ATOM     15  C   UNL     1       2.360   0.076  -0.020  0.00  0.00    -0.007 A 
ATOM     16  C   UNL     1       1.220  -0.658  -0.013  0.00  0.00    -0.000 A 
ATOM     17  C   UNL     1       0.002  -0.004   0.002  0.00  0.00    +0.019 A 
ATOM     18  C   UNL     1      -0.016   1.351   0.009  0.00  0.00    +0.003 A 
ATOM     19  S   UNL     1       1.725   1.744  -0.005  0.00  0.00    -0.097 S 
BRANCH  16  20
ATOM     20  C   UNL     1       1.279  -2.164  -0.022  0.00  0.00    +0.265 C 
BRANCH  20  21
ATOM     21  O   UNL     1      -0.048  -2.693  -0.012  0.00  0.00    -0.486 OA
BRANCH  21  22
ATOM     22  C   UNL     1      -0.173  -4.046  -0.019  0.00  0.00    +0.135 A 
ATOM     23  C   UNL     1       0.959  -4.848  -0.040  0.00  0.00    +0.047 A 
ATOM     24  C   UNL     1       0.830  -6.224  -0.041  0.00  0.00    +0.004 A 
ATOM     25  C   UNL     1      -0.426  -6.802  -0.032  0.00  0.00    +0.001 A 
ATOM     26  C   UNL     1      -1.556  -6.005  -0.016  0.00  0.00    +0.019 A 
ATOM     27  C   UNL     1      -1.433  -4.628  -0.010  0.00  0.00    +0.059 A 
ATOM     28 BR   UNL     1      -2.978  -3.539   0.011  0.00  0.00    -0.047 Br
ENDBRANCH  21  22
ENDBRANCH  20  21
ENDBRANCH  16  20
ENDBRANCH   1  18
BRANCH  11  29
ATOM     29  C   UNL     1      -1.593   2.563  -2.450  0.00  0.00    +0.337 C 
ATOM     30  O   UNL     1      -1.577   3.236  -3.464  0.00  0.00    -0.245 OA
BRANCH  29  31
ATOM     31  O   UNL     1      -2.009   1.281  -2.497  0.00  0.00    -0.465 OA
ATOM     32  C   UNL     1      -2.417   0.778  -3.771  0.00  0.00    +0.280 C 
ENDBRANCH  29  31
ENDBRANCH  11  29
TORSDOF 6
