REMARK  Name = ZINC39431812
REMARK  10 active torsions:
REMARK  status: ('A' for Active; 'I' for Inactive)
REMARK    1  A    between atoms: C_1  and  C_2
REMARK    2  A    between atoms: C_2  and  C_3
REMARK    3  A    between atoms: C_8  and  C_12
REMARK    4  A    between atoms: C_12  and  C_14
REMARK    5  A    between atoms: C_14  and  C_16
REMARK    6  A    between atoms: C_14  and  O_22
REMARK    7  A    between atoms: O_22  and  C_23
REMARK    8  A    between atoms: C_23  and  C_25
REMARK    9  A    between atoms: C_27  and  S_32
REMARK   10  A    between atoms: S_32  and  N_35
REMARK                            x       y       z     vdW  Elec       q    Type
REMARK                         _______ _______ _______ _____ _____    ______ ____
ROOT
ATOM      1  C   UNL     1       6.604  -1.554  -2.885  0.00  0.00    +0.277 C 
ENDROOT
BRANCH   1   2
ATOM      2  C   UNL     1       7.112  -0.135  -2.869  0.00  0.00    +0.000 A 
ATOM      3  C   UNL     1       7.447   0.492  -4.055  0.00  0.00    +0.008 A 
ATOM      4  C   UNL     1       7.913   1.794  -4.040  0.00  0.00    +0.000 A 
ATOM      5  C   UNL     1       8.043   2.468  -2.841  0.00  0.00    +0.000 A 
ATOM      6  C   UNL     1       7.708   1.841  -1.655  0.00  0.00    +0.000 A 
ATOM      7  C   UNL     1       7.238   0.541  -1.670  0.00  0.00    +0.008 A 
ENDBRANCH   1   2
BRANCH   1   8
ATOM      8  C   UNL     1       5.146  -1.561  -3.264  0.00  0.00    +0.206 C 
ATOM      9  O   UNL     1       4.809  -1.916  -4.375  0.00  0.00    -0.288 OA
BRANCH   8  15
ATOM     10  C   UNL     1       0.707  -0.490  -1.238  0.00  0.00    -0.024 A 
ATOM     11  C   UNL     1       0.003  -0.812  -2.344  0.00  0.00    +0.005 A 
ATOM     12  C   UNL     1       0.628  -1.268  -3.517  0.00  0.00    +0.001 A 
ATOM     13  C   UNL     1       1.968  -1.413  -3.615  0.00  0.00    +0.010 A 
ATOM     14  C   UNL     1       2.802  -1.105  -2.514  0.00  0.00    +0.007 A 
ATOM     15  C   UNL     1       4.172  -1.156  -2.327  0.00  0.00    +0.027 C 
ATOM     16  C   UNL     1       4.406  -0.688  -0.908  0.00  0.00    +0.152 C 
ATOM     17  N   UNL     1       3.082  -0.386  -0.356  0.00  0.00    -0.380 N 
ATOM     18  C   UNL     1       2.174  -0.615  -1.262  0.00  0.00    +0.046 A 
ATOM     19  H   UNL     1       2.908  -0.062   0.542  0.00  0.00    +0.160 HD
BRANCH  10  21
ATOM     20  C   UNL     1      -0.019   1.526   0.010  0.00  0.00    +0.009 C 
ATOM     21  C   UNL     1       0.002  -0.004   0.002  0.00  0.00    +0.034 C 
ENDBRANCH  10  21
ENDBRANCH   8  15
ENDBRANCH   1   8
BRANCH   1  22
ATOM     22  O   UNL     1       7.348  -2.315  -3.838  0.00  0.00    -0.445 OA
BRANCH  22  23
ATOM     23  C   UNL     1       8.459  -2.935  -3.394  0.00  0.00    +0.343 C 
ATOM     24  O   UNL     1       8.788  -2.831  -2.229  0.00  0.00    -0.245 OA
BRANCH  23  25
ATOM     25  C   UNL     1       9.277  -3.739  -4.323  0.00  0.00    +0.096 A 
ATOM     26  C   UNL     1       8.906  -3.856  -5.665  0.00  0.00    +0.046 A 
ATOM     27  C   UNL     1       9.674  -4.608  -6.527  0.00  0.00    +0.106 A 
ATOM     28  C   UNL     1      10.813  -5.248  -6.067  0.00  0.00    +0.031 A 
ATOM     29  C   UNL     1      11.189  -5.139  -4.742  0.00  0.00    +0.041 A 
ATOM     30  C   UNL     1      10.431  -4.383  -3.865  0.00  0.00    +0.137 A 
ATOM     31  F   UNL     1      10.802  -4.272  -2.571  0.00  0.00    -0.205 F 
BRANCH  27  32
ATOM     32  S   UNL     1       9.206  -4.756  -8.219  0.00  0.00    +0.056 S 
ATOM     33  O   UNL     1       9.790  -5.960  -8.697  0.00  0.00    -0.153 OA
ATOM     34  O   UNL     1       7.807  -4.513  -8.276  0.00  0.00    -0.153 OA
BRANCH  32  35
ATOM     35  N   UNL     1       9.936  -3.517  -9.039  0.00  0.00    -0.204 NA
ATOM     36  H   UNL     1      10.499  -2.885  -8.564  0.00  0.00    +0.144 HD
ATOM     37  H   UNL     1       9.802  -3.423  -9.995  0.00  0.00    +0.144 HD
ENDBRANCH  32  35
ENDBRANCH  27  32
ENDBRANCH  23  25
ENDBRANCH  22  23
ENDBRANCH   1  22
TORSDOF 9
