REMARK  Name = ZINC01165491
REMARK  8 active torsions:
REMARK  status: ('A' for Active; 'I' for Inactive)
REMARK    1  A    between atoms: C_1  and  C_2
REMARK    2  A    between atoms: C_7  and  N_8
REMARK    3  A    between atoms: C_9  and  C_20
REMARK    4  A    between atoms: C_22  and  O_31
REMARK    5  A    between atoms: C_23  and  O_29
REMARK    6  A    between atoms: C_25  and  N_26
REMARK    7  A    between atoms: O_29  and  C_30
REMARK    8  A    between atoms: O_31  and  C_32
REMARK                            x       y       z     vdW  Elec       q    Type
REMARK                         _______ _______ _______ _____ _____    ______ ____
ROOT
ATOM      1  N   UNL     1       3.067  -1.386   2.766  0.00  0.00    -0.244 N 
ATOM      2  C   UNL     1       3.269  -0.794   4.089  0.00  0.00    +0.200 C 
ATOM      3  N   UNL     1       3.211  -1.833   5.125  0.00  0.00    -0.321 N 
ATOM      4  C   UNL     1       2.215  -2.800   5.048  0.00  0.00    +0.041 A 
ATOM      5  C   UNL     1       1.716  -3.424   6.178  0.00  0.00    +0.024 A 
ATOM      6  C   UNL     1       0.746  -4.399   6.049  0.00  0.00    +0.002 A 
ATOM      7  C   UNL     1       0.270  -4.758   4.798  0.00  0.00    +0.001 A 
ATOM      8  C   UNL     1       0.753  -4.143   3.662  0.00  0.00    +0.015 A 
ATOM      9  C   UNL     1       1.723  -3.149   3.778  0.00  0.00    +0.058 A 
ATOM     10  C   UNL     1       2.268  -2.458   2.596  0.00  0.00    +0.254 C 
ATOM     11  O   UNL     1       1.999  -2.852   1.478  0.00  0.00    -0.270 OA
ATOM     12  H   UNL     1       3.857  -1.845   5.849  0.00  0.00    +0.148 HD
ENDROOT
BRANCH   1  19
ATOM     13  C   UNL     1       1.589   0.378   1.093  0.00  0.00    +0.045 C 
ATOM     14  C   UNL     1       3.030   0.036   0.816  0.00  0.00    -0.029 A 
ATOM     15  C   UNL     1       3.673   0.585  -0.277  0.00  0.00    +0.005 A 
ATOM     16  C   UNL     1       4.995   0.273  -0.532  0.00  0.00    +0.000 A 
ATOM     17  C   UNL     1       5.679  -0.590   0.305  0.00  0.00    +0.002 A 
ATOM     18  C   UNL     1       5.045  -1.137   1.402  0.00  0.00    +0.024 A 
ATOM     19  C   UNL     1       3.714  -0.830   1.659  0.00  0.00    +0.042 A 
ENDBRANCH   1  19
BRANCH   2  20
ATOM     20  C   UNL     1       2.193   0.228   4.348  0.00  0.00    +0.025 A 
ATOM     21  C   UNL     1       1.031  -0.142   4.999  0.00  0.00    +0.058 A 
ATOM     22  C   UNL     1       0.038   0.795   5.233  0.00  0.00    +0.162 A 
ATOM     23  C   UNL     1       0.219   2.113   4.821  0.00  0.00    +0.164 A 
ATOM     24  C   UNL     1       1.388   2.479   4.173  0.00  0.00    +0.082 A 
ATOM     25  C   UNL     1       2.372   1.536   3.938  0.00  0.00    +0.136 A 
BRANCH  25  26
ATOM     26  N   UNL     1       3.620   1.929   3.246  0.00  0.00    +0.057 N 
ATOM     27  O   UNL     1       3.805   3.093   2.938  0.00  0.00    -0.126 OA
ATOM     28  O   UNL     1       4.461   1.088   2.984  0.00  0.00    -0.126 OA
ENDBRANCH  25  26
BRANCH  23  29
ATOM     29  O   UNL     1      -0.750   3.038   5.053  0.00  0.00    -0.491 OA
ATOM     30  C   UNL     1      -0.496   4.370   4.602  0.00  0.00    +0.277 C 
ENDBRANCH  23  29
BRANCH  22  31
ATOM     31  O   UNL     1      -1.107   0.431   5.870  0.00  0.00    -0.491 OA
ATOM     32  C   UNL     1      -1.174  -0.906   6.370  0.00  0.00    +0.277 C 
ENDBRANCH  22  31
ENDBRANCH   2  20
TORSDOF 5
