REMARK  Name = ZINC08945830
REMARK  3 active torsions:
REMARK  status: ('A' for Active; 'I' for Inactive)
REMARK    1  A    between atoms: C_1  and  C_2
REMARK    2  A    between atoms: C_8  and  C_10
REMARK    3  A    between atoms: C_10  and  C_11
REMARK                            x       y       z     vdW  Elec       q    Type
REMARK                         _______ _______ _______ _____ _____    ______ ____
ROOT
ATOM      1  C   UNL     1       0.961   6.362   0.026  0.00  0.00    +0.007 A 
ATOM      2  C   UNL     1       0.283   7.522   0.039  0.00  0.00    +0.200 A 
ATOM      3  O   UNL     1      -1.038   7.280   0.050  0.00  0.00    -0.463 OA
ATOM      4  C   UNL     1      -1.284   5.954   0.045  0.00  0.00    +0.136 A 
ATOM      5  C   UNL     1      -0.047   5.303   0.030  0.00  0.00    +0.031 A 
ATOM      6  C   UNL     1      -0.006   3.847   0.023  0.00  0.00    -0.007 A 
ATOM      7  C   UNL     1       1.202   3.142   0.007  0.00  0.00    +0.009 A 
ATOM      8  C   UNL     1       1.189   1.778   0.000  0.00  0.00    +0.001 A 
ATOM      9  C   UNL     1      -0.013   1.076   0.008  0.00  0.00    +0.001 A 
ATOM     10  C   UNL     1      -1.207   1.731   0.017  0.00  0.00    +0.008 A 
ATOM     11  C   UNL     1      -1.230   3.135   0.031  0.00  0.00    -0.017 A 
ATOM     12  C   UNL     1      -2.445   3.846   0.046  0.00  0.00    +0.012 A 
ATOM     13  C   UNL     1      -2.465   5.202   0.053  0.00  0.00    +0.047 A 
ENDROOT
BRANCH   1  14
ATOM     14  C   UNL     1       2.458   6.188   0.012  0.00  0.00    +0.135 C 
BRANCH  14  22
ATOM     15  C   UNL     1       4.449   5.399  -6.628  0.00  0.00    +0.089 C 
ATOM     16  C   UNL     1       4.761   5.486  -5.156  0.00  0.00    +0.136 A 
ATOM     17  C   UNL     1       3.874   5.673  -4.152  0.00  0.00    +0.091 A 
ATOM     18  C   UNL     1       4.678   5.678  -2.982  0.00  0.00    +0.168 A 
ATOM     19  N   UNL     1       5.910   5.508  -3.384  0.00  0.00    -0.063 NA
ATOM     20  O   UNL     1       5.971   5.394  -4.586  0.00  0.00    -0.358 OA
ATOM     21  N   UNL     1       4.241   5.840  -1.667  0.00  0.00    -0.267 N 
ATOM     22  C   UNL     1       2.929   6.013  -1.409  0.00  0.00    +0.223 C 
ATOM     23  O   UNL     1       2.129   6.029  -2.320  0.00  0.00    -0.275 OA
ATOM     24  H   UNL     1       4.881   5.827  -0.938  0.00  0.00    +0.156 HD
ENDBRANCH  14  22
ENDBRANCH   1  14
TORSDOF 2
