REMARK  Name = ZINC04678124
REMARK  4 active torsions:
REMARK  status: ('A' for Active; 'I' for Inactive)
REMARK    1  A    between atoms: C_2  and  C_3
REMARK    2  A    between atoms: C_3  and  O_4
REMARK    3  A    between atoms: O_4  and  C_5
REMARK    4  A    between atoms: C_8  and  C_12
REMARK                            x       y       z     vdW  Elec       q    Type
REMARK                         _______ _______ _______ _____ _____    ______ ____
ROOT
ATOM      1  C   UNL     1      -1.298  -0.775   0.009  0.00  0.00    +0.070 C 
ATOM      2  C   UNL     1      -1.340  -1.627   1.248  0.00  0.00    +0.111 C 
ATOM      3  C   UNL     1      -1.053  -2.943   1.187  0.00  0.00    +0.030 C 
ATOM      4  C   UNL     1      -1.082  -3.805   2.424  0.00  0.00    +0.052 C 
ATOM      5  C   UNL     1      -2.127  -3.265   3.401  0.00  0.00    +0.013 C 
ATOM      6  C   UNL     1      -1.776  -1.813   3.740  0.00  0.00    +0.075 C 
ATOM      7  C   UNL     1      -1.695  -1.017   2.466  0.00  0.00    +0.143 C 
ATOM      8  O   UNL     1      -1.942   0.172   2.488  0.00  0.00    -0.297 OA
ATOM      9  N   UNL     1      -0.727  -3.520  -0.010  0.00  0.00    -0.260 NA
ATOM     10  C   UNL     1      -1.097  -2.936  -1.190  0.00  0.00    +0.048 C 
ATOM     11  C   UNL     1      -1.380  -1.618  -1.236  0.00  0.00    +0.025 C 
ATOM     12  C   UNL     1      -1.754  -0.997  -2.441  0.00  0.00    +0.162 C 
ATOM     13  O   UNL     1      -2.008   0.191  -2.447  0.00  0.00    -0.292 OA
ATOM     14  C   UNL     1      -1.846  -1.779  -3.723  0.00  0.00    +0.080 C 
ATOM     15  C   UNL     1      -0.865  -2.955  -3.663  0.00  0.00    +0.014 C 
ATOM     16  C   UNL     1      -1.188  -3.796  -2.427  0.00  0.00    +0.056 C 
ENDROOT
BRANCH   1  20
ATOM     17  C   UNL     1       2.373   1.415  -0.018  0.00  0.00    +0.157 A 
ATOM     18  C   UNL     1       1.161   2.091  -0.002  0.00  0.00    +0.084 A 
ATOM     19  C   UNL     1      -0.025   1.380   0.007  0.00  0.00    +0.028 A 
ATOM     20  C   UNL     1      -0.004  -0.003  -0.000  0.00  0.00    -0.036 A 
ATOM     21  C   UNL     1       1.202  -0.678  -0.016  0.00  0.00    +0.028 A 
ATOM     22  C   UNL     1       2.391   0.027  -0.025  0.00  0.00    +0.084 A 
ATOM     23 CL   UNL     1       3.905  -0.822  -0.043  0.00  0.00    -0.080 Cl
ATOM     24 CL   UNL     1       1.133   3.826   0.006  0.00  0.00    -0.080 Cl
BRANCH  17  25
ATOM     25  O   UNL     1       3.541   2.111  -0.027  0.00  0.00    -0.485 OA
BRANCH  25  26
ATOM     26  C   UNL     1       4.085   2.450  -1.304  0.00  0.00    +0.256 C 
BRANCH  26  28
ATOM     27  C   UNL     1       6.421   2.915  -1.838  0.00  0.00    +0.007 C 
ATOM     28  C   UNL     1       5.370   3.214  -1.116  0.00  0.00    +0.006 C 
ENDBRANCH  26  28
ENDBRANCH  25  26
ENDBRANCH  17  25
ENDBRANCH   1  20
TORSDOF 4
