REMARK  Name = ZINC59891512
REMARK  13 active torsions:
REMARK  status: ('A' for Active; 'I' for Inactive)
REMARK    1  A    between atoms: C_1  and  C_2
REMARK    2  A    between atoms: C_2  and  O_3
REMARK    3  A    between atoms: O_3  and  C_4
REMARK    4  A    between atoms: C_6  and  C_28
REMARK    5  A    between atoms: C_9  and  O_10
REMARK    6  A    between atoms: O_10  and  C_11
REMARK    7  A    between atoms: C_11  and  C_12
REMARK    8  A    between atoms: N_14  and  C_15
REMARK    9  A    between atoms: C_15  and  C_16
REMARK   10  A    between atoms: C_16  and  N_24
REMARK   11  A    between atoms: C_20  and  C_23
REMARK   12  A    between atoms: N_24  and  C_25
REMARK   13  A    between atoms: N_24  and  C_26
REMARK                            x       y       z     vdW  Elec       q    Type
REMARK                         _______ _______ _______ _____ _____    ______ ____
ROOT
ATOM      1  C   UNL     1       3.858  -0.414  -4.211  0.00  0.00    +0.251 C 
ATOM      2  O   UNL     1       3.029  -0.183  -5.066  0.00  0.00    -0.272 OA
ATOM      3  N   UNL     1       5.075   0.160  -4.279  0.00  0.00    -0.314 N 
ATOM      4  H   UNL     1       5.738  -0.025  -3.595  0.00  0.00    +0.149 HD
ENDROOT
BRANCH   1   5
ATOM      5  C   UNL     1       3.526  -1.343  -3.071  0.00  0.00    +0.324 C 
BRANCH   5   6
ATOM      6  O   UNL     1       2.187  -1.819  -3.220  0.00  0.00    -0.478 OA
BRANCH   6  12
ATOM      7  C   UNL     1       1.087  -2.174  -1.137  0.00  0.00    +0.164 A 
ATOM      8  C   UNL     1       0.613  -3.042  -0.171  0.00  0.00    +0.068 A 
ATOM      9  C   UNL     1       0.783  -4.420  -0.330  0.00  0.00    +0.057 A 
ATOM     10  C   UNL     1       1.431  -4.914  -1.465  0.00  0.00    +0.038 A 
ATOM     11  C   UNL     1       1.901  -4.043  -2.425  0.00  0.00    +0.064 A 
ATOM     12  C   UNL     1       1.727  -2.674  -2.269  0.00  0.00    +0.177 A 
ATOM     13 BR   UNL     1       2.778  -4.714  -3.960  0.00  0.00    -0.046 Br
BRANCH   9  14
ATOM     14  C   UNL     1       0.295  -5.323   0.668  0.00  0.00    +0.099 C 
ATOM     15  N   UNL     1      -0.092  -6.040   1.460  0.00  0.00    -0.191 NA
ENDBRANCH   9  14
BRANCH   7  16
ATOM     16  O   UNL     1       0.923  -0.833  -0.985  0.00  0.00    -0.488 OA
BRANCH  16  18
ATOM     17  C   UNL     1       0.167   1.136   0.195  0.00  0.00    +0.048 C 
ATOM     18  C   UNL     1       0.258  -0.391   0.201  0.00  0.00    +0.226 C 
ENDBRANCH  16  18
ENDBRANCH   7  16
ENDBRANCH   6  12
ENDBRANCH   5   6
ENDBRANCH   1   5
BRANCH   3  19
ATOM     19  C   UNL     1       5.398   1.063  -5.387  0.00  0.00    +0.092 C 
BRANCH  19  20
ATOM     20  C   UNL     1       6.777   1.684  -5.154  0.00  0.00    -0.050 C 
ATOM     21  C   UNL     1       7.059   2.723  -6.241  0.00  0.00    -0.010 C 
ATOM     22  C   UNL     1       7.030   2.046  -7.613  0.00  0.00    -0.001 C 
ATOM     23  C   UNL     1       8.097   0.952  -7.664  0.00  0.00    +0.003 C 
ATOM     24  C   UNL     1       7.815  -0.087  -6.577  0.00  0.00    -0.015 C 
ATOM     25  C   UNL     1       7.844   0.589  -5.205  0.00  0.00    -0.007 C 
ATOM     26  C   UNL     1       8.883  -1.182  -6.628  0.00  0.00    +0.007 C 
BRANCH  20  27
ATOM     27  N   UNL     1       6.804   2.333  -3.836  0.00  0.00    +0.381 N 
ATOM     28  C   UNL     1       8.117   2.960  -3.627  0.00  0.00    -0.096 C 
ATOM     29  C   UNL     1       5.756   3.360  -3.775  0.00  0.00    -0.096 C 
ATOM     30  H   UNL     1       6.643   1.644  -3.118  0.00  0.00    -0.082 HD
ENDBRANCH  20  27
ENDBRANCH  19  20
ENDBRANCH   3  19
TORSDOF 9
