REMARK  Name = ZINC63763396
REMARK  5 active torsions:
REMARK  status: ('A' for Active; 'I' for Inactive)
REMARK    1  A    between atoms: N_9  and  C_24
REMARK    2  A    between atoms: C_10  and  S_13
REMARK    3  A    between atoms: S_13  and  C_14
REMARK    4  A    between atoms: C_14  and  C_15
REMARK    5  A    between atoms: N_17  and  C_18
REMARK                            x       y       z     vdW  Elec       q    Type
REMARK                         _______ _______ _______ _____ _____    ______ ____
ROOT
ATOM      1  C   UNL     1       0.030   1.221   1.415  0.00  0.00    +0.001 A 
ATOM      2  C   UNL     1       0.930   1.999   0.704  0.00  0.00    +0.002 A 
ATOM      3  C   UNL     1       1.957   1.411  -0.009  0.00  0.00    +0.024 A 
ATOM      4  C   UNL     1       2.089   0.033  -0.009  0.00  0.00    +0.041 A 
ATOM      5  C   UNL     1       1.185  -0.759   0.719  0.00  0.00    +0.058 A 
ATOM      6  C   UNL     1       0.150  -0.153   1.428  0.00  0.00    +0.015 A 
ATOM      7  C   UNL     1       1.369  -2.221   0.721  0.00  0.00    +0.255 C 
ATOM      8  O   UNL     1       0.518  -2.946   1.200  0.00  0.00    -0.269 OA
ATOM      9  N   UNL     1       2.489  -2.748   0.186  0.00  0.00    -0.239 N 
ATOM     10  C   UNL     1       3.601  -1.895  -0.234  0.00  0.00    +0.227 C 
ATOM     11  N   UNL     1       3.098  -0.606  -0.723  0.00  0.00    -0.317 N 
ATOM     12  H   UNL     1       3.463  -0.206  -1.528  0.00  0.00    +0.149 HD
ENDROOT
BRANCH   9  13
ATOM     13  C   UNL     1       2.589  -4.135   0.030  0.00  0.00    +0.039 A 
ATOM     14  C   UNL     1       2.179  -4.734  -1.154  0.00  0.00    +0.026 A 
ATOM     15  C   UNL     1       2.280  -6.103  -1.306  0.00  0.00    +0.040 A 
ATOM     16  C   UNL     1       2.788  -6.878  -0.278  0.00  0.00    +0.124 A 
ATOM     17  C   UNL     1       3.198  -6.284   0.904  0.00  0.00    +0.040 A 
ATOM     18  C   UNL     1       3.104  -4.915   1.058  0.00  0.00    +0.026 A 
ATOM     19  F   UNL     1       2.885  -8.218  -0.428  0.00  0.00    -0.205 F 
ENDBRANCH   9  13
BRANCH  10  20
ATOM     20  S   UNL     1       4.705  -1.609   1.176  0.00  0.00    -0.109 S 
BRANCH  20  21
ATOM     21  C   UNL     1       3.645  -0.798   2.405  0.00  0.00    +0.173 C 
BRANCH  21  22
ATOM     22  C   UNL     1       4.450  -0.501   3.644  0.00  0.00    +0.259 C 
ATOM     23  O   UNL     1       3.867   0.104   4.697  0.00  0.00    -0.270 OA
ATOM     24  N   UNL     1       5.709  -0.829   3.697  0.00  0.00    -0.175 NA
BRANCH  24  25
ATOM     25  C   UNL     1       6.437  -0.560   4.819  0.00  0.00    +0.249 A 
ATOM     26  H   UNL     1       8.343  -1.286   4.381  0.00  0.00    +0.192 HD
ATOM     27  N   UNL     1       5.991   0.024   5.915  0.00  0.00    -0.198 NA
ATOM     28  C   UNL     1       6.977   0.123   6.803  0.00  0.00    +0.247 A 
ATOM     29  N   UNL     1       8.067  -0.392   6.298  0.00  0.00    -0.159 NA
ATOM     30  N   UNL     1       7.746  -0.851   5.010  0.00  0.00    -0.243 N 
ENDBRANCH  24  25
ENDBRANCH  21  22
ENDBRANCH  20  21
ENDBRANCH  10  20
TORSDOF 5
