REMARK  Name = ZINC39828138
REMARK  11 active torsions:
REMARK  status: ('A' for Active; 'I' for Inactive)
REMARK    1  A    between atoms: C_1  and  C_2
REMARK    2  A    between atoms: C_3  and  C_33
REMARK    3  A    between atoms: C_8  and  C_27
REMARK    4  A    between atoms: C_10  and  C_15
REMARK    5  A    between atoms: C_15  and  C_17
REMARK    6  A    between atoms: C_20  and  O_23
REMARK    7  A    between atoms: O_23  and  C_24
REMARK    8  A    between atoms: C_24  and  C_25
REMARK    9  A    between atoms: C_33  and  O_35
REMARK   10  A    between atoms: O_35  and  C_36
REMARK   11  A    between atoms: C_36  and  C_37
REMARK                            x       y       z     vdW  Elec       q    Type
REMARK                         _______ _______ _______ _____ _____    ______ ____
ROOT
ATOM      1  C   UNL     1       0.294   1.551   0.157  0.00  0.00    +0.067 C 
ATOM      2  C   UNL     1       0.204   0.048   0.110  0.00  0.00    +0.062 A 
ATOM      3  C   UNL     1       0.117  -0.644  -1.092  0.00  0.00    +0.120 A 
ATOM      4  S   UNL     1       0.042  -2.326  -0.497  0.00  0.00    -0.045 S 
ATOM      5  C   UNL     1       0.126  -1.996   1.151  0.00  0.00    +0.169 A 
ATOM      6  N   UNL     1       0.209  -0.678   1.199  0.00  0.00    -0.229 NA
ATOM      7  N   UNL     1       0.115  -2.891   2.204  0.00  0.00    -0.232 N 
ATOM      8  C   UNL     1       0.033  -4.352   2.094  0.00  0.00    +0.152 C 
ATOM      9  C   UNL     1       0.055  -4.881   3.509  0.00  0.00    +0.077 C 
ATOM     10  C   UNL     1       0.142  -3.806   4.327  0.00  0.00    +0.250 C 
ATOM     11  C   UNL     1       0.184  -2.577   3.510  0.00  0.00    +0.293 C 
ATOM     12  O   UNL     1       0.267  -1.448   3.952  0.00  0.00    -0.266 OA
ATOM     13  O   UNL     1       0.188  -3.851   5.679  0.00  0.00    -0.282 OA
ENDROOT
BRANCH   8  14
ATOM     14  C   UNL     1      -1.251  -4.749   1.411  0.00  0.00    -0.022 A 
ATOM     15  C   UNL     1      -2.442  -4.148   1.775  0.00  0.00    +0.006 A 
ATOM     16  C   UNL     1      -3.619  -4.512   1.148  0.00  0.00    +0.000 A 
ATOM     17  C   UNL     1      -3.605  -5.476   0.158  0.00  0.00    +0.000 A 
ATOM     18  C   UNL     1      -2.414  -6.076  -0.207  0.00  0.00    +0.000 A 
ATOM     19  C   UNL     1      -1.236  -5.709   0.417  0.00  0.00    +0.006 A 
ENDBRANCH   8  14
BRANCH   9  20
ATOM     20  C   UNL     1      -0.007  -6.288   3.917  0.00  0.00    +0.195 C 
ATOM     21  O   UNL     1      -0.971  -6.701   4.535  0.00  0.00    -0.287 OA
BRANCH  20  22
ATOM     22  C   UNL     1       1.100  -7.204   3.579  0.00  0.00    +0.022 A 
ATOM     23  C   UNL     1       2.263  -6.708   2.981  0.00  0.00    +0.015 A 
ATOM     24  C   UNL     1       3.293  -7.565   2.667  0.00  0.00    +0.046 A 
ATOM     25  C   UNL     1       3.179  -8.923   2.945  0.00  0.00    +0.121 A 
ATOM     26  C   UNL     1       2.025  -9.421   3.539  0.00  0.00    +0.046 A 
ATOM     27  C   UNL     1       0.992  -8.569   3.862  0.00  0.00    +0.015 A 
BRANCH  25  28
ATOM     28  O   UNL     1       4.197  -9.765   2.634  0.00  0.00    -0.488 OA
BRANCH  28  29
ATOM     29  C   UNL     1       4.013 -11.147   2.946  0.00  0.00    +0.256 C 
BRANCH  29  30
ATOM     30  C   UNL     1       5.238 -11.922   2.532  0.00  0.00    +0.006 C 
ATOM     31  C   UNL     1       5.752 -12.815   3.341  0.00  0.00    +0.007 C 
ENDBRANCH  29  30
ENDBRANCH  28  29
ENDBRANCH  25  28
ENDBRANCH  20  22
ENDBRANCH   9  20
BRANCH   3  32
ATOM     32  C   UNL     1       0.093  -0.136  -2.462  0.00  0.00    +0.348 C 
ATOM     33  O   UNL     1       0.154   1.062  -2.667  0.00  0.00    -0.244 OA
BRANCH  32  34
ATOM     34  O   UNL     1       0.003  -0.995  -3.498  0.00  0.00    -0.457 OA
BRANCH  34  35
ATOM     35  C   UNL     1      -0.016  -0.428  -4.810  0.00  0.00    +0.259 C 
BRANCH  35  36
ATOM     36  C   UNL     1      -0.120  -1.531  -5.832  0.00  0.00    +0.006 C 
ATOM     37  C   UNL     1      -0.957  -1.419  -6.834  0.00  0.00    +0.007 C 
ENDBRANCH  35  36
ENDBRANCH  34  35
ENDBRANCH  32  34
ENDBRANCH   3  32
TORSDOF 10
