REMARK  Name = ZINC63886473
REMARK  13 active torsions:
REMARK  status: ('A' for Active; 'I' for Inactive)
REMARK    1  A    between atoms: C_1  and  C_2
REMARK    2  A    between atoms: C_2  and  O_3
REMARK    3  A    between atoms: O_3  and  C_4
REMARK    4  A    between atoms: C_4  and  C_6
REMARK    5  A    between atoms: C_8  and  N_19
REMARK    6  A    between atoms: C_15  and  C_18
REMARK    7  A    between atoms: C_20  and  C_22
REMARK    8  A    between atoms: C_22  and  C_24
REMARK    9  A    between atoms: C_22  and  O_25
REMARK   10  A    between atoms: O_25  and  C_26
REMARK   11  A    between atoms: C_26  and  C_28
REMARK   12  A    between atoms: C_28  and  C_29
REMARK   13  A    between atoms: C_29  and  C_30
REMARK                            x       y       z     vdW  Elec       q    Type
REMARK                         _______ _______ _______ _____ _____    ______ ____
ROOT
ATOM      1  N   UNL     1       3.451  -1.578   1.151  0.00  0.00    -0.299 N 
ATOM      2  C   UNL     1       4.130  -0.440   0.906  0.00  0.00    +0.254 C 
ATOM      3  O   UNL     1       4.351   0.340   1.808  0.00  0.00    -0.272 OA
ATOM      4  H   UNL     1       3.275  -2.202   0.430  0.00  0.00    +0.150 HD
ENDROOT
BRANCH   1   6
ATOM      5  C   UNL     1       1.516  -2.381   2.500  0.00  0.00    +0.155 C 
ATOM      6  C   UNL     1       2.978  -1.872   2.506  0.00  0.00    +0.153 C 
ATOM      7  S   UNL     1       3.793  -3.371   3.198  0.00  0.00    -0.106 S 
ATOM      8  C   UNL     1       2.542  -4.563   2.778  0.00  0.00    -0.012 C 
ATOM      9  C   UNL     1       1.454  -3.886   2.436  0.00  0.00    -0.044 C 
ATOM     10  C   UNL     1       0.185  -4.612   1.996  0.00  0.00    +0.033 C 
ATOM     11  C   UNL     1       0.247  -6.063   2.471  0.00  0.00    +0.008 C 
ATOM     12  C   UNL     1       1.565  -6.695   2.014  0.00  0.00    -0.009 C 
ATOM     13  C   UNL     1       2.707  -6.056   2.808  0.00  0.00    +0.045 C 
ATOM     14  C   UNL     1       1.531  -8.202   2.278  0.00  0.00    +0.008 C 
BRANCH   5  15
ATOM     15  C   UNL     1       0.801  -1.808   1.304  0.00  0.00    +0.317 C 
ATOM     16  O   UNL     1       0.324  -2.546   0.475  0.00  0.00    -0.250 OA
BRANCH  15  17
ATOM     17  O   UNL     1       0.693  -0.477   1.160  0.00  0.00    -0.464 OA
BRANCH  17  19
ATOM     18  C   UNL     1      -0.019   1.526   0.010  0.00  0.00    +0.048 C 
ATOM     19  C   UNL     1       0.002  -0.004   0.002  0.00  0.00    +0.229 C 
ENDBRANCH  17  19
ENDBRANCH  15  17
ENDBRANCH   5  15
ENDBRANCH   1   6
BRANCH   2  20
ATOM     20  C   UNL     1       4.617  -0.138  -0.487  0.00  0.00    +0.258 C 
ATOM     21  C   UNL     1       3.416   0.056  -1.416  0.00  0.00    +0.062 C 
BRANCH  20  22
ATOM     22  O   UNL     1       5.403   1.055  -0.469  0.00  0.00    -0.452 OA
BRANCH  22  23
ATOM     23  C   UNL     1       6.383   1.153  -1.382  0.00  0.00    +0.308 C 
ATOM     24  O   UNL     1       6.567   0.256  -2.169  0.00  0.00    -0.251 OA
BRANCH  23  25
ATOM     25  C   UNL     1       7.253   2.383  -1.423  0.00  0.00    +0.125 C 
BRANCH  25  26
ATOM     26  C   UNL     1       8.283   2.241  -2.546  0.00  0.00    +0.044 C 
BRANCH  26  27
ATOM     27  C   UNL     1       9.153   3.470  -2.588  0.00  0.00    -0.041 C 
ATOM     28  C   UNL     1      10.360   3.632  -1.999  0.00  0.00    -0.001 A 
ATOM     29  C   UNL     1      11.191   2.747  -1.175  0.00  0.00    +0.010 A 
ATOM     30  C   UNL     1      12.380   3.201  -0.718  0.00  0.00    +0.001 A 
ATOM     31  C   UNL     1      12.838   4.494  -1.010  0.00  0.00    +0.002 A 
ATOM     32  C   UNL     1      12.131   5.364  -1.761  0.00  0.00    +0.026 A 
ATOM     33  C   UNL     1      10.866   4.992  -2.295  0.00  0.00    +0.043 A 
ATOM     34  N   UNL     1      10.005   5.645  -3.037  0.00  0.00    -0.380 N 
ATOM     35  C   UNL     1       8.857   4.770  -3.302  0.00  0.00    +0.144 C 
ATOM     36  H   UNL     1      10.111   6.553  -3.360  0.00  0.00    +0.160 HD
ENDBRANCH  26  27
ENDBRANCH  25  26
ENDBRANCH  23  25
ENDBRANCH  22  23
ENDBRANCH  20  22
ENDBRANCH   2  20
TORSDOF 10
