REMARK  Name = ZINC35664206
REMARK  10 active torsions:
REMARK  status: ('A' for Active; 'I' for Inactive)
REMARK    1  A    between atoms: C_1  and  C_2
REMARK    2  A    between atoms: C_2  and  N_3
REMARK    3  A    between atoms: C_4  and  C_23
REMARK    4  A    between atoms: C_5  and  C_18
REMARK    5  A    between atoms: C_6  and  C_11
REMARK    6  A    between atoms: C_18  and  O_20
REMARK    7  A    between atoms: O_20  and  C_21
REMARK    8  A    between atoms: C_21  and  C_22
REMARK    9  A    between atoms: C_23  and  N_24
REMARK   10  A    between atoms: C_31  and  C_33
REMARK                            x       y       z     vdW  Elec       q    Type
REMARK                         _______ _______ _______ _____ _____    ______ ____
ROOT
ATOM      1  N   UNL     1       0.920  -0.479   1.508  0.00  0.00    -0.261 N 
ATOM      2  C   UNL     1       2.203  -0.836   1.204  0.00  0.00    +0.010 C 
ATOM      3  C   UNL     1       2.951  -1.551   2.071  0.00  0.00    +0.076 C 
ATOM      4  C   UNL     1       2.319  -1.943   3.392  0.00  0.00    +0.144 C 
ATOM      5  N   UNL     1       0.931  -1.509   3.622  0.00  0.00    -0.288 N 
ATOM      6  C   UNL     1       0.315  -0.794   2.661  0.00  0.00    +0.307 C 
ATOM      7  O   UNL     1      -0.830  -0.427   2.843  0.00  0.00    -0.252 OA
ATOM      8  H   UNL     1       0.473  -1.729   4.448  0.00  0.00    +0.151 HD
ENDROOT
BRANCH   4   9
ATOM      9  C   UNL     1       2.358  -3.446   3.497  0.00  0.00    -0.020 A 
ATOM     10  C   UNL     1       1.418  -4.210   2.832  0.00  0.00    +0.006 A 
ATOM     11  C   UNL     1       1.452  -5.589   2.928  0.00  0.00    +0.003 A 
ATOM     12  C   UNL     1       2.427  -6.205   3.690  0.00  0.00    +0.038 A 
ATOM     13  C   UNL     1       3.370  -5.441   4.357  0.00  0.00    +0.124 A 
ATOM     14  C   UNL     1       3.338  -4.060   4.255  0.00  0.00    +0.044 A 
ATOM     15  F   UNL     1       4.323  -6.042   5.102  0.00  0.00    -0.205 F 
ENDBRANCH   4   9
BRANCH   1  17
ATOM     16  C   UNL     1       0.408   1.790   0.753  0.00  0.00    +0.025 C 
ATOM     17  C   UNL     1       0.166   0.297   0.521  0.00  0.00    +0.111 C 
ENDBRANCH   1  17
BRANCH   3  18
ATOM     18  C   UNL     1       4.279  -1.923   1.757  0.00  0.00    +0.339 C 
ATOM     19  O   UNL     1       4.766  -1.596   0.691  0.00  0.00    -0.245 OA
BRANCH  18  20
ATOM     20  O   UNL     1       5.006  -2.639   2.640  0.00  0.00    -0.462 OA
BRANCH  20  21
ATOM     21  C   UNL     1       6.341  -2.978   2.257  0.00  0.00    +0.229 C 
ATOM     22  C   UNL     1       7.003  -3.784   3.377  0.00  0.00    +0.048 C 
ENDBRANCH  20  21
ENDBRANCH  18  20
ENDBRANCH   3  18
BRANCH   2  23
ATOM     23  C   UNL     1       2.792  -0.425  -0.120  0.00  0.00    -0.026 C 
BRANCH  23  24
ATOM     24  N   UNL     1       2.735  -1.558  -1.054  0.00  0.00    +0.384 N 
ATOM     25  C   UNL     1       3.571  -1.244  -2.210  0.00  0.00    -0.077 C 
ATOM     26  C   UNL     1       4.120  -2.528  -2.793  0.00  0.00    +0.000 C 
ATOM     27  C   UNL     1       3.189  -3.019  -3.917  0.00  0.00    +0.106 C 
ATOM     28  N   UNL     1       1.771  -2.821  -3.557  0.00  0.00    -0.303 N 
ATOM     29  C   UNL     1       1.263  -3.091  -2.228  0.00  0.00    +0.089 C 
ATOM     30  C   UNL     1       1.380  -1.822  -1.353  0.00  0.00    -0.059 C 
ATOM     31  C   UNL     1       0.918  -2.371  -4.499  0.00  0.00    +0.219 C 
ATOM     32  O   UNL     1      -0.251  -2.200  -4.227  0.00  0.00    -0.275 OA
ATOM     33  H   UNL     1       3.123  -2.368  -0.594  0.00  0.00    -0.081 HD
BRANCH  31  34
ATOM     34  C   UNL     1       1.418  -2.080  -5.891  0.00  0.00    +0.075 C 
ATOM     35  C   UNL     1       2.071  -0.696  -6.034  0.00  0.00    +0.013 C 
ATOM     36  C   UNL     1       1.368  -0.592  -7.398  0.00  0.00    +0.001 C 
ATOM     37  C   UNL     1       0.323  -1.576  -6.845  0.00  0.00    +0.013 C 
ENDBRANCH  31  34
ENDBRANCH  23  24
ENDBRANCH   2  23
TORSDOF 8
