REMARK  Name = ZINC38551040
REMARK  6 active torsions:
REMARK  status: ('A' for Active; 'I' for Inactive)
REMARK    1  A    between atoms: C_1  and  C_2
REMARK    2  A    between atoms: N_8  and  C_9
REMARK    3  A    between atoms: C_9  and  C_11
REMARK    4  A    between atoms: C_9  and  C_17
REMARK    5  A    between atoms: C_21  and  N_22
REMARK    6  A    between atoms: C_23  and  C_25
REMARK                            x       y       z     vdW  Elec       q    Type
REMARK                         _______ _______ _______ _____ _____    ______ ____
ROOT
ATOM      1  C   UNL     1      -0.632  -2.896   4.727  0.00  0.00    +0.009 A 
ATOM      2  C   UNL     1      -1.643  -2.285   5.469  0.00  0.00    -0.030 A 
ATOM      3  C   UNL     1      -2.224  -3.037   6.442  0.00  0.00    -0.005 A 
ATOM      4  S   UNL     1      -1.380  -4.592   6.340  0.00  0.00    -0.078 S 
ATOM      5  C   UNL     1      -0.280  -4.182   4.993  0.00  0.00    +0.078 A 
ATOM      6  C   UNL     1      -3.318  -2.631   7.376  0.00  0.00    +0.043 C 
ATOM      7  C   UNL     1      -3.455  -1.102   7.324  0.00  0.00    +0.005 C 
ATOM      8  C   UNL     1      -3.482  -0.660   5.858  0.00  0.00    +0.005 C 
ATOM      9  C   UNL     1      -2.102  -0.849   5.229  0.00  0.00    +0.036 C 
ENDROOT
BRANCH   5  10
ATOM     10  N   UNL     1       0.689  -4.975   4.375  0.00  0.00    -0.273 N 
ATOM     11  C   UNL     1       0.965  -6.202   4.860  0.00  0.00    +0.284 C 
ATOM     12  O   UNL     1       0.369  -6.619   5.836  0.00  0.00    -0.266 OA
ATOM     13  H   UNL     1       1.164  -4.642   3.597  0.00  0.00    +0.156 HD
BRANCH  11  14
ATOM     14  C   UNL     1       1.983  -7.034   4.211  0.00  0.00    +0.189 A 
ATOM     15  C   UNL     1       2.354  -8.291   4.594  0.00  0.00    +0.054 A 
ATOM     16  C   UNL     1       3.351  -8.708   3.698  0.00  0.00    +0.042 A 
ATOM     17  C   UNL     1       3.542  -7.700   2.819  0.00  0.00    +0.196 A 
ATOM     18  O   UNL     1       2.712  -6.695   3.128  0.00  0.00    -0.458 OA
ENDBRANCH  11  14
ENDBRANCH   5  10
BRANCH   1  19
ATOM     19  C   UNL     1       0.065  -2.134   3.629  0.00  0.00    +0.135 C 
BRANCH  19  27
ATOM     20  C   UNL     1       0.981   1.044  -0.285  0.00  0.00    +0.044 C 
ATOM     21  C   UNL     1       0.796  -0.445  -0.141  0.00  0.00    -0.046 A 
ATOM     22  C   UNL     1       0.865  -1.279  -1.249  0.00  0.00    +0.021 A 
ATOM     23  C   UNL     1       0.692  -2.638  -1.083  0.00  0.00    +0.084 A 
ATOM     24  N   UNL     1       0.463  -3.151   0.111  0.00  0.00    -0.350 N 
ATOM     25  C   UNL     1       0.390  -2.389   1.191  0.00  0.00    +0.097 A 
ATOM     26  C   UNL     1       0.560  -1.011   1.098  0.00  0.00    +0.045 A 
ATOM     27  N   UNL     1       0.147  -2.971   2.430  0.00  0.00    -0.320 N 
ATOM     28  H   UNL     1       0.031  -3.931   2.500  0.00  0.00    +0.148 HD
ATOM     29  H   UNL     1       0.345  -4.110   0.200  0.00  0.00    +0.166 HD
ENDBRANCH  19  27
BRANCH  19  30
ATOM     30  C   UNL     1       1.454  -1.762   4.079  0.00  0.00    -0.023 A 
ATOM     31  C   UNL     1       2.512  -2.618   3.832  0.00  0.00    +0.006 A 
ATOM     32  C   UNL     1       3.787  -2.277   4.245  0.00  0.00    +0.000 A 
ATOM     33  C   UNL     1       4.004  -1.082   4.903  0.00  0.00    +0.000 A 
ATOM     34  C   UNL     1       2.946  -0.226   5.149  0.00  0.00    +0.000 A 
ATOM     35  C   UNL     1       1.672  -0.565   4.733  0.00  0.00    +0.006 A 
ENDBRANCH  19  30
ENDBRANCH   1  19
TORSDOF 5
