REMARK  Name = ZINC45481408
REMARK  13 active torsions:
REMARK  status: ('A' for Active; 'I' for Inactive)
REMARK    1  A    between atoms: C_1  and  C_2
REMARK    2  A    between atoms: C_5  and  C_8
REMARK    3  A    between atoms: C_8  and  N_9
REMARK    4  A    between atoms: C_10  and  C_12
REMARK    5  A    between atoms: C_12  and  C_14
REMARK    6  A    between atoms: C_12  and  S_15
REMARK    7  A    between atoms: S_15  and  C_16
REMARK    8  A    between atoms: C_19  and  C_22
REMARK    9  A    between atoms: N_20  and  N_21
REMARK   10  A    between atoms: C_25  and  C_28
REMARK   11  A    between atoms: C_28  and  C_29
REMARK   12  A    between atoms: C_28  and  C_30
REMARK   13  A    between atoms: C_28  and  C_31
REMARK                            x       y       z     vdW  Elec       q    Type
REMARK                         _______ _______ _______ _____ _____    ______ ____
ROOT
ATOM      1  C   UNL     1       4.919  -8.637   0.596  0.00  0.00    +0.209 A 
ATOM      2  N   UNL     1       5.903  -7.818   0.298  0.00  0.00    -0.121 NA
ATOM      3  N   UNL     1       7.033  -8.408   0.461  0.00  0.00    -0.127 NA
ATOM      4  C   UNL     1       6.840  -9.640   0.872  0.00  0.00    +0.182 A 
ATOM      5  N   UNL     1       5.480  -9.822   0.977  0.00  0.00    -0.224 N 
ENDROOT
BRANCH   4   6
ATOM      6  C   UNL     1       7.886 -10.640   1.173  0.00  0.00    +0.021 A 
ATOM      7  C   UNL     1       7.552 -11.990   1.292  0.00  0.00    +0.012 A 
ATOM      8  C   UNL     1       8.533 -12.918   1.571  0.00  0.00    +0.005 A 
ATOM      9  C   UNL     1       9.846 -12.514   1.734  0.00  0.00    -0.042 A 
ATOM     10  C   UNL     1      10.184 -11.177   1.617  0.00  0.00    +0.005 A 
ATOM     11  C   UNL     1       9.214 -10.239   1.332  0.00  0.00    +0.012 A 
BRANCH   9  12
ATOM     12  C   UNL     1      10.913 -13.534   2.039  0.00  0.00    -0.013 C 
ATOM     13  C   UNL     1      10.978 -14.559   0.906  0.00  0.00    +0.015 C 
ATOM     14  C   UNL     1      12.267 -12.832   2.170  0.00  0.00    +0.015 C 
ATOM     15  C   UNL     1      10.578 -14.245   3.352  0.00  0.00    +0.015 C 
ENDBRANCH   9  12
ENDBRANCH   4   6
BRANCH   5  16
ATOM     16  N   UNL     1       4.828 -10.953   1.377  0.00  0.00    -0.295 N 
ATOM     17  H   UNL     1       4.628 -11.553   0.590  0.00  0.00    +0.163 HD
ATOM     18  H   UNL     1       5.356 -11.445   2.082  0.00  0.00    +0.163 HD
ENDBRANCH   5  16
BRANCH   1  19
ATOM     19  S   UNL     1       3.197  -8.271   0.524  0.00  0.00    -0.072 S 
BRANCH  19  20
ATOM     20  C   UNL     1       3.137  -6.551  -0.051  0.00  0.00    +0.137 C 
ATOM     21  C   UNL     1       3.693  -6.470  -1.474  0.00  0.00    +0.029 C 
BRANCH  20  23
ATOM     22  N   UNL     1       1.447  -4.746  -0.032  0.00  0.00    -0.310 N 
ATOM     23  C   UNL     1       1.710  -6.067  -0.040  0.00  0.00    +0.226 C 
ATOM     24  O   UNL     1       0.799  -6.867  -0.040  0.00  0.00    -0.275 OA
ATOM     25  H   UNL     1       2.176  -4.106  -0.032  0.00  0.00    +0.149 HD
BRANCH  22  26
ATOM     26  C   UNL     1       0.059  -4.275  -0.021  0.00  0.00    +0.139 C 
BRANCH  26  31
ATOM     27  C   UNL     1      -0.018   1.503   0.010  0.00  0.00    +0.044 C 
ATOM     28  C   UNL     1       0.002  -0.004   0.002  0.00  0.00    -0.050 A 
ATOM     29  C   UNL     1       0.006  -0.689  -1.199  0.00  0.00    +0.003 A 
ATOM     30  C   UNL     1       0.025  -2.071  -1.206  0.00  0.00    +0.005 A 
ATOM     31  C   UNL     1       0.040  -2.768  -0.013  0.00  0.00    -0.030 A 
ATOM     32  C   UNL     1       0.037  -2.084   1.188  0.00  0.00    +0.005 A 
ATOM     33  C   UNL     1       0.023  -0.702   1.195  0.00  0.00    +0.003 A 
ENDBRANCH  26  31
ENDBRANCH  22  26
ENDBRANCH  20  23
ENDBRANCH  19  20
ENDBRANCH   1  19
TORSDOF 8
