REMARK  Name = ZINC49671224
REMARK  4 active torsions:
REMARK  status: ('A' for Active; 'I' for Inactive)
REMARK    1  A    between atoms: C_5  and  C_7
REMARK    2  A    between atoms: C_7  and  C_8
REMARK    3  A    between atoms: C_10  and  C_13
REMARK    4  A    between atoms: C_18  and  N_19
REMARK                            x       y       z     vdW  Elec       q    Type
REMARK                         _______ _______ _______ _____ _____    ______ ____
ROOT
ATOM      1  C   UNL     1       1.318  -2.708   1.427  0.00  0.00    +0.176 A 
ATOM      2  N   UNL     1       2.479  -3.001   2.015  0.00  0.00    -0.191 NA
ATOM      3  C   UNL     1       2.276  -3.338   3.270  0.00  0.00    +0.260 A 
ATOM      4  O   UNL     1       0.954  -3.265   3.510  0.00  0.00    -0.333 OA
ATOM      5  N   UNL     1       0.354  -2.847   2.293  0.00  0.00    -0.061 NA
ENDROOT
BRANCH   3   6
ATOM      6  C   UNL     1       3.314  -3.728   4.243  0.00  0.00    +0.063 A 
ATOM      7  C   UNL     1       4.476  -2.964   4.374  0.00  0.00    +0.053 A 
ATOM      8  C   UNL     1       5.443  -3.334   5.286  0.00  0.00    +0.124 A 
ATOM      9  C   UNL     1       5.266  -4.462   6.075  0.00  0.00    +0.040 A 
ATOM     10  C   UNL     1       4.122  -5.225   5.955  0.00  0.00    +0.026 A 
ATOM     11  C   UNL     1       3.136  -4.864   5.046  0.00  0.00    +0.037 A 
ATOM     12  F   UNL     1       6.567  -2.595   5.412  0.00  0.00    -0.205 F 
BRANCH  11  13
ATOM     13  N   UNL     1       1.979  -5.629   4.929  0.00  0.00    -0.357 N 
ATOM     14  H   UNL     1       1.336  -5.432   4.230  0.00  0.00    +0.142 HD
ATOM     15  H   UNL     1       1.816  -6.359   5.547  0.00  0.00    +0.142 HD
ENDBRANCH  11  13
ENDBRANCH   3   6
BRANCH   1  16
ATOM     16  C   UNL     1       1.148  -2.280  -0.007  0.00  0.00    +0.117 C 
BRANCH  16  21
ATOM     17  C   UNL     1       0.182   1.367  -0.162  0.00  0.00    +0.000 A 
ATOM     18  C   UNL     1       1.418   1.977  -0.265  0.00  0.00    +0.003 A 
ATOM     19  C   UNL     1       2.568   1.211  -0.285  0.00  0.00    +0.038 A 
ATOM     20  C   UNL     1       2.482  -0.168  -0.201  0.00  0.00    +0.127 A 
ATOM     21  C   UNL     1       1.243  -0.778  -0.098  0.00  0.00    -0.005 A 
ATOM     22  C   UNL     1       0.095  -0.010  -0.078  0.00  0.00    +0.007 A 
ATOM     23  F   UNL     1       3.605  -0.918  -0.221  0.00  0.00    -0.205 F 
ENDBRANCH  16  21
ENDBRANCH   1  16
TORSDOF 4
