REMARK  Name = ZINC34787921
REMARK  5 active torsions:
REMARK  status: ('A' for Active; 'I' for Inactive)
REMARK    1  A    between atoms: C_1  and  C_2
REMARK    2  A    between atoms: C_7  and  C_8
REMARK    3  A    between atoms: N_17  and  C_18
REMARK    4  A    between atoms: C_18  and  C_19
REMARK    5  A    between atoms: C_28  and  C_30
REMARK                            x       y       z     vdW  Elec       q    Type
REMARK                         _______ _______ _______ _____ _____    ______ ____
ROOT
ATOM      1  C   UNL     1      -1.055  -1.908   2.274  0.00  0.00    +0.020 C 
ENDROOT
BRANCH   1   2
ATOM      2  C   UNL     1      -1.222  -2.685   3.554  0.00  0.00    +0.199 C 
ATOM      3  O   UNL     1      -0.256  -2.925   4.248  0.00  0.00    -0.278 OA
ATOM      4  N   UNL     1      -2.444  -3.114   3.928  0.00  0.00    -0.301 N 
ATOM      5  C   UNL     1      -2.638  -3.844   5.132  0.00  0.00    +0.109 C 
ATOM      6  C   UNL     1      -2.369  -5.380   5.013  0.00  0.00    +0.038 C 
ATOM      7  C   UNL     1      -2.899  -5.837   3.614  0.00  0.00    +0.109 C 
ATOM      8  N   UNL     1      -4.103  -5.204   3.201  0.00  0.00    -0.296 N 
ATOM      9  C   UNL     1      -3.973  -4.023   2.308  0.00  0.00    +0.127 C 
ATOM     10  C   UNL     1      -3.648  -2.838   3.103  0.00  0.00    +0.126 C 
ATOM     11  C   UNL     1      -5.308  -5.654   3.602  0.00  0.00    +0.247 C 
ATOM     12  O   UNL     1      -5.381  -6.558   4.411  0.00  0.00    -0.270 OA
BRANCH  11  13
ATOM     13  C   UNL     1      -6.542  -5.050   3.057  0.00  0.00    +0.037 A 
ATOM     14  C   UNL     1      -7.557  -5.864   2.552  0.00  0.00    +0.014 A 
ATOM     15  C   UNL     1      -8.706  -5.294   2.045  0.00  0.00    +0.021 A 
ATOM     16  C   UNL     1      -8.853  -3.917   2.036  0.00  0.00    +0.041 A 
ATOM     17  C   UNL     1      -7.849  -3.104   2.535  0.00  0.00    +0.021 A 
ATOM     18  C   UNL     1      -6.698  -3.662   3.050  0.00  0.00    +0.014 A 
ATOM     19 CL   UNL     1     -10.302  -3.206   1.395  0.00  0.00    -0.084 Cl
ENDBRANCH  11  13
ENDBRANCH   1   2
BRANCH   1  28
ATOM     20  C   UNL     1       0.536  -0.908   0.790  0.00  0.00    -0.005 C 
ATOM     21  C   UNL     1       1.987  -0.458   0.655  0.00  0.00    -0.047 A 
ATOM     22  C   UNL     1       2.602  -0.166  -0.560  0.00  0.00    +0.010 A 
ATOM     23  C   UNL     1       3.898   0.226  -0.586  0.00  0.00    +0.045 A 
ATOM     24  S   UNL     1       4.325   0.202   1.150  0.00  0.00    -0.101 S 
ATOM     25  C   UNL     1       2.754  -0.323   1.773  0.00  0.00    -0.010 A 
ATOM     26  C   UNL     1       2.321  -0.572   3.181  0.00  0.00    +0.024 C 
ATOM     27  C   UNL     1       0.785  -0.669   3.183  0.00  0.00    -0.072 C 
ATOM     28  N   UNL     1       0.361  -1.559   2.094  0.00  0.00    +0.393 N 
ATOM     29  H   UNL     1       0.916  -2.402   2.121  0.00  0.00    -0.080 HD
BRANCH  20  36
ATOM     30  C   UNL     1      -0.499   0.054  -1.730  0.00  0.00    +0.044 C 
ATOM     31  C   UNL     1      -0.290  -1.423  -1.516  0.00  0.00    -0.049 A 
ATOM     32  C   UNL     1      -0.589  -2.317  -2.527  0.00  0.00    +0.003 A 
ATOM     33  C   UNL     1      -0.397  -3.672  -2.331  0.00  0.00    +0.000 A 
ATOM     34  C   UNL     1       0.093  -4.133  -1.123  0.00  0.00    +0.000 A 
ATOM     35  C   UNL     1       0.393  -3.239  -0.112  0.00  0.00    +0.002 A 
ATOM     36  C   UNL     1       0.205  -1.883  -0.310  0.00  0.00    -0.054 A 
ENDBRANCH  20  36
ENDBRANCH   1  28
TORSDOF 4
