REMARK  Name = ZINC03307926
REMARK  7 active torsions:
REMARK  status: ('A' for Active; 'I' for Inactive)
REMARK    1  A    between atoms: C_1  and  C_2
REMARK    2  A    between atoms: C_5  and  C_8
REMARK    3  A    between atoms: C_14  and  C_16
REMARK    4  A    between atoms: C_16  and  S_17
REMARK    5  A    between atoms: S_17  and  C_18
REMARK    6  A    between atoms: N_31  and  C_32
REMARK    7  A    between atoms: C_32  and  C_33
REMARK                            x       y       z     vdW  Elec       q    Type
REMARK                         _______ _______ _______ _____ _____    ______ ____
ROOT
ATOM      1  S   UNL     1       1.744   3.502   0.003  0.00  0.00    -0.076 S 
ENDROOT
BRANCH   1   2
ATOM      2  C   UNL     1       1.224   1.819   0.000  0.00  0.00    +0.198 A 
ATOM      3  N   UNL     1      -0.017   1.396   0.010  0.00  0.00    -0.120 NA
ATOM      4  N   UNL     1       0.002  -0.004   0.002  0.00  0.00    -0.109 NA
ATOM      5  C   UNL     1       1.256  -0.396  -0.012  0.00  0.00    +0.240 A 
ATOM      6  N   UNL     1       2.044   0.723  -0.014  0.00  0.00    -0.256 N 
ATOM      7  C   UNL     1       3.433   0.612  -0.027  0.00  0.00    +0.064 A 
ATOM      8  C   UNL     1       4.239   1.739  -0.029  0.00  0.00    +0.027 A 
ATOM      9  C   UNL     1       5.613   1.601  -0.043  0.00  0.00    +0.002 A 
ATOM     10  C   UNL     1       6.195   0.343  -0.055  0.00  0.00    +0.001 A 
ATOM     11  C   UNL     1       5.408  -0.789  -0.053  0.00  0.00    +0.015 A 
ATOM     12  C   UNL     1       4.020  -0.662  -0.039  0.00  0.00    +0.064 A 
ATOM     13  C   UNL     1       3.144  -1.848  -0.037  0.00  0.00    +0.263 A 
ATOM     14  O   UNL     1       3.618  -2.968  -0.047  0.00  0.00    -0.267 OA
ATOM     15  N   UNL     1       1.807  -1.669  -0.024  0.00  0.00    -0.273 N 
BRANCH  15  16
ATOM     16  C   UNL     1       0.923  -2.837  -0.021  0.00  0.00    +0.155 C 
BRANCH  16  17
ATOM     17  C   UNL     1       0.606  -3.230  -1.441  0.00  0.00    -0.013 C 
ATOM     18  C   UNL     1       0.841  -4.452  -1.851  0.00  0.00    +0.005 C 
ENDBRANCH  16  17
ENDBRANCH  15  16
ENDBRANCH   1   2
BRANCH   1  19
ATOM     19  C   UNL     1       0.192   4.441   0.023  0.00  0.00    +0.173 C 
BRANCH  19  26
ATOM     20  C   UNL     1      -0.612  10.447   0.061  0.00  0.00    +0.080 A 
ATOM     21  C   UNL     1       0.736  10.677   0.050  0.00  0.00    +0.076 A 
ATOM     22  S   UNL     1       1.359   9.001   0.042  0.00  0.00    -0.060 S 
ATOM     23  C   UNL     1      -0.226   8.174   0.046  0.00  0.00    +0.165 A 
ATOM     24  N   UNL     1      -1.058   9.199   0.059  0.00  0.00    -0.225 NA
ATOM     25  N   UNL     1      -0.508   6.814   0.042  0.00  0.00    -0.264 N 
ATOM     26  C   UNL     1       0.498   5.917   0.027  0.00  0.00    +0.229 C 
ATOM     27  O   UNL     1       1.649   6.298   0.018  0.00  0.00    -0.275 OA
ATOM     28  H   UNL     1      -1.429   6.509   0.049  0.00  0.00    +0.157 HD
BRANCH  20  33
ATOM     29  C   UNL     1      -4.314  14.857   0.120  0.00  0.00    +0.044 C 
ATOM     30  C   UNL     1      -3.345  13.703   0.105  0.00  0.00    -0.050 A 
ATOM     31  C   UNL     1      -3.821  12.404   0.102  0.00  0.00    +0.004 A 
ATOM     32  C   UNL     1      -2.938  11.343   0.088  0.00  0.00    +0.010 A 
ATOM     33  C   UNL     1      -1.565  11.582   0.077  0.00  0.00    +0.001 A 
ATOM     34  C   UNL     1      -1.091  12.893   0.086  0.00  0.00    +0.010 A 
ATOM     35  C   UNL     1      -1.983  13.946   0.093  0.00  0.00    +0.004 A 
ENDBRANCH  20  33
ENDBRANCH  19  26
ENDBRANCH   1  19
TORSDOF 6
