REMARK  Name = ZINC36342357
REMARK  9 active torsions:
REMARK  status: ('A' for Active; 'I' for Inactive)
REMARK    1  A    between atoms: C_1  and  C_2
REMARK    2  A    between atoms: C_5  and  C_9
REMARK    3  A    between atoms: C_7  and  C_8
REMARK    4  A    between atoms: C_12  and  C_15
REMARK    5  A    between atoms: C_22  and  C_24
REMARK    6  A    between atoms: C_24  and  N_25
REMARK    7  A    between atoms: N_25  and  C_26
REMARK    8  A    between atoms: N_25  and  C_29
REMARK    9  A    between atoms: C_26  and  C_27
REMARK                            x       y       z     vdW  Elec       q    Type
REMARK                         _______ _______ _______ _____ _____    ______ ____
ROOT
ATOM      1  C   UNL     1      -1.443  -3.803   1.229  0.00  0.00    +0.069 C 
ATOM      2  N   UNL     1      -1.137  -4.744   2.054  0.00  0.00    -0.181 NA
ATOM      3  N   UNL     1      -0.621  -5.887   1.448  0.00  0.00    -0.187 N 
ATOM      4  C   UNL     1      -0.576  -5.675  -0.007  0.00  0.00    +0.139 C 
ATOM      5  C   UNL     1      -1.142  -4.252  -0.183  0.00  0.00    +0.087 C 
ATOM      6  C   UNL     1      -0.227  -7.005   2.090  0.00  0.00    +0.219 C 
ATOM      7  O   UNL     1       0.209  -7.945   1.459  0.00  0.00    -0.276 OA
ENDROOT
BRANCH   1  12
ATOM      8  C   UNL     1      -3.641   1.307   2.690  0.00  0.00    +0.044 C 
ATOM      9  C   UNL     1      -3.065  -0.032   2.308  0.00  0.00    -0.048 A 
ATOM     10  C   UNL     1      -2.832  -0.326   0.976  0.00  0.00    +0.004 A 
ATOM     11  C   UNL     1      -2.305  -1.550   0.618  0.00  0.00    +0.010 A 
ATOM     12  C   UNL     1      -2.006  -2.493   1.604  0.00  0.00    -0.002 A 
ATOM     13  C   UNL     1      -2.243  -2.189   2.947  0.00  0.00    +0.013 A 
ATOM     14  C   UNL     1      -2.765  -0.959   3.290  0.00  0.00    -0.047 A 
ATOM     15  C   UNL     1      -3.016  -0.627   4.739  0.00  0.00    +0.044 C 
ENDBRANCH   1  12
BRANCH   4  16
ATOM     16  C   UNL     1      -1.446  -6.681  -0.717  0.00  0.00    +0.010 A 
ATOM     17  C   UNL     1      -2.494  -7.283  -0.047  0.00  0.00    +0.008 A 
ATOM     18  C   UNL     1      -3.291  -8.206  -0.698  0.00  0.00    +0.000 A 
ATOM     19  C   UNL     1      -3.042  -8.527  -2.019  0.00  0.00    +0.003 A 
ATOM     20  C   UNL     1      -1.995  -7.925  -2.691  0.00  0.00    +0.039 A 
ATOM     21  C   UNL     1      -1.198  -6.997  -2.042  0.00  0.00    +0.128 A 
ATOM     22  F   UNL     1      -0.177  -6.405  -2.699  0.00  0.00    -0.205 F 
ENDBRANCH   4  16
BRANCH   6  23
ATOM     23  C   UNL     1      -0.329  -7.088   3.591  0.00  0.00    +0.021 C 
BRANCH  23  24
ATOM     24  N   UNL     1       0.031  -8.442   4.033  0.00  0.00    +0.390 N 
ATOM     25  H   UNL     1      -0.087  -8.512   5.032  0.00  0.00    -0.080 HD
BRANCH  24  26
ATOM     26  C   UNL     1      -0.838  -9.421   3.367  0.00  0.00    -0.068 C 
ATOM     27  C   UNL     1      -2.318  -9.099   3.659  0.00  0.00    -0.015 C 
ATOM     28  C   UNL     1      -2.987 -10.489   3.807  0.00  0.00    -0.002 C 
ATOM     29  C   UNL     1      -1.904 -11.312   4.546  0.00  0.00    -0.002 C 
ATOM     30  C   UNL     1      -0.574 -10.829   3.931  0.00  0.00    -0.015 C 
ENDBRANCH  24  26
BRANCH  24  31
ATOM     31  C   UNL     1       1.432  -8.713   3.685  0.00  0.00    -0.051 C 
BRANCH  31  32
ATOM     32  C   UNL     1       2.333  -7.811   4.488  0.00  0.00    -0.053 C 
ATOM     33  C   UNL     1       3.288  -8.325   5.224  0.00  0.00    +0.002 C 
ENDBRANCH  31  32
ENDBRANCH  24  31
ENDBRANCH  23  24
ENDBRANCH   6  23
TORSDOF 7
