REMARK  Name = ZINC39776836
REMARK  6 active torsions:
REMARK  status: ('A' for Active; 'I' for Inactive)
REMARK    1  A    between atoms: C_1  and  C_2
REMARK    2  A    between atoms: C_2  and  C_4
REMARK    3  A    between atoms: C_2  and  S_19
REMARK    4  A    between atoms: C_9  and  C_14
REMARK    5  A    between atoms: S_19  and  C_20
REMARK    6  A    between atoms: N_25  and  C_26
REMARK                            x       y       z     vdW  Elec       q    Type
REMARK                         _______ _______ _______ _____ _____    ______ ____
ROOT
ATOM      1  C   UNL     1       0.731  -0.503   1.223  0.00  0.00    +0.136 C 
ATOM      2  N   UNL     1       1.749  -1.318   1.063  0.00  0.00    -0.160 NA
ATOM      3  C   UNL     1       2.440  -1.799   2.101  0.00  0.00    +0.272 C 
ATOM      4  O   UNL     1       3.383  -2.555   1.929  0.00  0.00    -0.268 OA
ATOM      5  C   UNL     1       2.032  -1.390   3.473  0.00  0.00    +0.076 C 
ATOM      6  C   UNL     1       2.614  -1.774   4.673  0.00  0.00    -0.009 C 
ATOM      7  C   UNL     1       1.999  -1.209   5.934  0.00  0.00    +0.113 C 
ATOM      8  S   UNL     1       0.642  -0.180   5.242  0.00  0.00    -0.100 S 
ATOM      9  C   UNL     1       0.919  -0.508   3.518  0.00  0.00    +0.112 C 
ATOM     10  N   UNL     1       0.326  -0.101   2.415  0.00  0.00    -0.226 NA
ENDROOT
BRANCH   6  11
ATOM     11  C   UNL     1       3.712  -2.640   4.715  0.00  0.00    +0.017 A 
ATOM     12  C   UNL     1       5.018  -2.390   5.156  0.00  0.00    +0.016 A 
ATOM     13  C   UNL     1       5.881  -3.448   5.072  0.00  0.00    +0.008 A 
ATOM     14  C   UNL     1       5.430  -4.636   4.582  0.00  0.00    +0.046 A 
ATOM     15  S   UNL     1       3.813  -4.352   4.226  0.00  0.00    -0.097 S 
ENDBRANCH   6  11
BRANCH   1  17
ATOM     16  C   UNL     1      -0.019   1.526   0.010  0.00  0.00    +0.027 C 
ATOM     17  C   UNL     1       0.002  -0.004   0.002  0.00  0.00    +0.112 C 
BRANCH  17  18
ATOM     18  S   UNL     1       0.851  -0.589  -1.490  0.00  0.00    -0.106 S 
BRANCH  18  19
ATOM     19  C   UNL     1      -0.220  -0.041  -2.848  0.00  0.00    +0.255 C 
ATOM     20  N   UNL     1      -0.434   1.417  -2.788  0.00  0.00    -0.218 N 
ATOM     21  N   UNL     1      -1.811   1.595  -2.610  0.00  0.00    -0.063 NA
ATOM     22  N   UNL     1      -2.423   0.532  -2.557  0.00  0.00    -0.060 NA
ATOM     23  N   UNL     1      -1.582  -0.584  -2.690  0.00  0.00    -0.202 N 
ATOM     24  H   UNL     1       0.241   2.111  -2.857  0.00  0.00    +0.173 HD
BRANCH  23  25
ATOM     25  C   UNL     1      -1.974  -1.996  -2.676  0.00  0.00    +0.097 C 
ATOM     26  C   UNL     1      -3.017  -2.267  -3.779  0.00  0.00    +0.024 C 
ATOM     27  C   UNL     1      -3.986  -3.294  -3.142  0.00  0.00    +0.002 C 
ATOM     28  C   UNL     1      -4.080  -2.811  -1.674  0.00  0.00    +0.002 C 
ATOM     29  C   UNL     1      -2.649  -2.342  -1.337  0.00  0.00    +0.024 C 
ENDBRANCH  23  25
ENDBRANCH  18  19
ENDBRANCH  17  18
ENDBRANCH   1  17
TORSDOF 5
