REMARK  Name = ZINC39899391
REMARK  5 active torsions:
REMARK  status: ('A' for Active; 'I' for Inactive)
REMARK    1  A    between atoms: C_3  and  S_24
REMARK    2  A    between atoms: C_4  and  N_21
REMARK    3  A    between atoms: C_6  and  N_7
REMARK    4  A    between atoms: C_8  and  C_10
REMARK    5  A    between atoms: C_16  and  C_18
REMARK                            x       y       z     vdW  Elec       q    Type
REMARK                         _______ _______ _______ _____ _____    ______ ____
ROOT
ATOM      1  C   UNL     1      -0.314   1.305   0.317  0.00  0.00    +0.025 A 
ATOM      2  C   UNL     1       0.846   1.886   0.793  0.00  0.00    +0.034 A 
ATOM      3  C   UNL     1       1.997   1.131   0.922  0.00  0.00    +0.150 A 
ATOM      4  C   UNL     1       1.992  -0.207   0.575  0.00  0.00    +0.155 A 
ATOM      5  C   UNL     1       0.836  -0.795   0.099  0.00  0.00    +0.058 A 
ATOM      6  C   UNL     1      -0.322  -0.039  -0.031  0.00  0.00    +0.036 A 
ENDROOT
BRANCH   6   7
ATOM      7  N   UNL     1      -1.494  -0.631  -0.513  0.00  0.00    -0.285 N 
ATOM      8  C   UNL     1      -2.337   0.078  -1.291  0.00  0.00    +0.221 C 
ATOM      9  O   UNL     1      -2.119   1.251  -1.508  0.00  0.00    -0.275 OA
ATOM     10  H   UNL     1      -1.701  -1.552  -0.288  0.00  0.00    +0.155 HD
BRANCH   8  11
ATOM     11  C   UNL     1      -3.550  -0.587  -1.889  0.00  0.00    +0.093 C 
ATOM     12  C   UNL     1      -4.782   0.292  -1.665  0.00  0.00    +0.040 C 
ATOM     13  C   UNL     1      -4.697   1.526  -2.516  0.00  0.00    -0.030 C 
ATOM     14  C   UNL     1      -3.907   1.653  -3.533  0.00  0.00    -0.030 C 
ATOM     15  C   UNL     1      -2.957   0.588  -3.998  0.00  0.00    +0.042 C 
ATOM     16  C   UNL     1      -3.346  -0.769  -3.398  0.00  0.00    +0.118 C 
BRANCH  16  17
ATOM     17  C   UNL     1      -2.249  -1.773  -3.644  0.00  0.00    +0.360 C 
ATOM     18  O   UNL     1      -2.359  -2.590  -4.543  0.00  0.00    -0.246 OA
ATOM     19  O   UNL     1      -1.251  -1.769  -2.943  0.00  0.00    -0.246 OA
ENDBRANCH  16  17
ENDBRANCH   8  11
ENDBRANCH   6   7
BRANCH   3  20
ATOM     20  S   UNL     1       3.473   1.877   1.529  0.00  0.00    +0.142 S 
ATOM     21  O   UNL     1       3.551   1.566   2.948  0.00  0.00    -0.140 OA
ATOM     22  O   UNL     1       4.578   1.294   0.784  0.00  0.00    -0.140 OA
ATOM     23  O   UNL     1       3.353   3.307   1.292  0.00  0.00    -0.043 OA
ENDBRANCH   3  20
BRANCH   4  24
ATOM     24  N   UNL     1       3.227  -1.012   0.714  0.00  0.00    +0.058 N 
ATOM     25  O   UNL     1       3.515  -1.827  -0.131  0.00  0.00    -0.126 OA
ATOM     26  O   UNL     1       3.947  -0.853   1.672  0.00  0.00    -0.126 OA
ENDBRANCH   4  24
TORSDOF 5
