REMARK  Name = ZINC43384845
REMARK  5 active torsions:
REMARK  status: ('A' for Active; 'I' for Inactive)
REMARK    1  A    between atoms: C_1  and  C_2
REMARK    2  A    between atoms: N_7  and  C_8
REMARK    3  A    between atoms: N_10  and  C_11
REMARK    4  A    between atoms: C_11  and  C_12
REMARK    5  A    between atoms: C_15  and  O_18
REMARK                            x       y       z     vdW  Elec       q    Type
REMARK                         _______ _______ _______ _____ _____    ______ ____
ROOT
ATOM      1  C   UNL     1       0.256  -4.858  -0.027  0.00  0.00    +0.326 C 
ATOM      2  O   UNL     1      -0.952  -4.691  -0.021  0.00  0.00    -0.251 OA
ATOM      3  N   UNL     1       0.763  -6.107  -0.036  0.00  0.00    -0.294 N 
ATOM      4  H   UNL     1       1.724  -6.240  -0.041  0.00  0.00    +0.151 HD
ENDROOT
BRANCH   1  11
ATOM      5  C   UNL     1      -0.018   1.503   0.010  0.00  0.00    +0.053 C 
ATOM      6  C   UNL     1       0.002  -0.004   0.002  0.00  0.00    +0.006 A 
ATOM      7  C   UNL     1      -1.025  -0.859   0.002  0.00  0.00    +0.095 A 
ATOM      8  N   UNL     1      -0.732  -2.188  -0.007  0.00  0.00    -0.342 N 
ATOM      9  H   UNL     1      -1.440  -2.851  -0.008  0.00  0.00    +0.167 HD
ATOM     10  C   UNL     1       0.575  -2.571  -0.014  0.00  0.00    +0.165 A 
ATOM     11  N   UNL     1       1.076  -3.804  -0.024  0.00  0.00    -0.139 NA
ATOM     12  S   UNL     1       1.403  -1.107  -0.018  0.00  0.00    -0.058 S 
ENDBRANCH   1  11
BRANCH   3  13
ATOM     13  C   UNL     1      -0.137  -7.263  -0.040  0.00  0.00    +0.141 C 
BRANCH  13  14
ATOM     14  C   UNL     1       0.675  -8.532  -0.051  0.00  0.00    -0.030 A 
ATOM     15  C   UNL     1       1.048  -9.103  -1.254  0.00  0.00    +0.009 A 
ATOM     16  C   UNL     1       1.792 -10.267  -1.266  0.00  0.00    +0.046 A 
ATOM     17  C   UNL     1       2.167 -10.862  -0.071  0.00  0.00    +0.117 A 
ATOM     18  C   UNL     1       1.793 -10.287   1.135  0.00  0.00    +0.046 A 
ATOM     19  C   UNL     1       1.053  -9.120   1.142  0.00  0.00    +0.009 A 
BRANCH  17  20
ATOM     20  O   UNL     1       2.899 -12.007  -0.081  0.00  0.00    -0.507 OA
ATOM     21  H   UNL     1       3.855 -11.863  -0.080  0.00  0.00    +0.292 HD
ENDBRANCH  17  20
ENDBRANCH  13  14
ENDBRANCH   3  13
TORSDOF 4
