REMARK  Name = ZINC09312840
REMARK  15 active torsions:
REMARK  status: ('A' for Active; 'I' for Inactive)
REMARK    1  A    between atoms: C_1  and  C_2
REMARK    2  A    between atoms: C_2  and  N_71
REMARK    3  A    between atoms: C_3  and  C_4
REMARK    4  A    between atoms: C_3  and  N_71
REMARK    5  A    between atoms: C_5  and  C_6
REMARK    6  A    between atoms: C_5  and  N_71
REMARK    7  A    between atoms: C_6  and  C_7
REMARK    8  A    between atoms: C_7  and  N_8
REMARK    9  A    between atoms: C_9  and  C_29
REMARK   10  A    between atoms: C_12  and  C_13
REMARK   11  A    between atoms: C_12  and  O_24
REMARK   12  A    between atoms: C_20  and  C_23
REMARK   13  A    between atoms: C_32  and  C_35
REMARK   14  A    between atoms: C_35  and  O_37
REMARK   15  A    between atoms: O_37  and  C_38
REMARK                            x       y       z     vdW  Elec       q    Type
REMARK                         _______ _______ _______ _____ _____    ______ ____
ROOT
ATOM      1  N   UNL     1      -0.958  -8.184   4.612  0.00  0.00    -0.284 N 
ATOM      2  C   UNL     1      -1.724  -7.204   3.838  0.00  0.00    +0.144 C 
ATOM      3  C   UNL     1      -0.856  -5.972   3.720  0.00  0.00    +0.071 C 
ATOM      4  C   UNL     1      -1.170  -4.794   3.069  0.00  0.00    +0.133 C 
ATOM      5  C   UNL     1       0.331  -6.263   4.409  0.00  0.00    +0.249 C 
ATOM      6  O   UNL     1       1.281  -5.514   4.543  0.00  0.00    -0.282 OA
ATOM      7  C   UNL     1       0.227  -7.646   4.947  0.00  0.00    +0.288 C 
ATOM      8  O   UNL     1       1.087  -8.207   5.595  0.00  0.00    -0.266 OA
ENDROOT
BRANCH   4   9
ATOM      9  C   UNL     1      -0.212  -3.679   3.063  0.00  0.00    +0.017 A 
ATOM     10  C   UNL     1       1.093  -3.871   2.591  0.00  0.00    +0.015 A 
ATOM     11  C   UNL     1       1.988  -2.829   2.591  0.00  0.00    +0.046 A 
ATOM     12  C   UNL     1       1.608  -1.569   3.061  0.00  0.00    +0.124 A 
ATOM     13  C   UNL     1       0.307  -1.381   3.522  0.00  0.00    -0.002 A 
ATOM     14  C   UNL     1      -0.595  -2.415   3.530  0.00  0.00    +0.019 A 
ATOM     15  C   UNL     1       0.189   0.074   3.934  0.00  0.00    +0.083 C 
ATOM     16  C   UNL     1       1.438   0.697   3.267  0.00  0.00    +0.175 C 
ATOM     17  O   UNL     1       2.332  -0.422   3.155  0.00  0.00    -0.488 OA
ATOM     18  C   UNL     1       2.041   1.786   4.155  0.00  0.00    +0.052 C 
ENDBRANCH   4   9
BRANCH   2  19
ATOM     19  C   UNL     1      -3.006  -6.864   4.553  0.00  0.00    -0.022 A 
ATOM     20  C   UNL     1      -3.015  -6.747   5.932  0.00  0.00    +0.006 A 
ATOM     21  C   UNL     1      -4.184  -6.431   6.593  0.00  0.00    +0.015 A 
ATOM     22  C   UNL     1      -5.362  -6.241   5.868  0.00  0.00    +0.059 A 
ATOM     23  C   UNL     1      -5.347  -6.367   4.478  0.00  0.00    +0.015 A 
ATOM     24  C   UNL     1      -4.170  -6.678   3.829  0.00  0.00    +0.006 A 
BRANCH  22  25
ATOM     25  C   UNL     1      -6.619  -5.908   6.570  0.00  0.00    +0.339 C 
ATOM     26  O   UNL     1      -7.643  -5.743   5.936  0.00  0.00    -0.245 OA
BRANCH  25  27
ATOM     27  O   UNL     1      -6.630  -5.788   7.911  0.00  0.00    -0.464 OA
ATOM     28  C   UNL     1      -7.900  -5.459   8.533  0.00  0.00    +0.280 C 
ENDBRANCH  25  27
ENDBRANCH  22  25
ENDBRANCH   2  19
BRANCH   4  29
ATOM     29  O   UNL     1      -2.357  -4.668   2.439  0.00  0.00    -0.506 OA
ATOM     30  H   UNL     1      -2.420  -3.759   2.025  0.00  0.00    +0.292 HD
ENDBRANCH   4  29
BRANCH   1  31
ATOM     31  C   UNL     1      -1.412  -9.531   4.968  0.00  0.00    +0.107 C 
BRANCH  31  32
ATOM     32  C   UNL     1      -2.149  -9.482   6.308  0.00  0.00    +0.000 C 
BRANCH  32  33
ATOM     33  C   UNL     1      -2.624 -10.889   6.680  0.00  0.00    -0.077 C 
BRANCH  33  34
ATOM     34  N   UNL     1      -3.356 -10.817   7.962  0.00  0.00    +0.379 N 
ATOM     35  H   UNL     1      -2.856 -10.185   8.597  0.00  0.00    -0.082 HD
BRANCH  34  37
ATOM     36  C   UNL     1      -5.373 -10.018   9.092  0.00  0.00    -0.017 C 
ATOM     37  C   UNL     1      -4.720 -10.292   7.736  0.00  0.00    -0.082 C 
ENDBRANCH  34  37
BRANCH  34  38
ATOM     38  C   UNL     1      -3.428 -12.159   8.578  0.00  0.00    -0.082 C 
ATOM     39  C   UNL     1      -2.066 -12.490   9.191  0.00  0.00    -0.017 C 
ENDBRANCH  34  38
ENDBRANCH  33  34
ENDBRANCH  32  33
ENDBRANCH  31  32
ENDBRANCH   1  31
TORSDOF 11
