REMARK  Name = ZINC20324283
REMARK  7 active torsions:
REMARK  status: ('A' for Active; 'I' for Inactive)
REMARK    1  A    between atoms: C_1  and  C_2
REMARK    2  A    between atoms: C_3  and  C_27
REMARK    3  A    between atoms: C_4  and  C_20
REMARK    4  A    between atoms: C_10  and  C_15
REMARK    5  A    between atoms: C_27  and  O_29
REMARK    6  A    between atoms: O_29  and  C_30
REMARK    7  A    between atoms: C_30  and  C_31
REMARK                            x       y       z     vdW  Elec       q    Type
REMARK                         _______ _______ _______ _____ _____    ______ ____
ROOT
ATOM      1  C   UNL     1      -1.129   3.090  -3.105  0.00  0.00    +0.061 C 
ATOM      2  C   UNL     1      -0.336   2.622  -1.912  0.00  0.00    +0.016 C 
ATOM      3  C   UNL     1      -0.772   1.575  -1.190  0.00  0.00    +0.065 C 
ATOM      4  C   UNL     1      -0.013   1.086   0.008  0.00  0.00    +0.092 C 
ATOM      5  C   UNL     1       1.405   1.600  -0.003  0.00  0.00    +0.024 C 
ATOM      6  C   UNL     1       1.750   2.654  -0.773  0.00  0.00    +0.016 C 
ATOM      7  N   UNL     1       0.821   3.265  -1.571  0.00  0.00    -0.321 N 
ATOM      8  C   UNL     1       3.163   3.182  -0.779  0.00  0.00    +0.062 C 
ATOM      9  C   UNL     1       4.141   2.036  -0.510  0.00  0.00    +0.068 C 
ATOM     10  C   UNL     1       3.789   1.402   0.839  0.00  0.00    +0.091 C 
ATOM     11  C   UNL     1       2.353   0.953   0.808  0.00  0.00    +0.162 C 
ATOM     12  O   UNL     1       2.007   0.014   1.497  0.00  0.00    -0.292 OA
ATOM     13  H   UNL     1       1.012   4.284  -1.938  0.00  0.00    +0.152 HD
ENDROOT
BRANCH   4  14
ATOM     14  C   UNL     1      -0.703   1.564   1.259  0.00  0.00    -0.034 A 
ATOM     15  C   UNL     1      -0.842   2.919   1.497  0.00  0.00    +0.004 A 
ATOM     16  C   UNL     1      -1.480   3.359   2.642  0.00  0.00    +0.001 A 
ATOM     17  C   UNL     1      -1.970   2.444   3.554  0.00  0.00    +0.015 A 
ATOM     18  C   UNL     1      -1.827   1.088   3.319  0.00  0.00    +0.018 A 
ATOM     19  C   UNL     1      -1.193   0.649   2.171  0.00  0.00    +0.019 A 
ATOM     20 BR   UNL     1      -2.498  -0.164   4.568  0.00  0.00    -0.050 Br
ENDBRANCH   4  14
BRANCH   9  21
ATOM     21  C   UNL     1       5.549   2.572  -0.465  0.00  0.00    +0.109 A 
ATOM     22  C   UNL     1       6.558   2.204  -1.276  0.00  0.00    +0.045 A 
ATOM     23  C   UNL     1       7.691   2.953  -0.885  0.00  0.00    +0.041 A 
ATOM     24  C   UNL     1       7.308   3.734   0.141  0.00  0.00    +0.195 A 
ATOM     25  O   UNL     1       6.008   3.503   0.387  0.00  0.00    -0.468 OA
ENDBRANCH   9  21
BRANCH   3  26
ATOM     26  C   UNL     1      -1.968   0.922  -1.568  0.00  0.00    +0.338 C 
ATOM     27  O   UNL     1      -2.593   1.309  -2.538  0.00  0.00    -0.245 OA
BRANCH  26  28
ATOM     28  O   UNL     1      -2.417  -0.131  -0.852  0.00  0.00    -0.459 OA
BRANCH  28  29
ATOM     29  C   UNL     1      -3.632  -0.743  -1.290  0.00  0.00    +0.264 C 
BRANCH  29  30
ATOM     30  C   UNL     1      -3.979  -1.909  -0.363  0.00  0.00    +0.156 C 
ATOM     31  C   UNL     1      -5.243  -2.640  -0.868  0.00  0.00    +0.037 C 
ATOM     32  C   UNL     1      -5.994  -3.027   0.425  0.00  0.00    +0.031 C 
ATOM     33  C   UNL     1      -5.095  -2.485   1.558  0.00  0.00    +0.160 C 
ATOM     34  O   UNL     1      -4.332  -1.420   0.949  0.00  0.00    -0.373 OA
ENDBRANCH  29  30
ENDBRANCH  28  29
ENDBRANCH  26  28
ENDBRANCH   3  26
TORSDOF 6
