REMARK  Name = ZINC13495920
REMARK  16 active torsions:
REMARK  status: ('A' for Active; 'I' for Inactive)
REMARK    1  A    between atoms: C_1  and  C_2
REMARK    2  A    between atoms: C_2  and  C_3
REMARK    3  A    between atoms: C_3  and  C_5
REMARK    4  A    between atoms: C_3  and  N_74
REMARK    5  A    between atoms: N_9  and  C_10
REMARK    6  A    between atoms: C_10  and  C_11
REMARK    7  A    between atoms: C_10  and  C_12
REMARK    8  A    between atoms: C_10  and  C_13
REMARK    9  A    between atoms: C_13  and  C_14
REMARK   10  A    between atoms: C_15  and  C_16
REMARK   11  A    between atoms: C_15  and  N_74
REMARK   12  A    between atoms: C_16  and  C_17
REMARK   13  A    between atoms: C_21  and  C_23
REMARK   14  A    between atoms: C_24  and  C_25
REMARK   15  A    between atoms: C_24  and  N_74
REMARK   16  A    between atoms: C_31  and  C_37
REMARK                            x       y       z     vdW  Elec       q    Type
REMARK                         _______ _______ _______ _____ _____    ______ ____
ROOT
ATOM      1  N   UNL     1      -0.106   7.391  -1.646  0.00  0.00    +0.389 N 
ATOM      2  H   UNL     1      -0.915   7.416  -1.014  0.00  0.00    -0.080 HD
ENDROOT
BRANCH   1   3
ATOM      3  C   UNL     1       0.997   8.170  -1.046  0.00  0.00    +0.003 C 
BRANCH   3   4
ATOM      4  C   UNL     1       0.844   8.140   0.453  0.00  0.00    +0.139 A 
ATOM      5  N   UNL     1       0.403   7.139   1.175  0.00  0.00    -0.115 NA
ATOM      6  N   UNL     1       0.422   7.501   2.411  0.00  0.00    -0.023 NA
ATOM      7  N   UNL     1       0.864   8.707   2.497  0.00  0.00    -0.043 NA
ATOM      8  N   UNL     1       1.141   9.133   1.312  0.00  0.00    -0.225 N 
BRANCH   8   9
ATOM      9  C   UNL     1       1.674  10.453   0.964  0.00  0.00    +0.061 C 
ATOM     10  C   UNL     1       2.931  10.286   0.108  0.00  0.00    +0.036 C 
ATOM     11  C   UNL     1       0.622  11.238   0.178  0.00  0.00    +0.036 C 
BRANCH   9  12
ATOM     12  C   UNL     1       2.026  11.214   2.244  0.00  0.00    +0.026 C 
ATOM     13  C   UNL     1       2.478  12.631   1.887  0.00  0.00    +0.006 C 
ENDBRANCH   9  12
ENDBRANCH   8   9
ENDBRANCH   3   4
BRANCH   3  15
ATOM     14  C   UNL     1       2.563   7.721  -2.940  0.00  0.00    +0.002 C 
ATOM     15  C   UNL     1       2.348   7.566  -1.433  0.00  0.00    -0.011 C 
ENDBRANCH   3  15
ENDBRANCH   1   3
BRANCH   1  16
ATOM     16  C   UNL     1       0.312   5.986  -1.835  0.00  0.00    -0.073 C 
BRANCH  16  17
ATOM     17  C   UNL     1       0.435   5.320  -0.464  0.00  0.00    +0.016 C 
BRANCH  17  18
ATOM     18  C   UNL     1       0.705   3.848  -0.642  0.00  0.00    -0.049 A 
ATOM     19  C   UNL     1       2.007   3.389  -0.725  0.00  0.00    +0.003 A 
ATOM     20  C   UNL     1       2.254   2.039  -0.890  0.00  0.00    +0.001 A 
ATOM     21  C   UNL     1       1.200   1.148  -0.972  0.00  0.00    +0.003 A 
ATOM     22  C   UNL     1      -0.101   1.607  -0.894  0.00  0.00    -0.050 A 
ATOM     23  C   UNL     1      -0.348   2.957  -0.725  0.00  0.00    +0.007 A 
ATOM     24  C   UNL     1      -1.250   0.637  -0.990  0.00  0.00    +0.044 C 
ENDBRANCH  17  18
ENDBRANCH  16  17
ENDBRANCH   1  16
BRANCH   1  25
ATOM     25  C   UNL     1      -0.494   7.982  -2.944  0.00  0.00    -0.037 C 
BRANCH  25  26
ATOM     26  C   UNL     1      -1.284   9.239  -2.687  0.00  0.00    +0.001 A 
ATOM     27  C   UNL     1      -0.690  10.450  -2.825  0.00  0.00    +0.017 A 
ATOM     28  C   UNL     1      -1.486  11.652  -2.571  0.00  0.00    -0.001 A 
ATOM     29  C   UNL     1      -0.930  12.929  -2.702  0.00  0.00    +0.010 A 
ATOM     30  C   UNL     1      -1.698  14.031  -2.454  0.00  0.00    +0.001 A 
ATOM     31  C   UNL     1      -3.026  13.895  -2.073  0.00  0.00    +0.005 A 
ATOM     32  C   UNL     1      -3.595  12.647  -1.938  0.00  0.00    -0.026 A 
ATOM     33  C   UNL     1      -2.832  11.511  -2.185  0.00  0.00    +0.052 A 
ATOM     34  N   UNL     1      -3.375  10.250  -2.058  0.00  0.00    -0.322 N 
ATOM     35  H   UNL     1      -4.303  10.154  -1.791  0.00  0.00    +0.169 HD
ATOM     36  C   UNL     1      -2.638   9.152  -2.297  0.00  0.00    +0.251 A 
ATOM     37  O   UNL     1      -3.151   8.053  -2.175  0.00  0.00    -0.268 OA
ATOM     38  C   UNL     1      -5.037  12.514  -1.522  0.00  0.00    +0.046 C 
ENDBRANCH  25  26
ENDBRANCH   1  25
TORSDOF 10
