REMARK  Name = ZINC09303331
REMARK  8 active torsions:
REMARK  status: ('A' for Active; 'I' for Inactive)
REMARK    1  A    between atoms: C_1  and  O_2
REMARK    2  A    between atoms: O_2  and  C_3
REMARK    3  A    between atoms: C_3  and  C_5
REMARK    4  A    between atoms: C_9  and  N_10
REMARK    5  A    between atoms: C_11  and  C_13
REMARK    6  A    between atoms: C_13  and  N_68
REMARK    7  A    between atoms: C_16  and  O_32
REMARK    8  A    between atoms: C_23  and  C_25
REMARK                            x       y       z     vdW  Elec       q    Type
REMARK                         _______ _______ _______ _____ _____    ______ ____
ROOT
ATOM      1  C   UNL     1      -3.173   4.338  -5.301  0.00  0.00    -0.075 C 
ATOM      2  C   UNL     1      -4.357   4.886  -6.101  0.00  0.00    +0.016 C 
ATOM      3  C   UNL     1      -4.003   4.882  -7.590  0.00  0.00    +0.066 C 
ATOM      4  C   UNL     1      -5.201   5.383  -8.397  0.00  0.00    +0.035 C 
ATOM      5  C   UNL     1      -6.401   4.459  -8.182  0.00  0.00    +0.003 C 
ATOM      6  C   UNL     1      -6.037   3.043  -8.633  0.00  0.00    +0.000 C 
ATOM      7  C   UNL     1      -4.853   2.535  -7.809  0.00  0.00    +0.005 C 
ATOM      8  C   UNL     1      -3.649   3.456  -8.020  0.00  0.00    +0.011 C 
ATOM      9  C   UNL     1      -2.478   2.955  -7.168  0.00  0.00    -0.031 C 
ATOM     10  N   UNL     1      -2.888   2.957  -5.747  0.00  0.00    +0.390 N 
ATOM     11  H   UNL     1      -3.740   2.392  -5.646  0.00  0.00    -0.080 HD
ENDROOT
BRANCH   9  12
ATOM     12  C   UNL     1      -2.128   1.547  -7.575  0.00  0.00    -0.060 A 
ATOM     13  C   UNL     1      -2.877   0.485  -7.103  0.00  0.00    +0.005 A 
ATOM     14  C   UNL     1      -2.559  -0.806  -7.478  0.00  0.00    +0.038 A 
ATOM     15  C   UNL     1      -1.484  -1.038  -8.320  0.00  0.00    +0.123 A 
ATOM     16  C   UNL     1      -0.732   0.026  -8.788  0.00  0.00    +0.038 A 
ATOM     17  C   UNL     1      -1.054   1.317  -8.415  0.00  0.00    +0.005 A 
ATOM     18  F   UNL     1      -1.170  -2.300  -8.684  0.00  0.00    -0.205 F 
ENDBRANCH   9  12
BRANCH   3  19
ATOM     19  O   UNL     1      -2.879   5.737  -7.810  0.00  0.00    -0.388 OA
ATOM     20  H   UNL     1      -3.031   6.659  -7.560  0.00  0.00    +0.210 HD
ENDBRANCH   3  19
BRANCH  10  21
ATOM     21  C   UNL     1      -1.820   2.368  -4.914  0.00  0.00    +0.020 C 
BRANCH  21  23
ATOM     22  N   UNL     1       0.490   2.901  -4.209  0.00  0.00    -0.281 N 
ATOM     23  C   UNL     1      -0.568   3.203  -4.987  0.00  0.00    +0.201 C 
ATOM     24  O   UNL     1      -0.513   4.148  -5.746  0.00  0.00    -0.278 OA
ATOM     25  H   UNL     1       0.446   2.146  -3.602  0.00  0.00    +0.155 HD
BRANCH  22  30
ATOM     26  C   UNL     1       2.823   3.519  -3.562  0.00  0.00    +0.091 A 
ATOM     27  C   UNL     1       3.889   4.472  -3.819  0.00  0.00    -0.021 A 
ATOM     28  C   UNL     1       3.610   5.411  -4.749  0.00  0.00    -0.004 A 
ATOM     29  S   UNL     1       1.957   5.052  -5.272  0.00  0.00    -0.077 S 
ATOM     30  C   UNL     1       1.642   3.670  -4.276  0.00  0.00    +0.086 A 
ATOM     31  C   UNL     1       4.508   6.513  -5.218  0.00  0.00    +0.043 C 
ATOM     32  C   UNL     1       5.671   6.646  -4.224  0.00  0.00    +0.005 C 
ATOM     33  C   UNL     1       6.243   5.253  -3.945  0.00  0.00    +0.005 C 
ATOM     34  C   UNL     1       5.245   4.436  -3.124  0.00  0.00    +0.037 C 
BRANCH  26  35
ATOM     35  C   UNL     1       2.986   2.442  -2.583  0.00  0.00    +0.342 C 
ATOM     36  O   UNL     1       3.426   1.363  -2.933  0.00  0.00    -0.245 OA
BRANCH  35  38
ATOM     37  C   UNL     1       2.827   1.533  -0.380  0.00  0.00    +0.280 C 
ATOM     38  O   UNL     1       2.644   2.646  -1.294  0.00  0.00    -0.464 OA
ENDBRANCH  35  38
ENDBRANCH  26  35
ENDBRANCH  22  30
ENDBRANCH  21  23
ENDBRANCH  10  21
TORSDOF 7
