REMARK  Name = ZINC59170617
REMARK  6 active torsions:
REMARK  status: ('A' for Active; 'I' for Inactive)
REMARK    1  A    between atoms: C_1  and  C_2
REMARK    2  A    between atoms: C_9  and  C_23
REMARK    3  A    between atoms: N_11  and  C_12
REMARK    4  A    between atoms: C_15  and  S_18
REMARK    5  A    between atoms: S_18  and  N_21
REMARK    6  A    between atoms: N_25  and  C_26
REMARK                            x       y       z     vdW  Elec       q    Type
REMARK                         _______ _______ _______ _____ _____    ______ ____
ROOT
ATOM      1  C   UNL     1      -1.292   1.236   0.067  0.00  0.00    +0.044 C 
ATOM      2  C   UNL     1      -0.809  -0.190   0.006  0.00  0.00    -0.050 A 
ATOM      3  C   UNL     1      -0.087  -0.625  -1.096  0.00  0.00    +0.007 A 
ATOM      4  C   UNL     1       0.363  -1.928  -1.173  0.00  0.00    +0.047 A 
ATOM      5  C   UNL     1       0.094  -2.812  -0.139  0.00  0.00    +0.137 A 
ATOM      6  C   UNL     1      -0.635  -2.368   0.980  0.00  0.00    +0.018 A 
ATOM      7  C   UNL     1      -1.080  -1.042   1.039  0.00  0.00    +0.015 A 
ATOM      8  C   UNL     1      -0.910  -3.301   2.075  0.00  0.00    +0.030 A 
ATOM      9  C   UNL     1      -0.209  -4.500   2.083  0.00  0.00    +0.098 A 
ATOM     10  C   UNL     1       0.750  -4.725   0.984  0.00  0.00    +0.212 A 
ATOM     11  N   UNL     1       1.793  -5.511   1.144  0.00  0.00    -0.325 N 
ATOM     12  O   UNL     1       0.524  -4.096  -0.198  0.00  0.00    -0.439 OA
ATOM     13  H   UNL     1       1.998  -5.872   2.021  0.00  0.00    +0.169 HD
ENDROOT
BRANCH  11  14
ATOM     14  C   UNL     1       2.588  -5.819   0.075  0.00  0.00    +0.042 A 
ATOM     15  C   UNL     1       2.013  -6.175  -1.148  0.00  0.00    +0.027 A 
ATOM     16  C   UNL     1       2.821  -6.484  -2.222  0.00  0.00    +0.030 A 
ATOM     17  C   UNL     1       4.198  -6.442  -2.091  0.00  0.00    +0.105 A 
ATOM     18  C   UNL     1       4.774  -6.092  -0.882  0.00  0.00    +0.030 A 
ATOM     19  C   UNL     1       3.979  -5.775   0.199  0.00  0.00    +0.027 A 
BRANCH  17  20
ATOM     20  S   UNL     1       5.222  -6.839  -3.468  0.00  0.00    +0.056 S 
ATOM     21  O   UNL     1       6.473  -7.256  -2.938  0.00  0.00    -0.153 OA
ATOM     22  O   UNL     1       4.446  -7.663  -4.328  0.00  0.00    -0.153 OA
BRANCH  20  23
ATOM     23  N   UNL     1       5.503  -5.429  -4.291  0.00  0.00    -0.204 NA
ATOM     24  H   UNL     1       5.119  -4.598  -3.974  0.00  0.00    +0.144 HD
ATOM     25  H   UNL     1       6.053  -5.436  -5.090  0.00  0.00    +0.144 HD
ENDBRANCH  20  23
ENDBRANCH  17  20
ENDBRANCH  11  14
BRANCH   9  26
ATOM     26  C   UNL     1      -0.414  -5.503   3.142  0.00  0.00    +0.253 C 
ATOM     27  O   UNL     1      -1.116  -5.241   4.100  0.00  0.00    -0.270 OA
ATOM     28  N   UNL     1       0.177  -6.710   3.049  0.00  0.00    -0.280 N 
ATOM     29  H   UNL     1       0.780  -6.901   2.313  0.00  0.00    +0.155 HD
BRANCH  28  30
ATOM     30  C   UNL     1      -0.079  -7.690   4.014  0.00  0.00    +0.054 A 
ATOM     31  C   UNL     1      -0.414  -7.320   5.310  0.00  0.00    +0.044 A 
ATOM     32  C   UNL     1      -0.667  -8.290   6.261  0.00  0.00    +0.043 A 
ATOM     33  C   UNL     1      -0.586  -9.630   5.923  0.00  0.00    +0.021 A 
ATOM     34  C   UNL     1      -0.253 -10.002   4.634  0.00  0.00    +0.023 A 
ATOM     35  C   UNL     1      -0.004  -9.036   3.677  0.00  0.00    +0.062 A 
ATOM     36 CL   UNL     1       0.408  -9.505   2.057  0.00  0.00    -0.082 Cl
ATOM     37 CL   UNL     1      -1.085  -7.828   7.881  0.00  0.00    -0.083 Cl
ENDBRANCH  28  30
ENDBRANCH   9  26
TORSDOF 5
