REMARK  Name = ZINC09086149
REMARK  14 active torsions:
REMARK  status: ('A' for Active; 'I' for Inactive)
REMARK    1  A    between atoms: C_1  and  C_2
REMARK    2  A    between atoms: C_2  and  O_3
REMARK    3  A    between atoms: O_3  and  C_4
REMARK    4  A    between atoms: C_6  and  C_11
REMARK    5  A    between atoms: C_9  and  O_10
REMARK    6  A    between atoms: C_13  and  C_14
REMARK    7  A    between atoms: C_14  and  C_15
REMARK    8  A    between atoms: C_18  and  O_22
REMARK    9  A    between atoms: C_20  and  C_21
REMARK   10  A    between atoms: O_22  and  C_23
REMARK   11  A    between atoms: C_23  and  C_24
REMARK   12  A    between atoms: C_23  and  C_25
REMARK   13  A    between atoms: N_31  and  C_32
REMARK   14  A    between atoms: C_32  and  C_33
REMARK                            x       y       z     vdW  Elec       q    Type
REMARK                         _______ _______ _______ _____ _____    ______ ____
ROOT
ATOM      1  C   UNL     1       1.004  -3.733  -0.083  0.00  0.00    +0.145 C 
ATOM      2  C   UNL     1       1.034  -4.672  -1.266  0.00  0.00    +0.076 C 
ATOM      3  C   UNL     1       0.365  -5.788  -0.896  0.00  0.00    +0.249 C 
ATOM      4  O   UNL     1       0.165  -6.877  -1.674  0.00  0.00    -0.282 OA
ATOM      5  C   UNL     1      -0.112  -5.630   0.494  0.00  0.00    +0.288 C 
ATOM      6  O   UNL     1      -0.746  -6.461   1.113  0.00  0.00    -0.266 OA
ATOM      7  N   UNL     1       0.260  -4.429   0.973  0.00  0.00    -0.279 N 
ENDROOT
BRANCH   1  10
ATOM      8  C   UNL     1       0.374  -0.098  -0.897  0.00  0.00    +0.162 A 
ATOM      9  C   UNL     1       1.019  -1.276  -0.555  0.00  0.00    +0.055 A 
ATOM     10  C   UNL     1       0.301  -2.453  -0.456  0.00  0.00    -0.019 A 
ATOM     11  C   UNL     1      -1.060  -2.459  -0.698  0.00  0.00    +0.009 A 
ATOM     12  C   UNL     1      -1.709  -1.288  -1.040  0.00  0.00    +0.049 A 
ATOM     13  C   UNL     1      -0.997  -0.103  -1.135  0.00  0.00    +0.158 A 
BRANCH  13  14
ATOM     14  O   UNL     1      -1.636   1.051  -1.466  0.00  0.00    -0.503 OA
ATOM     15  H   UNL     1      -1.671   1.223  -2.417  0.00  0.00    +0.292 HD
ENDBRANCH  13  14
BRANCH   8  16
ATOM     16  O   UNL     1       1.078   1.062  -0.994  0.00  0.00    -0.489 OA
BRANCH  16  18
ATOM     17  C   UNL     1       3.105   2.376  -0.915  0.00  0.00    +0.048 C 
ATOM     18  C   UNL     1       2.496   0.974  -0.842  0.00  0.00    +0.226 C 
ENDBRANCH  16  18
ENDBRANCH   8  16
ENDBRANCH   1  10
BRANCH   2  19
ATOM     19  C   UNL     1       1.667  -4.422  -2.566  0.00  0.00    +0.195 C 
ATOM     20  O   UNL     1       2.217  -3.358  -2.780  0.00  0.00    -0.287 OA
BRANCH  19  21
ATOM     21  C   UNL     1       1.635  -5.462  -3.614  0.00  0.00    +0.025 A 
ATOM     22  C   UNL     1       0.763  -5.337  -4.699  0.00  0.00    +0.015 A 
ATOM     23  C   UNL     1       0.737  -6.308  -5.674  0.00  0.00    +0.046 A 
ATOM     24  C   UNL     1       1.578  -7.412  -5.581  0.00  0.00    +0.121 A 
ATOM     25  C   UNL     1       2.447  -7.540  -4.503  0.00  0.00    +0.049 A 
ATOM     26  C   UNL     1       2.483  -6.570  -3.527  0.00  0.00    -0.036 A 
ATOM     27  C   UNL     1       3.430  -6.707  -2.362  0.00  0.00    +0.044 C 
BRANCH  24  28
ATOM     28  O   UNL     1       1.550  -8.367  -6.545  0.00  0.00    -0.489 OA
BRANCH  28  29
ATOM     29  C   UNL     1       0.556  -8.233  -7.562  0.00  0.00    +0.167 C 
ATOM     30  C   UNL     1       1.058  -7.273  -8.643  0.00  0.00    +0.051 C 
ATOM     31  C   UNL     1       0.276  -9.602  -8.186  0.00  0.00    +0.051 C 
ENDBRANCH  28  29
ENDBRANCH  24  28
ENDBRANCH  19  21
ENDBRANCH   2  19
BRANCH   7  32
ATOM     32  C   UNL     1      -0.027  -3.908   2.312  0.00  0.00    +0.145 C 
BRANCH  32  33
ATOM     33  C   UNL     1      -1.336  -3.163   2.291  0.00  0.00    -0.012 A 
ATOM     34  C   UNL     1      -1.367  -1.806   2.006  0.00  0.00    +0.008 A 
ATOM     35  C   UNL     1      -2.595  -1.161   1.998  0.00  0.00    +0.020 A 
ATOM     36  C   UNL     1      -3.739  -1.887   2.272  0.00  0.00    +0.111 A 
ATOM     37  N   UNL     1      -3.671  -3.177   2.539  0.00  0.00    -0.263 NA
ATOM     38  C   UNL     1      -2.522  -3.824   2.549  0.00  0.00    +0.115 A 
ENDBRANCH  32  33
ENDBRANCH   7  32
TORSDOF 10
