REMARK  Name = ZINC13031720
REMARK  11 active torsions:
REMARK  status: ('A' for Active; 'I' for Inactive)
REMARK    1  A    between atoms: C_1  and  C_2
REMARK    2  A    between atoms: C_2  and  C_3
REMARK    3  A    between atoms: C_2  and  C_4
REMARK    4  A    between atoms: C_4  and  C_5
REMARK    5  A    between atoms: C_5  and  N_6
REMARK    6  A    between atoms: C_7  and  C_9
REMARK    7  A    between atoms: C_9  and  C_11
REMARK    8  A    between atoms: C_9  and  N_16
REMARK    9  A    between atoms: N_16  and  C_17
REMARK   10  A    between atoms: C_27  and  C_29
REMARK   11  A    between atoms: C_29  and  N_30
REMARK                            x       y       z     vdW  Elec       q    Type
REMARK                         _______ _______ _______ _____ _____    ______ ____
ROOT
ATOM      1  N   UNL     1       4.231  -0.436  -1.908  0.00  0.00    -0.253 N 
ATOM      2  C   UNL     1       4.832   0.156  -0.857  0.00  0.00    +0.242 C 
ATOM      3  O   UNL     1       5.385  -0.519  -0.015  0.00  0.00    -0.273 OA
ENDROOT
BRANCH   1   4
ATOM      4  C   UNL     1       3.676   0.345  -2.930  0.00  0.00    +0.041 A 
ATOM      5  C   UNL     1       4.279   0.384  -4.180  0.00  0.00    +0.027 A 
ATOM      6  C   UNL     1       3.734   1.156  -5.187  0.00  0.00    +0.051 A 
ATOM      7  C   UNL     1       2.583   1.894  -4.954  0.00  0.00    +0.162 A 
ATOM      8  C   UNL     1       1.975   1.855  -3.704  0.00  0.00    +0.164 A 
ATOM      9  C   UNL     1       2.524   1.082  -2.693  0.00  0.00    +0.073 A 
ATOM     10  O   UNL     1       0.841   2.566  -3.459  0.00  0.00    -0.485 OA
ATOM     11  C   UNL     1       0.530   3.620  -4.378  0.00  0.00    +0.270 C 
ATOM     12  C   UNL     1       0.706   3.081  -5.804  0.00  0.00    +0.270 C 
ATOM     13  O   UNL     1       2.065   2.656  -5.957  0.00  0.00    -0.485 OA
ENDBRANCH   1   4
BRANCH   1  14
ATOM     14  C   UNL     1       4.157  -1.897  -1.981  0.00  0.00    +0.204 C 
BRANCH  14  15
ATOM     15  C   UNL     1       2.825  -2.305  -2.556  0.00  0.00    +0.019 A 
ATOM     16  C   UNL     1       2.023  -3.340  -2.203  0.00  0.00    +0.013 A 
ATOM     17  C   UNL     1       0.830  -3.523  -2.877  0.00  0.00    +0.008 A 
ATOM     18  C   UNL     1       0.497  -2.664  -3.870  0.00  0.00    +0.045 A 
ATOM     19  S   UNL     1       1.889  -1.545  -3.873  0.00  0.00    -0.099 S 
ENDBRANCH  14  15
BRANCH  14  21
ATOM     20  N   UNL     1       5.393  -3.737  -3.079  0.00  0.00    -0.313 N 
ATOM     21  C   UNL     1       5.264  -2.413  -2.864  0.00  0.00    +0.239 C 
ATOM     22  O   UNL     1       6.038  -1.636  -3.382  0.00  0.00    -0.273 OA
ATOM     23  H   UNL     1       4.774  -4.358  -2.666  0.00  0.00    +0.149 HD
BRANCH  20  24
ATOM     24  C   UNL     1       6.469  -4.238  -3.938  0.00  0.00    +0.104 C 
BRANCH  24  25
ATOM     25  C   UNL     1       6.392  -5.764  -4.015  0.00  0.00    +0.022 C 
BRANCH  25  27
ATOM     26  C   UNL     1       8.869  -5.982  -4.265  0.00  0.00    +0.007 C 
ATOM     27  C   UNL     1       7.516  -6.287  -4.912  0.00  0.00    -0.016 C 
ATOM     28  C   UNL     1       7.365  -7.799  -5.089  0.00  0.00    +0.007 C 
ENDBRANCH  25  27
ENDBRANCH  24  25
ENDBRANCH  20  24
ENDBRANCH  14  21
ENDBRANCH   1  14
BRANCH   2  29
ATOM     29  C   UNL     1       4.818   1.658  -0.729  0.00  0.00    +0.242 C 
BRANCH  29  30
ATOM     30  N   UNL     1       6.159   2.184  -0.997  0.00  0.00    -0.235 N 
ATOM     31  C   UNL     1       7.158   2.395  -0.077  0.00  0.00    +0.090 A 
ATOM     32  C   UNL     1       7.266   2.198   1.296  0.00  0.00    +0.029 A 
ATOM     33  C   UNL     1       8.432   2.509   1.937  0.00  0.00    +0.002 A 
ATOM     34  C   UNL     1       9.514   3.016   1.230  0.00  0.00    +0.002 A 
ATOM     35  C   UNL     1       9.436   3.213  -0.118  0.00  0.00    +0.032 A 
ATOM     36  C   UNL     1       8.252   2.902  -0.800  0.00  0.00    +0.113 A 
ATOM     37  N   UNL     1       7.884   2.986  -2.094  0.00  0.00    -0.129 NA
ATOM     38  N   UNL     1       6.673   2.576  -2.241  0.00  0.00    -0.064 NA
ENDBRANCH  29  30
ENDBRANCH   2  29
TORSDOF 9
