REMARK  Name = ZINC36345943
REMARK  14 active torsions:
REMARK  status: ('A' for Active; 'I' for Inactive)
REMARK    1  A    between atoms: C_1  and  C_2
REMARK    2  A    between atoms: C_5  and  O_8
REMARK    3  A    between atoms: O_8  and  C_9
REMARK    4  A    between atoms: C_10  and  C_21
REMARK    5  A    between atoms: C_11  and  C_20
REMARK    6  A    between atoms: N_13  and  C_14
REMARK    7  A    between atoms: C_21  and  N_22
REMARK    8  A    between atoms: N_22  and  C_23
REMARK    9  A    between atoms: N_22  and  C_27
REMARK   10  A    between atoms: C_23  and  C_24
REMARK   11  A    between atoms: C_27  and  C_28
REMARK   12  A    between atoms: C_28  and  C_30
REMARK   13  A    between atoms: C_28  and  O_37
REMARK   14  A    between atoms: C_30  and  C_31
REMARK                            x       y       z     vdW  Elec       q    Type
REMARK                         _______ _______ _______ _____ _____    ______ ____
ROOT
ATOM      1  C   UNL     1       0.123  -4.524   0.889  0.00  0.00    +0.225 A 
ATOM      2  C   UNL     1       0.221  -5.791   1.372  0.00  0.00    +0.021 A 
ATOM      3  C   UNL     1       0.513  -5.710   2.737  0.00  0.00    +0.065 A 
ATOM      4  N   UNL     1       0.590  -4.446   3.069  0.00  0.00    -0.168 NA
ATOM      5  N   UNL     1       0.355  -3.673   1.925  0.00  0.00    -0.200 N 
ATOM      6  C   UNL     1       0.706  -6.879   3.667  0.00  0.00    +0.068 C 
ENDROOT
BRANCH   5   7
ATOM      7  C   UNL     1       0.355  -2.273   1.860  0.00  0.00    +0.069 A 
ATOM      8  C   UNL     1       0.962  -1.626   0.792  0.00  0.00    +0.028 A 
ATOM      9  C   UNL     1       0.961  -0.246   0.731  0.00  0.00    +0.002 A 
ATOM     10  C   UNL     1       0.355   0.491   1.731  0.00  0.00    +0.000 A 
ATOM     11  C   UNL     1      -0.252  -0.150   2.796  0.00  0.00    +0.002 A 
ATOM     12  C   UNL     1      -0.258  -1.530   2.860  0.00  0.00    +0.028 A 
ENDBRANCH   5   7
BRANCH   1  13
ATOM     13  O   UNL     1      -0.150  -4.172  -0.393  0.00  0.00    -0.438 OA
BRANCH  13  18
ATOM     14  C   UNL     1      -5.491  -2.985  -1.730  0.00  0.00    +0.044 C 
ATOM     15  C   UNL     1      -4.062  -3.302  -1.372  0.00  0.00    -0.050 A 
ATOM     16  C   UNL     1      -3.060  -3.125  -2.309  0.00  0.00    +0.007 A 
ATOM     17  C   UNL     1      -1.749  -3.415  -1.984  0.00  0.00    +0.046 A 
ATOM     18  C   UNL     1      -1.438  -3.885  -0.716  0.00  0.00    +0.130 A 
ATOM     19  C   UNL     1      -2.445  -4.062   0.223  0.00  0.00    +0.046 A 
ATOM     20  C   UNL     1      -3.754  -3.765  -0.106  0.00  0.00    +0.007 A 
ENDBRANCH  13  18
ENDBRANCH   1  13
BRANCH   2  21
ATOM     21  C   UNL     1       0.044  -7.059   0.577  0.00  0.00    -0.036 C 
BRANCH  21  22
ATOM     22  N   UNL     1       1.341  -7.477   0.028  0.00  0.00    +0.384 N 
ATOM     23  H   UNL     1       1.724  -6.732  -0.534  0.00  0.00    -0.081 HD
BRANCH  22  24
ATOM     24  C   UNL     1       2.263  -7.784   1.130  0.00  0.00    -0.075 C 
BRANCH  24  25
ATOM     25  C   UNL     1       3.634  -8.152   0.560  0.00  0.00    -0.028 C 
ATOM     26  C   UNL     1       4.127  -9.585   0.774  0.00  0.00    +0.002 C 
ATOM     27  C   UNL     1       4.761  -8.433   1.556  0.00  0.00    +0.002 C 
ENDBRANCH  24  25
ENDBRANCH  22  24
BRANCH  22  28
ATOM     28  C   UNL     1       1.158  -8.674  -0.804  0.00  0.00    -0.046 C 
BRANCH  28  29
ATOM     29  C   UNL     1       0.347  -8.310  -2.049  0.00  0.00    +0.102 C 
BRANCH  29  30
ATOM     30  O   UNL     1      -1.000  -8.017  -1.672  0.00  0.00    -0.393 OA
ATOM     31  H   UNL     1      -1.456  -8.751  -1.239  0.00  0.00    +0.210 HD
ENDBRANCH  29  30
BRANCH  29  32
ATOM     32  C   UNL     1       0.357  -9.488  -3.027  0.00  0.00    +0.064 C 
BRANCH  32  33
ATOM     33  C   UNL     1      -0.336  -9.087  -4.303  0.00  0.00    -0.045 A 
ATOM     34  C   UNL     1      -1.698  -9.278  -4.439  0.00  0.00    +0.004 A 
ATOM     35  C   UNL     1      -2.334  -8.911  -5.611  0.00  0.00    +0.000 A 
ATOM     36  C   UNL     1      -1.608  -8.351  -6.645  0.00  0.00    +0.000 A 
ATOM     37  C   UNL     1      -0.246  -8.159  -6.508  0.00  0.00    +0.000 A 
ATOM     38  C   UNL     1       0.390  -8.522  -5.336  0.00  0.00    +0.004 A 
ENDBRANCH  32  33
ENDBRANCH  29  32
ENDBRANCH  28  29
ENDBRANCH  22  28
ENDBRANCH  21  22
ENDBRANCH   2  21
TORSDOF 12
