REMARK  Name = ZINC38787653
REMARK  5 active torsions:
REMARK  status: ('A' for Active; 'I' for Inactive)
REMARK    1  A    between atoms: C_1  and  C_2
REMARK    2  A    between atoms: C_5  and  C_29
REMARK    3  A    between atoms: C_8  and  C_10
REMARK    4  A    between atoms: C_12  and  C_23
REMARK    5  A    between atoms: C_34  and  O_35
REMARK                            x       y       z     vdW  Elec       q    Type
REMARK                         _______ _______ _______ _____ _____    ______ ____
ROOT
ATOM      1  C   UNL     1      -0.058  -0.563  -4.916  0.00  0.00    +0.152 C 
ATOM      2  C   UNL     1      -0.262   0.939  -4.962  0.00  0.00    -0.014 C 
ATOM      3  C   UNL     1       0.738   1.696  -5.577  0.00  0.00    +0.002 A 
ATOM      4  C   UNL     1       0.629   3.100  -5.663  0.00  0.00    +0.030 A 
ATOM      5  C   UNL     1       1.618   3.814  -6.267  0.00  0.00    +0.042 A 
ATOM      6  C   UNL     1       2.740   3.186  -6.805  0.00  0.00    +0.022 A 
ATOM      7  C   UNL     1       2.901   1.835  -6.752  0.00  0.00    +0.025 A 
ATOM      8  C   UNL     1       1.919   1.034  -6.142  0.00  0.00    +0.041 A 
ATOM      9  N   UNL     1       2.079  -0.293  -6.091  0.00  0.00    -0.284 N 
ATOM     10  C   UNL     1       1.206  -1.111  -5.537  0.00  0.00    +0.230 C 
ATOM     11  O   UNL     1       1.419  -2.309  -5.527  0.00  0.00    -0.274 OA
ATOM     12 CL   UNL     1       1.479   5.542  -6.370  0.00  0.00    -0.084 Cl
ATOM     13  H   UNL     1       2.881  -0.674  -6.481  0.00  0.00    +0.155 HD
ENDROOT
BRANCH   1  20
ATOM     14  C   UNL     1      -0.120   1.288   0.034  0.00  0.00    +0.111 C 
ATOM     15  C   UNL     1      -0.130  -0.217  -0.038  0.00  0.00    +0.232 C 
ATOM     16  O   UNL     1      -0.147  -0.873   0.982  0.00  0.00    -0.274 OA
ATOM     17  N   UNL     1      -0.118  -0.835  -1.236  0.00  0.00    -0.185 N 
ATOM     18  C   UNL     1      -0.131  -2.291  -1.451  0.00  0.00    +0.140 C 
ATOM     19  C   UNL     1      -0.109  -2.422  -2.987  0.00  0.00    +0.083 C 
ATOM     20  C   UNL     1      -0.086  -0.990  -3.471  0.00  0.00    +0.055 C 
ATOM     21  N   UNL     1      -0.098  -0.201  -2.476  0.00  0.00    -0.185 NA
BRANCH  18  22
ATOM     22  C   UNL     1       1.091  -2.929  -0.842  0.00  0.00    +0.017 A 
ATOM     23  C   UNL     1       2.194  -2.157  -0.535  0.00  0.00    +0.009 A 
ATOM     24  C   UNL     1       3.315  -2.742   0.024  0.00  0.00    +0.001 A 
ATOM     25  C   UNL     1       3.335  -4.101   0.277  0.00  0.00    +0.004 A 
ATOM     26  C   UNL     1       2.235  -4.878  -0.027  0.00  0.00    +0.046 A 
ATOM     27  C   UNL     1       1.106  -4.292  -0.583  0.00  0.00    +0.122 A 
BRANCH  27  28
ATOM     28  O   UNL     1       0.019  -5.053  -0.878  0.00  0.00    -0.506 OA
ATOM     29  H   UNL     1       0.029  -5.423  -1.772  0.00  0.00    +0.292 HD
ENDBRANCH  27  28
ENDBRANCH  18  22
ENDBRANCH   1  20
BRANCH   2  30
ATOM     30  C   UNL     1      -1.416   1.547  -4.406  0.00  0.00    -0.020 A 
ATOM     31  C   UNL     1      -1.292   2.464  -3.350  0.00  0.00    +0.008 A 
ATOM     32  C   UNL     1      -2.419   3.049  -2.817  0.00  0.00    +0.001 A 
ATOM     33  C   UNL     1      -3.672   2.736  -3.320  0.00  0.00    +0.000 A 
ATOM     34  C   UNL     1      -3.805   1.833  -4.362  0.00  0.00    +0.001 A 
ATOM     35  C   UNL     1      -2.690   1.241  -4.913  0.00  0.00    +0.008 A 
ENDBRANCH   2  30
TORSDOF 4
