REMARK  Name = ZINC38670998
REMARK  8 active torsions:
REMARK  status: ('A' for Active; 'I' for Inactive)
REMARK    1  A    between atoms: C_1  and  C_2
REMARK    2  A    between atoms: C_5  and  N_8
REMARK    3  A    between atoms: C_10  and  C_15
REMARK    4  A    between atoms: N_17  and  C_18
REMARK    5  A    between atoms: C_18  and  C_19
REMARK    6  A    between atoms: C_19  and  C_21
REMARK    7  A    between atoms: C_19  and  N_32
REMARK    8  A    between atoms: N_30  and  C_31
REMARK                            x       y       z     vdW  Elec       q    Type
REMARK                         _______ _______ _______ _____ _____    ______ ____
ROOT
ATOM      1  C   UNL     1       0.484 -11.254   1.720  0.00  0.00    -0.020 C 
ENDROOT
BRANCH   1   2
ATOM      2  C   UNL     1       1.125 -12.348   2.533  0.00  0.00    -0.059 A 
ATOM      3  C   UNL     1       0.586 -12.706   3.755  0.00  0.00    +0.004 A 
ATOM      4  C   UNL     1       1.174 -13.708   4.501  0.00  0.00    +0.023 A 
ATOM      5  C   UNL     1       2.308 -14.356   4.023  0.00  0.00    +0.033 A 
ATOM      6  C   UNL     1       2.846 -14.000   2.797  0.00  0.00    -0.026 A 
ATOM      7  C   UNL     1       2.248 -12.996   2.054  0.00  0.00    +0.007 A 
ATOM      8  C   UNL     1       4.066 -14.687   2.243  0.00  0.00    +0.038 C 
ATOM      9  C   UNL     1       4.850 -15.370   3.364  0.00  0.00    +0.024 C 
ATOM     10  C   UNL     1       3.890 -16.247   4.178  0.00  0.00    +0.105 C 
ATOM     11  N   UNL     1       2.892 -15.365   4.797  0.00  0.00    -0.333 N 
ATOM     12  C   UNL     1       2.514 -15.539   6.202  0.00  0.00    +0.129 C 
ENDBRANCH   1   2
BRANCH   1  13
ATOM     13  N   UNL     1      -0.978 -11.370   1.808  0.00  0.00    +0.385 N 
ATOM     14  C   UNL     1      -1.395 -12.679   1.292  0.00  0.00    -0.078 C 
ATOM     15  C   UNL     1      -2.908 -12.838   1.457  0.00  0.00    -0.019 C 
ATOM     16  C   UNL     1      -3.620 -11.729   0.677  0.00  0.00    -0.004 C 
ATOM     17  C   UNL     1      -3.122 -10.369   1.173  0.00  0.00    -0.019 C 
ATOM     18  C   UNL     1      -1.601 -10.302   1.019  0.00  0.00    -0.078 C 
ATOM     19  H   UNL     1      -1.263 -11.285   2.772  0.00  0.00    -0.081 HD
ENDBRANCH   1  13
BRANCH   1  20
ATOM     20  C   UNL     1       0.921  -9.892   2.263  0.00  0.00    +0.093 C 
BRANCH  20  23
ATOM     21  C   UNL     1       2.998  -8.670   2.622  0.00  0.00    +0.218 C 
ATOM     22  O   UNL     1       2.361  -7.816   3.201  0.00  0.00    -0.275 OA
ATOM     23  N   UNL     1       2.372  -9.750   2.114  0.00  0.00    -0.316 N 
ATOM     24  H   UNL     1       2.881 -10.433   1.650  0.00  0.00    +0.149 HD
BRANCH  21  27
ATOM     25  N   UNL     1       6.294  -7.543   3.708  0.00  0.00    -0.271 N 
ATOM     26  C   UNL     1       4.988  -7.216   3.125  0.00  0.00    +0.127 C 
ATOM     27  C   UNL     1       4.490  -8.524   2.469  0.00  0.00    +0.101 C 
ATOM     28  C   UNL     1       5.240  -9.595   3.294  0.00  0.00    +0.110 C 
ATOM     29  C   UNL     1       6.463  -8.873   3.815  0.00  0.00    +0.221 C 
ATOM     30  O   UNL     1       7.450  -9.414   4.265  0.00  0.00    -0.275 OA
BRANCH  25  35
ATOM     31  C   UNL     1      10.150  -3.692   5.285  0.00  0.00    +0.044 C 
ATOM     32  C   UNL     1       9.126  -4.715   4.866  0.00  0.00    -0.050 A 
ATOM     33  C   UNL     1       9.355  -6.058   5.103  0.00  0.00    +0.005 A 
ATOM     34  C   UNL     1       8.418  -6.998   4.720  0.00  0.00    +0.024 A 
ATOM     35  C   UNL     1       7.245  -6.593   4.097  0.00  0.00    +0.036 A 
ATOM     36  C   UNL     1       7.017  -5.244   3.861  0.00  0.00    +0.024 A 
ATOM     37  C   UNL     1       7.956  -4.308   4.251  0.00  0.00    +0.005 A 
ENDBRANCH  25  35
ENDBRANCH  21  27
ENDBRANCH  20  23
ENDBRANCH   1  20
TORSDOF 6
