REMARK  Name = ZINC27577922
REMARK  10 active torsions:
REMARK  status: ('A' for Active; 'I' for Inactive)
REMARK    1  A    between atoms: C_1  and  C_2
REMARK    2  A    between atoms: C_2  and  C_3
REMARK    3  A    between atoms: C_3  and  C_4
REMARK    4  A    between atoms: C_8  and  C_31
REMARK    5  A    between atoms: C_9  and  O_10
REMARK    6  A    between atoms: C_14  and  C_15
REMARK    7  A    between atoms: N_23  and  C_24
REMARK    8  A    between atoms: C_24  and  C_25
REMARK    9  A    between atoms: C_31  and  C_32
REMARK   10  A    between atoms: C_32  and  C_33
REMARK                            x       y       z     vdW  Elec       q    Type
REMARK                         _______ _______ _______ _____ _____    ______ ____
ROOT
ATOM      1  C   UNL     1      -1.379  -2.054   0.221  0.00  0.00    -0.005 C 
ATOM      2  C   UNL     1      -0.605  -2.651   1.400  0.00  0.00    -0.065 C 
ATOM      3  N   UNL     1      -0.575  -4.113   1.279  0.00  0.00    +0.395 N 
ATOM      4  C   UNL     1      -1.935  -4.655   1.342  0.00  0.00    -0.065 C 
ATOM      5  C   UNL     1      -2.755  -4.127   0.160  0.00  0.00    -0.005 C 
ATOM      6  C   UNL     1      -2.814  -2.596   0.247  0.00  0.00    +0.126 C 
ATOM      7  C   UNL     1      -2.046  -4.518  -1.143  0.00  0.00    +0.090 C 
ATOM      8  N   UNL     1      -0.681  -3.972  -1.121  0.00  0.00    -0.309 NA
ATOM      9  C   UNL     1      -0.716  -2.487  -1.093  0.00  0.00    +0.090 C 
ATOM     10  C   UNL     1       0.072  -4.504   0.023  0.00  0.00    +0.050 C 
ATOM     11  H   UNL     1      -0.047  -4.493   2.050  0.00  0.00    -0.079 HD
ENDROOT
BRANCH  10  12
ATOM     12  C   UNL     1       1.477  -3.960  -0.006  0.00  0.00    +0.020 A 
ATOM     13  C   UNL     1       2.186  -3.598   1.075  0.00  0.00    +0.031 A 
ATOM     14  C   UNL     1       3.489  -3.131   0.595  0.00  0.00    +0.000 A 
ATOM     15  C   UNL     1       4.633  -2.636   1.223  0.00  0.00    +0.010 A 
ATOM     16  C   UNL     1       5.717  -2.275   0.472  0.00  0.00    +0.001 A 
ATOM     17  C   UNL     1       5.689  -2.397  -0.910  0.00  0.00    +0.002 A 
ATOM     18  C   UNL     1       4.570  -2.883  -1.550  0.00  0.00    +0.026 A 
ATOM     19  C   UNL     1       3.455  -3.256  -0.806  0.00  0.00    +0.050 A 
ATOM     20  N   UNL     1       2.221  -3.768  -1.138  0.00  0.00    -0.340 N 
BRANCH  20  21
ATOM     21  C   UNL     1       1.770  -4.060  -2.501  0.00  0.00    +0.157 C 
BRANCH  21  22
ATOM     22  C   UNL     1       2.024  -5.512  -2.814  0.00  0.00    -0.028 A 
ATOM     23  C   UNL     1       3.268  -5.916  -3.262  0.00  0.00    +0.005 A 
ATOM     24  C   UNL     1       3.501  -7.248  -3.548  0.00  0.00    +0.000 A 
ATOM     25  C   UNL     1       2.490  -8.177  -3.387  0.00  0.00    +0.000 A 
ATOM     26  C   UNL     1       1.246  -7.773  -2.938  0.00  0.00    +0.000 A 
ATOM     27  C   UNL     1       1.015  -6.442  -2.647  0.00  0.00    +0.005 A 
ENDBRANCH  21  22
ENDBRANCH  20  21
ENDBRANCH  10  12
BRANCH   6  28
ATOM     28  O   UNL     1      -3.550  -2.066  -0.857  0.00  0.00    -0.391 OA
ATOM     29  H   UNL     1      -4.467  -2.369  -0.900  0.00  0.00    +0.210 HD
ENDBRANCH   6  28
BRANCH   1  30
ATOM     30  C   UNL     1      -1.394  -0.527   0.322  0.00  0.00    +0.008 C 
BRANCH  30  32
ATOM     31  C   UNL     1       0.028   1.526   0.396  0.00  0.00    +0.004 C 
ATOM     32  C   UNL     1       0.043  -0.001   0.294  0.00  0.00    -0.003 C 
ENDBRANCH  30  32
ENDBRANCH   1  30
BRANCH   5  33
ATOM     33  C   UNL     1      -4.169  -4.709   0.200  0.00  0.00    +0.008 C 
BRANCH  33  34
ATOM     34  C   UNL     1      -4.095  -6.235   0.117  0.00  0.00    -0.003 C 
ATOM     35  C   UNL     1      -5.509  -6.818   0.158  0.00  0.00    +0.004 C 
ENDBRANCH  33  34
ENDBRANCH   5  33
TORSDOF 8
