REMARK  Name = ZINC14751746
REMARK  7 active torsions:
REMARK  status: ('A' for Active; 'I' for Inactive)
REMARK    1  A    between atoms: C_1  and  N_2
REMARK    2  A    between atoms: C_3  and  C_5
REMARK    3  A    between atoms: N_8  and  C_10
REMARK    4  A    between atoms: C_10  and  C_11
REMARK    5  A    between atoms: C_19  and  N_22
REMARK    6  A    between atoms: N_22  and  C_23
REMARK    7  A    between atoms: C_32  and  O_35
REMARK                            x       y       z     vdW  Elec       q    Type
REMARK                         _______ _______ _______ _____ _____    ______ ____
ROOT
ATOM      1  C   UNL     1      -1.052  -2.454  -0.074  0.00  0.00    +0.150 A 
ATOM      2  C   UNL     1      -2.214  -3.243  -0.093  0.00  0.00    +0.004 A 
ATOM      3  C   UNL     1      -1.791  -4.526  -0.214  0.00  0.00    +0.043 A 
ATOM      4  N   UNL     1      -0.449  -4.499  -0.266  0.00  0.00    -0.267 N 
ATOM      5  N   UNL     1      -0.029  -3.283  -0.188  0.00  0.00    -0.166 NA
ATOM      6  C   UNL     1      -2.716  -5.714  -0.269  0.00  0.00    +0.054 C 
ATOM      7  C   UNL     1      -4.095  -5.276   0.241  0.00  0.00    -0.009 C 
ATOM      8  C   UNL     1      -4.527  -3.995  -0.477  0.00  0.00    -0.067 C 
ATOM      9  C   UNL     1      -3.655  -2.824  -0.005  0.00  0.00    +0.023 C 
ENDROOT
BRANCH   1  12
ATOM     10  C   UNL     1       0.273   1.099   0.160  0.00  0.00    +0.128 C 
ATOM     11  N   UNL     1       0.208  -0.359   0.043  0.00  0.00    -0.313 N 
ATOM     12  C   UNL     1      -0.986  -0.983   0.044  0.00  0.00    +0.264 C 
ATOM     13  O   UNL     1      -2.010  -0.335   0.144  0.00  0.00    -0.268 OA
ATOM     14  H   UNL     1       1.025  -0.876  -0.036  0.00  0.00    +0.149 HD
ENDBRANCH   1  12
BRANCH   8  15
ATOM     15  N   UNL     1      -5.936  -3.712  -0.169  0.00  0.00    +0.383 N 
ATOM     16  H   UNL     1      -6.498  -4.519  -0.393  0.00  0.00    -0.085 HD
ATOM     17  H   UNL     1      -6.029  -3.499   0.813  0.00  0.00    -0.085 HD
BRANCH  15  18
ATOM     18  C   UNL     1      -6.390  -2.563  -0.964  0.00  0.00    -0.065 C 
ATOM     19  C   UNL     1      -6.390  -2.938  -2.447  0.00  0.00    -0.022 C 
ATOM     20  C   UNL     1      -6.863  -1.742  -3.276  0.00  0.00    +0.005 C 
ATOM     21  C   UNL     1      -8.279  -1.353  -2.848  0.00  0.00    -0.008 C 
ATOM     22  C   UNL     1      -8.279  -0.978  -1.364  0.00  0.00    +0.005 C 
ATOM     23  C   UNL     1      -7.806  -2.175  -0.536  0.00  0.00    -0.022 C 
ATOM     24  C   UNL     1      -8.750  -3.357  -0.763  0.00  0.00    +0.036 C 
ATOM     25  C   UNL     1      -8.750  -3.732  -2.247  0.00  0.00    +0.067 C 
ATOM     26  C   UNL     1      -7.334  -4.121  -2.675  0.00  0.00    +0.036 C 
ATOM     27  C   UNL     1      -9.223  -2.536  -3.075  0.00  0.00    +0.038 C 
BRANCH  25  28
ATOM     28  O   UNL     1      -9.632  -4.837  -2.459  0.00  0.00    -0.389 OA
ATOM     29  H   UNL     1      -9.682  -5.129  -3.379  0.00  0.00    +0.210 HD
ENDBRANCH  25  28
ENDBRANCH  15  18
ENDBRANCH   8  15
BRANCH   4  30
ATOM     30  C   UNL     1       0.410  -5.678  -0.398  0.00  0.00    +0.147 C 
BRANCH  30  31
ATOM     31  C   UNL     1       0.651  -5.971  -1.880  0.00  0.00    +0.010 C 
ATOM     32  C   UNL     1      -0.672  -6.357  -2.545  0.00  0.00    +0.005 C 
ATOM     33  C   UNL     1      -0.431  -6.650  -4.027  0.00  0.00    +0.000 C 
ATOM     34  C   UNL     1       0.565  -7.803  -4.164  0.00  0.00    +0.000 C 
ATOM     35  C   UNL     1       1.888  -7.417  -3.499  0.00  0.00    +0.000 C 
ATOM     36  C   UNL     1       1.647  -7.124  -2.017  0.00  0.00    +0.005 C 
ENDBRANCH  30  31
ENDBRANCH   4  30
TORSDOF 6
