REMARK  Name = ZINC15543921
REMARK  6 active torsions:
REMARK  status: ('A' for Active; 'I' for Inactive)
REMARK    1  A    between atoms: C_4  and  S_25
REMARK    2  A    between atoms: C_5  and  N_7
REMARK    3  A    between atoms: C_8  and  C_10
REMARK    4  A    between atoms: C_10  and  N_65
REMARK    5  A    between atoms: C_13  and  C_16
REMARK    6  A    between atoms: S_25  and  C_26
REMARK                            x       y       z     vdW  Elec       q    Type
REMARK                         _______ _______ _______ _____ _____    ______ ____
ROOT
ATOM      1  N   UNL     1       7.692   3.484  -3.376  0.00  0.00    -0.286 N 
ATOM      2  C   UNL     1       6.510   2.838  -3.325  0.00  0.00    +0.201 C 
ATOM      3  O   UNL     1       5.794   2.805  -4.303  0.00  0.00    -0.278 OA
ATOM      4  H   UNL     1       8.303   3.439  -2.624  0.00  0.00    +0.155 HD
ENDROOT
BRANCH   1   9
ATOM      5  C   UNL     1       7.401   5.341  -6.539  0.00  0.00    +0.002 A 
ATOM      6  C   UNL     1       8.722   5.680  -6.772  0.00  0.00    +0.001 A 
ATOM      7  C   UNL     1       9.706   5.294  -5.882  0.00  0.00    +0.017 A 
ATOM      8  C   UNL     1       9.369   4.568  -4.748  0.00  0.00    +0.034 A 
ATOM      9  C   UNL     1       8.038   4.221  -4.516  0.00  0.00    +0.047 A 
ATOM     10  C   UNL     1       7.058   4.614  -5.415  0.00  0.00    +0.024 A 
BRANCH   8  11
ATOM     11  S   UNL     1      10.621   4.081  -3.607  0.00  0.00    -0.088 S 
BRANCH  11  12
ATOM     12  C   UNL     1      12.082   4.847  -4.225  0.00  0.00    +0.013 A 
ATOM     13  C   UNL     1      12.842   4.213  -5.200  0.00  0.00    +0.016 A 
ATOM     14  C   UNL     1      13.984   4.818  -5.686  0.00  0.00    +0.021 A 
ATOM     15  C   UNL     1      14.378   6.050  -5.194  0.00  0.00    +0.041 A 
ATOM     16  C   UNL     1      13.627   6.682  -4.218  0.00  0.00    +0.021 A 
ATOM     17  C   UNL     1      12.481   6.084  -3.733  0.00  0.00    +0.016 A 
ATOM     18 CL   UNL     1      15.818   6.805  -5.803  0.00  0.00    -0.084 Cl
ENDBRANCH  11  12
ENDBRANCH   8  11
ENDBRANCH   1   9
BRANCH   2  19
ATOM     19  C   UNL     1       6.079   2.157  -2.052  0.00  0.00    +0.019 C 
BRANCH  19  25
ATOM     20  C   UNL     1       4.249   0.991  -0.978  0.00  0.00    -0.077 C 
ATOM     21  C   UNL     1       2.873   0.366  -1.219  0.00  0.00    -0.006 C 
ATOM     22  C   UNL     1       1.882   1.464  -1.618  0.00  0.00    +0.072 C 
ATOM     23  C   UNL     1       2.403   2.181  -2.866  0.00  0.00    -0.006 C 
ATOM     24  C   UNL     1       3.792   2.753  -2.578  0.00  0.00    -0.077 C 
ATOM     25  N   UNL     1       4.704   1.644  -2.224  0.00  0.00    +0.385 N 
ATOM     26  H   UNL     1       4.698   0.953  -2.983  0.00  0.00    -0.081 HD
BRANCH  22  27
ATOM     27  C   UNL     1       0.540   0.847  -1.915  0.00  0.00    +0.219 C 
ATOM     28  O   UNL     1       0.465  -0.324  -2.223  0.00  0.00    -0.275 OA
ATOM     29  N   UNL     1      -0.578   1.597  -1.843  0.00  0.00    -0.301 N 
ATOM     30  C   UNL     1      -1.858   0.953  -2.032  0.00  0.00    +0.108 C 
ATOM     31  C   UNL     1      -2.232   0.958  -3.529  0.00  0.00    +0.019 C 
ATOM     32  C   UNL     1      -2.578   2.320  -3.964  0.00  0.00    +0.002 C 
ATOM     33  C   UNL     1      -1.434   3.324  -3.856  0.00  0.00    +0.002 C 
ATOM     34  C   UNL     1      -1.390   3.883  -2.455  0.00  0.00    +0.019 C 
ATOM     35  C   UNL     1      -0.443   3.043  -1.579  0.00  0.00    +0.108 C 
ENDBRANCH  22  27
ENDBRANCH  19  25
ENDBRANCH   2  19
TORSDOF 6
