REMARK  Name = ZINC39493500
REMARK  8 active torsions:
REMARK  status: ('A' for Active; 'I' for Inactive)
REMARK    1  A    between atoms: C_6  and  C_7
REMARK    2  A    between atoms: C_9  and  C_12
REMARK    3  A    between atoms: C_12  and  O_13
REMARK    4  A    between atoms: O_13  and  C_14
REMARK    5  A    between atoms: C_14  and  C_16
REMARK    6  A    between atoms: C_16  and  C_17
REMARK    7  A    between atoms: C_17  and  C_18
REMARK    8  A    between atoms: C_18  and  C_20
REMARK                            x       y       z     vdW  Elec       q    Type
REMARK                         _______ _______ _______ _____ _____    ______ ____
ROOT
ATOM      1  C   UNL     1      -3.793  -5.554   1.545  0.00  0.00    +0.308 C 
ATOM      2  O   UNL     1      -4.058  -6.241   0.588  0.00  0.00    -0.251 OA
ENDROOT
BRANCH   1   3
ATOM      3  O   UNL     1      -3.327  -4.307   1.368  0.00  0.00    -0.455 OA
BRANCH   3   4
ATOM      4  C   UNL     1      -3.170  -3.859   0.020  0.00  0.00    +0.330 C 
BRANCH   4   7
ATOM      5  C   UNL     1      -1.272  -0.765   0.011  0.00  0.00    +0.202 A 
ATOM      6  N   UNL     1      -1.384  -2.106   0.010  0.00  0.00    -0.188 NA
ATOM      7  C   UNL     1      -2.641  -2.448   0.019  0.00  0.00    +0.265 A 
ATOM      8  O   UNL     1      -3.384  -1.333   0.026  0.00  0.00    -0.334 OA
ATOM      9  N   UNL     1      -2.474  -0.244   0.026  0.00  0.00    -0.056 NA
BRANCH   5  15
ATOM     10  C   UNL     1      -0.017   1.389   0.010  0.00  0.00    +0.014 A 
ATOM     11  C   UNL     1       1.170   2.093   0.002  0.00  0.00    +0.039 A 
ATOM     12  C   UNL     1       2.379   1.417  -0.013  0.00  0.00    +0.123 A 
ATOM     13  C   UNL     1       2.402   0.031  -0.021  0.00  0.00    +0.039 A 
ATOM     14  C   UNL     1       1.220  -0.680  -0.013  0.00  0.00    +0.014 A 
ATOM     15  C   UNL     1       0.002  -0.004   0.002  0.00  0.00    +0.023 A 
ATOM     16  F   UNL     1       3.538   2.110  -0.022  0.00  0.00    -0.205 F 
ENDBRANCH   5  15
ENDBRANCH   4   7
ENDBRANCH   3   4
ENDBRANCH   1   3
BRANCH   1  17
ATOM     17  C   UNL     1      -3.984  -6.095   2.938  0.00  0.00    +0.128 C 
BRANCH  17  18
ATOM     18  C   UNL     1      -4.521  -7.526   2.860  0.00  0.00    +0.091 C 
BRANCH  18  19
ATOM     19  C   UNL     1      -4.713  -8.068   4.253  0.00  0.00    +0.164 C 
ATOM     20  O   UNL     1      -4.446  -7.378   5.214  0.00  0.00    -0.292 OA
BRANCH  19  21
ATOM     21  C   UNL     1      -5.222  -9.431   4.447  0.00  0.00    +0.021 A 
ATOM     22  C   UNL     1      -5.525 -10.233   3.339  0.00  0.00    +0.015 A 
ATOM     23  C   UNL     1      -6.003 -11.509   3.526  0.00  0.00    +0.050 A 
ATOM     24  C   UNL     1      -6.187 -12.010   4.810  0.00  0.00    +0.162 A 
ATOM     25  C   UNL     1      -5.886 -11.219   5.918  0.00  0.00    +0.163 A 
ATOM     26  C   UNL     1      -5.401  -9.938   5.740  0.00  0.00    +0.060 A 
ATOM     27  O   UNL     1      -6.053 -11.698   7.181  0.00  0.00    -0.485 OA
ATOM     28  C   UNL     1      -6.885 -12.854   7.326  0.00  0.00    +0.270 C 
ATOM     29  C   UNL     1      -6.480 -13.875   6.254  0.00  0.00    +0.270 C 
ATOM     30  O   UNL     1      -6.665 -13.272   4.968  0.00  0.00    -0.485 OA
ENDBRANCH  19  21
ENDBRANCH  18  19
ENDBRANCH  17  18
ENDBRANCH   1  17
TORSDOF 8
