REMARK  Name = ZINC31518884
REMARK  14 active torsions:
REMARK  status: ('A' for Active; 'I' for Inactive)
REMARK    1  A    between atoms: C_1  and  C_2
REMARK    2  A    between atoms: C_2  and  N_3
REMARK    3  A    between atoms: N_3  and  C_4
REMARK    4  A    between atoms: N_3  and  C_6
REMARK    5  A    between atoms: C_4  and  C_5
REMARK    6  A    between atoms: C_6  and  C_7
REMARK    7  A    between atoms: C_7  and  C_8
REMARK    8  A    between atoms: C_8  and  C_29
REMARK    9  A    between atoms: N_10  and  N_17
REMARK   10  A    between atoms: N_17  and  C_18
REMARK   11  A    between atoms: N_17  and  C_19
REMARK   12  A    between atoms: C_19  and  C_20
REMARK   13  A    between atoms: C_24  and  O_27
REMARK   14  A    between atoms: O_27  and  C_28
REMARK                            x       y       z     vdW  Elec       q    Type
REMARK                         _______ _______ _______ _____ _____    ______ ____
ROOT
ATOM      1  C   UNL     1      -0.713  -0.788   0.015  0.00  0.00    +0.038 C 
ATOM      2  C   UNL     1      -1.875  -1.768   0.294  0.00  0.00    +0.140 C 
ATOM      3  N   UNL     1      -1.528  -2.312   1.625  0.00  0.00    -0.263 N 
ATOM      4  C   UNL     1      -0.764  -1.349   2.297  0.00  0.00    +0.049 A 
ATOM      5  C   UNL     1      -0.239  -0.416   1.406  0.00  0.00    -0.013 A 
ATOM      6  C   UNL     1       0.556   0.616   1.856  0.00  0.00    +0.006 A 
ATOM      7  C   UNL     1       0.839   0.736   3.205  0.00  0.00    +0.000 A 
ATOM      8  C   UNL     1       0.323  -0.181   4.101  0.00  0.00    +0.002 A 
ATOM      9  C   UNL     1      -0.481  -1.221   3.656  0.00  0.00    +0.025 A 
ENDROOT
BRANCH   1  10
ATOM     10  C   UNL     1      -1.206   0.430  -0.724  0.00  0.00    -0.035 A 
ATOM     11  C   UNL     1      -1.251   1.655  -0.086  0.00  0.00    +0.004 A 
ATOM     12  C   UNL     1      -1.699   2.772  -0.765  0.00  0.00    +0.000 A 
ATOM     13  C   UNL     1      -2.112   2.663  -2.080  0.00  0.00    +0.000 A 
ATOM     14  C   UNL     1      -2.072   1.436  -2.716  0.00  0.00    +0.000 A 
ATOM     15  C   UNL     1      -1.619   0.320  -2.039  0.00  0.00    +0.004 A 
ENDBRANCH   1  10
BRANCH   3  16
ATOM     16  N   UNL     1      -2.724  -2.648   2.379  0.00  0.00    -0.225 NA
ATOM     17  C   UNL     1      -3.298  -1.455   3.016  0.00  0.00    +0.128 C 
BRANCH  16  18
ATOM     18  C   UNL     1      -2.443  -3.692   3.374  0.00  0.00    +0.142 C 
BRANCH  18  19
ATOM     19  C   UNL     1      -2.279  -5.018   2.678  0.00  0.00    -0.010 A 
ATOM     20  C   UNL     1      -3.351  -5.888   2.587  0.00  0.00    +0.006 A 
ATOM     21  C   UNL     1      -3.204  -7.105   1.948  0.00  0.00    +0.004 A 
ATOM     22  C   UNL     1      -1.985  -7.456   1.399  0.00  0.00    +0.047 A 
ATOM     23  C   UNL     1      -0.909  -6.587   1.488  0.00  0.00    +0.139 A 
ATOM     24  C   UNL     1      -1.060  -5.362   2.126  0.00  0.00    +0.087 A 
ATOM     25 CL   UNL     1       0.283  -4.268   2.234  0.00  0.00    -0.079 Cl
BRANCH  23  26
ATOM     26  O   UNL     1       0.290  -6.930   0.949  0.00  0.00    -0.494 OA
ATOM     27  C   UNL     1       0.371  -8.203   0.304  0.00  0.00    +0.277 C 
ENDBRANCH  23  26
ENDBRANCH  18  19
ENDBRANCH  16  18
ENDBRANCH   3  16
BRANCH   1  28
ATOM     28  C   UNL     1       0.403  -1.480  -0.770  0.00  0.00    -0.001 C 
BRANCH  28  29
ATOM     29  C   UNL     1       1.602  -0.537  -0.893  0.00  0.00    -0.078 C 
BRANCH  29  30
ATOM     30  N   UNL     1       2.631  -1.160  -1.736  0.00  0.00    +0.379 N 
ATOM     31  H   UNL     1       2.786  -2.188  -1.376  0.00  0.00    -0.082 HD
BRANCH  30  33
ATOM     32  C   UNL     1       3.166  -2.103  -3.932  0.00  0.00    -0.017 C 
ATOM     33  C   UNL     1       2.190  -1.234  -3.136  0.00  0.00    -0.082 C 
ENDBRANCH  30  33
BRANCH  30  34
ATOM     34  C   UNL     1       3.908  -0.445  -1.623  0.00  0.00    -0.082 C 
ATOM     35  C   UNL     1       4.578  -0.803  -0.295  0.00  0.00    -0.017 C 
ENDBRANCH  30  34
ENDBRANCH  29  30
ENDBRANCH  28  29
ENDBRANCH   1  28
TORSDOF 10
