REMARK  Name = ZINC43736680
REMARK  3 active torsions:
REMARK  status: ('A' for Active; 'I' for Inactive)
REMARK    1  A    between atoms: C_1  and  C_2
REMARK    2  A    between atoms: C_5  and  O_34
REMARK    3  A    between atoms: C_18  and  C_33
REMARK                            x       y       z     vdW  Elec       q    Type
REMARK                         _______ _______ _______ _____ _____    ______ ____
ROOT
ATOM      1  C   UNL     1      -0.076   1.392  -0.919  0.00  0.00    +0.012 C 
ATOM      2  C   UNL     1      -0.094  -0.135  -0.882  0.00  0.00    -0.026 C 
ATOM      3  C   UNL     1       0.338  -0.679  -2.247  0.00  0.00    +0.010 C 
ATOM      4  C   UNL     1       1.775  -0.265  -2.557  0.00  0.00    +0.032 C 
ATOM      5  C   UNL     1       2.720  -0.778  -1.471  0.00  0.00    +0.115 C 
ATOM      6  C   UNL     1       2.295  -0.229  -0.108  0.00  0.00    +0.035 C 
ATOM      7  C   UNL     1       0.862  -0.659   0.191  0.00  0.00    -0.002 C 
ATOM      8  C   UNL     1       0.435  -0.178   1.575  0.00  0.00    +0.004 C 
ATOM      9  C   UNL     1      -0.987  -0.656   1.876  0.00  0.00    +0.007 C 
ATOM     10  C   UNL     1      -1.947  -0.129   0.804  0.00  0.00    +0.025 C 
ATOM     11  C   UNL     1      -1.504  -0.641  -0.561  0.00  0.00    +0.001 C 
ATOM     12  C   UNL     1      -2.491  -0.209  -1.642  0.00  0.00    +0.005 C 
ATOM     13  C   UNL     1      -3.882  -0.740  -1.298  0.00  0.00    +0.010 C 
ATOM     14  C   UNL     1      -4.364  -0.122   0.036  0.00  0.00    +0.001 C 
ATOM     15  C   UNL     1      -3.368  -0.545   1.135  0.00  0.00    +0.080 C 
ATOM     16  C   UNL     1      -3.526  -2.081   1.129  0.00  0.00    +0.036 C 
ATOM     17  C   UNL     1      -4.952  -2.368   0.610  0.00  0.00    +0.007 C 
ATOM     18  C   UNL     1      -5.617  -0.951   0.453  0.00  0.00    +0.005 C 
ATOM     19  C   UNL     1      -6.022  -0.638   1.876  0.00  0.00    +0.049 C 
ATOM     20  C   UNL     1      -7.305   0.180   2.118  0.00  0.00    +0.103 C 
ATOM     21  C   UNL     1      -7.071   0.555   3.590  0.00  0.00    +0.215 C 
ATOM     22  O   UNL     1      -7.938   0.797   4.398  0.00  0.00    -0.276 OA
ATOM     23  N   UNL     1      -5.723   0.570   3.831  0.00  0.00    -0.290 N 
ATOM     24  C   UNL     1      -5.060   0.373   2.544  0.00  0.00    +0.210 C 
ATOM     25  O   UNL     1      -3.742  -0.025   2.415  0.00  0.00    -0.351 OA
ATOM     26  C   UNL     1      -4.584   1.371  -0.161  0.00  0.00    +0.014 C 
ATOM     27  H   UNL     1      -5.284   0.691   4.676  0.00  0.00    +0.151 HD
ENDROOT
BRANCH   5  28
ATOM     28  O   UNL     1       4.053  -0.351  -1.760  0.00  0.00    -0.392 OA
ATOM     29  H   UNL     1       4.394  -0.668  -2.607  0.00  0.00    +0.210 HD
ENDBRANCH   5  28
TORSDOF 1
