REMARK  Name = ZINC20079684
REMARK  9 active torsions:
REMARK  status: ('A' for Active; 'I' for Inactive)
REMARK    1  A    between atoms: C_1  and  C_2
REMARK    2  A    between atoms: C_6  and  N_9
REMARK    3  A    between atoms: C_7  and  C_8
REMARK    4  A    between atoms: N_12  and  C_15
REMARK    5  A    between atoms: C_15  and  C_17
REMARK    6  A    between atoms: C_15  and  C_31
REMARK    7  A    between atoms: C_20  and  C_30
REMARK    8  A    between atoms: C_22  and  C_29
REMARK    9  A    between atoms: N_35  and  C_36
REMARK                            x       y       z     vdW  Elec       q    Type
REMARK                         _______ _______ _______ _____ _____    ______ ____
ROOT
ATOM      1  C   UNL     1       4.826   4.237  -0.063  0.00  0.00    +0.162 C 
ENDROOT
BRANCH   1   2
ATOM      2  C   UNL     1       3.617   3.340  -0.126  0.00  0.00    +0.042 A 
ATOM      3  C   UNL     1       3.774   1.993  -0.124  0.00  0.00    +0.021 A 
ATOM      4  C   UNL     1       2.579   1.149  -0.185  0.00  0.00    +0.002 A 
ATOM      5  C   UNL     1       2.678  -0.246  -0.185  0.00  0.00    -0.041 A 
ATOM      6  C   UNL     1       1.543  -1.005  -0.243  0.00  0.00    +0.007 A 
ATOM      7  C   UNL     1       0.293  -0.404  -0.302  0.00  0.00    -0.048 A 
ATOM      8  C   UNL     1       0.172   0.969  -0.302  0.00  0.00    +0.029 A 
ATOM      9  C   UNL     1       1.313   1.762  -0.244  0.00  0.00    +0.050 A 
ATOM     10  N   UNL     1       1.222   3.138  -0.243  0.00  0.00    -0.322 N 
ATOM     11  H   UNL     1       0.236   3.624  -0.289  0.00  0.00    +0.169 HD
ATOM     12  C   UNL     1       2.325   3.905  -0.186  0.00  0.00    +0.254 A 
ATOM     13  O   UNL     1       2.206   5.118  -0.188  0.00  0.00    -0.268 OA
ATOM     14  C   UNL     1      -0.944  -1.262  -0.365  0.00  0.00    +0.044 C 
ATOM     15  C   UNL     1       4.029  -0.909  -0.122  0.00  0.00    +0.044 C 
ENDBRANCH   1   2
BRANCH   1  19
ATOM     16  N   UNL     1       5.791   6.349  -3.592  0.00  0.00    -0.327 N 
ATOM     17  C   UNL     1       5.866   7.071  -2.315  0.00  0.00    +0.120 C 
ATOM     18  C   UNL     1       5.969   6.064  -1.167  0.00  0.00    +0.104 C 
ATOM     19  N   UNL     1       4.802   5.171  -1.196  0.00  0.00    -0.286 NA
ATOM     20  C   UNL     1       4.727   4.449  -2.473  0.00  0.00    +0.104 C 
ATOM     21  C   UNL     1       4.624   5.456  -3.621  0.00  0.00    +0.120 C 
BRANCH  16  27
ATOM     22  C   UNL     1       7.923   8.146  -7.639  0.00  0.00    +0.044 C 
ATOM     23  C   UNL     1       6.789   8.131  -6.647  0.00  0.00    -0.046 A 
ATOM     24  C   UNL     1       5.723   8.998  -6.803  0.00  0.00    +0.004 A 
ATOM     25  C   UNL     1       4.680   8.987  -5.896  0.00  0.00    +0.002 A 
ATOM     26  C   UNL     1       4.699   8.110  -4.830  0.00  0.00    +0.023 A 
ATOM     27  C   UNL     1       5.768   7.237  -4.669  0.00  0.00    +0.033 A 
ATOM     28  C   UNL     1       6.817   7.255  -5.580  0.00  0.00    -0.027 A 
ATOM     29  C   UNL     1       7.982   6.314  -5.407  0.00  0.00    +0.046 C 
ENDBRANCH  16  27
ENDBRANCH   1  19
BRANCH   1  30
ATOM     30  C   UNL     1       4.809   5.013   1.229  0.00  0.00    +0.173 A 
ATOM     31  N   UNL     1       4.045   6.038   1.516  0.00  0.00    -0.111 NA
ATOM     32  N   UNL     1       4.326   6.421   2.713  0.00  0.00    -0.023 NA
ATOM     33  N   UNL     1       5.255   5.671   3.195  0.00  0.00    -0.044 NA
ATOM     34  N   UNL     1       5.580   4.791   2.310  0.00  0.00    -0.224 N 
BRANCH  34  35
ATOM     35  C   UNL     1       6.596   3.745   2.454  0.00  0.00    +0.111 C 
ATOM     36  C   UNL     1       6.266   2.852   3.668  0.00  0.00    +0.027 C 
ATOM     37  C   UNL     1       7.650   2.523   4.284  0.00  0.00    +0.002 C 
ATOM     38  C   UNL     1       8.427   3.851   4.110  0.00  0.00    +0.002 C 
ATOM     39  C   UNL     1       7.969   4.380   2.735  0.00  0.00    +0.027 C 
ENDBRANCH  34  35
ENDBRANCH   1  30
TORSDOF 5
