REMARK  Name = ZINC02428477
REMARK  6 active torsions:
REMARK  status: ('A' for Active; 'I' for Inactive)
REMARK    1  A    between atoms: C_1  and  C_2
REMARK    2  A    between atoms: N_5  and  C_8
REMARK    3  A    between atoms: C_8  and  C_9
REMARK    4  A    between atoms: C_10  and  O_28
REMARK    5  A    between atoms: C_17  and  O_20
REMARK    6  A    between atoms: O_20  and  C_21
REMARK                            x       y       z     vdW  Elec       q    Type
REMARK                         _______ _______ _______ _____ _____    ______ ____
ROOT
ATOM      1  C   UNL     1      -0.108  -4.392   2.755  0.00  0.00    +0.020 A 
ATOM      2  C   UNL     1       1.217  -4.792   2.813  0.00  0.00    +0.122 A 
ATOM      3  C   UNL     1       1.744  -5.331   3.984  0.00  0.00    +0.046 A 
ATOM      4  C   UNL     1       0.960  -5.472   5.094  0.00  0.00    +0.019 A 
ATOM      5  C   UNL     1      -0.376  -5.073   5.052  0.00  0.00    +0.068 A 
ATOM      6  C   UNL     1      -0.916  -4.523   3.876  0.00  0.00    +0.143 A 
ATOM      7  O   UNL     1      -2.207  -4.137   3.848  0.00  0.00    -0.459 OA
ATOM      8  C   UNL     1      -3.013  -4.251   4.912  0.00  0.00    +0.245 A 
ATOM      9  C   UNL     1      -2.599  -4.759   6.090  0.00  0.00    +0.210 A 
ATOM     10  C   UNL     1      -1.255  -5.209   6.227  0.00  0.00    +0.235 A 
ATOM     11  O   UNL     1      -0.845  -5.675   7.277  0.00  0.00    -0.283 OA
ENDROOT
BRANCH   2  12
ATOM     12  O   UNL     1       2.008  -4.658   1.718  0.00  0.00    -0.506 OA
ATOM     13  H   UNL     1       2.470  -3.810   1.668  0.00  0.00    +0.292 HD
ENDBRANCH   2  12
BRANCH   1  14
ATOM     14  C   UNL     1      -0.667  -3.809   1.483  0.00  0.00    -0.036 C 
BRANCH  14  19
ATOM     15  C   UNL     1       0.610   1.656   0.475  0.00  0.00    +0.007 C 
ATOM     16  C   UNL     1       0.477   0.137   0.354  0.00  0.00    -0.018 C 
ATOM     17  C   UNL     1      -1.005  -0.249   0.345  0.00  0.00    -0.016 C 
ATOM     18  C   UNL     1      -1.129  -1.774   0.305  0.00  0.00    -0.078 C 
ATOM     19  N   UNL     1      -0.478  -2.353   1.486  0.00  0.00    +0.383 N 
ATOM     20  C   UNL     1       0.957  -2.047   1.464  0.00  0.00    -0.078 C 
ATOM     21  C   UNL     1       1.162  -0.533   1.549  0.00  0.00    -0.016 C 
ATOM     22  H   UNL     1      -0.891  -1.964   2.321  0.00  0.00    -0.081 HD
ENDBRANCH  14  19
ENDBRANCH   1  14
BRANCH   9  23
ATOM     23  O   UNL     1      -3.462  -4.851   7.138  0.00  0.00    -0.448 OA
BRANCH  23  24
ATOM     24  C   UNL     1      -3.229  -4.072   8.227  0.00  0.00    +0.143 A 
ATOM     25  C   UNL     1      -2.208  -3.133   8.203  0.00  0.00    +0.047 A 
ATOM     26  C   UNL     1      -1.974  -2.342   9.311  0.00  0.00    +0.004 A 
ATOM     27  C   UNL     1      -2.755  -2.485  10.443  0.00  0.00    +0.001 A 
ATOM     28  C   UNL     1      -3.773  -3.420  10.470  0.00  0.00    +0.019 A 
ATOM     29  C   UNL     1      -4.016  -4.210   9.362  0.00  0.00    +0.060 A 
ATOM     30 BR   UNL     1      -5.414  -5.484   9.396  0.00  0.00    -0.046 Br
ENDBRANCH  23  24
ENDBRANCH   9  23
TORSDOF 5
