REMARK  Name = ZINC08686515
REMARK  13 active torsions:
REMARK  status: ('A' for Active; 'I' for Inactive)
REMARK    1  A    between atoms: C_1  and  N_2
REMARK    2  A    between atoms: C_3  and  C_29
REMARK    3  A    between atoms: C_6  and  S_7
REMARK    4  A    between atoms: S_7  and  C_8
REMARK    5  A    between atoms: C_8  and  C_9
REMARK    6  A    between atoms: N_11  and  C_12
REMARK    7  A    between atoms: C_12  and  C_13
REMARK    8  A    between atoms: C_13  and  N_14
REMARK    9  A    between atoms: C_15  and  C_17
REMARK   10  A    between atoms: C_17  and  S_18
REMARK   11  A    between atoms: S_18  and  C_19
REMARK   12  A    between atoms: C_22  and  C_25
REMARK   13  A    between atoms: N_23  and  C_24
REMARK                            x       y       z     vdW  Elec       q    Type
REMARK                         _______ _______ _______ _____ _____    ______ ____
ROOT
ATOM      1  C   UNL     1       0.110  -2.393   7.486  0.00  0.00    +0.123 C 
ENDROOT
BRANCH   1   4
ATOM      2  C   UNL     1       0.076  -1.639   5.169  0.00  0.00    +0.223 C 
ATOM      3  O   UNL     1       0.065  -0.496   5.572  0.00  0.00    -0.275 OA
ATOM      4  N   UNL     1       0.099  -2.663   6.046  0.00  0.00    -0.313 N 
ATOM      5  H   UNL     1       0.108  -3.578   5.723  0.00  0.00    +0.149 HD
BRANCH   2   6
ATOM      6  C   UNL     1       0.065  -1.917   3.688  0.00  0.00    +0.173 C 
BRANCH   6   7
ATOM      7  S   UNL     1       0.035  -0.347   2.779  0.00  0.00    -0.077 S 
BRANCH   7  13
ATOM      8  C   UNL     1      -0.018   1.461   0.010  0.00  0.00    +0.153 C 
ATOM      9  N   UNL     1       0.002  -0.004   0.002  0.00  0.00    -0.302 N 
ATOM     10  C   UNL     1       0.008  -0.824  -1.093  0.00  0.00    +0.238 A 
ATOM     11  N   UNL     1       0.027  -2.052  -0.657  0.00  0.00    -0.124 NA
ATOM     12  N   UNL     1       0.033  -2.064   0.628  0.00  0.00    -0.122 NA
ATOM     13  C   UNL     1       0.024  -0.834   1.086  0.00  0.00    +0.192 A 
BRANCH  10  14
ATOM     14  C   UNL     1      -0.005  -0.388  -2.535  0.00  0.00    +0.452 C 
ATOM     15  F   UNL     1      -0.335  -1.477  -3.349  0.00  0.00    -0.163 F 
ATOM     16  F   UNL     1      -0.953   0.627  -2.707  0.00  0.00    -0.163 F 
ATOM     17  F   UNL     1       1.261   0.092  -2.889  0.00  0.00    -0.163 F 
ENDBRANCH  10  14
ENDBRANCH   7  13
ENDBRANCH   6   7
ENDBRANCH   2   6
ENDBRANCH   1   4
BRANCH   1  18
ATOM     18  C   UNL     1       0.135  -3.717   8.252  0.00  0.00    +0.123 C 
BRANCH  18  19
ATOM     19  N   UNL     1       0.146  -3.448   9.692  0.00  0.00    -0.313 N 
ATOM     20  C   UNL     1       0.169  -4.471  10.569  0.00  0.00    +0.223 C 
ATOM     21  O   UNL     1       0.180  -5.615  10.166  0.00  0.00    -0.275 OA
ATOM     22  H   UNL     1       0.137  -2.533  10.014  0.00  0.00    +0.149 HD
BRANCH  20  23
ATOM     23  C   UNL     1       0.180  -4.194  12.050  0.00  0.00    +0.173 C 
BRANCH  23  24
ATOM     24  S   UNL     1       0.210  -5.764  12.959  0.00  0.00    -0.077 S 
BRANCH  24  25
ATOM     25  C   UNL     1       0.221  -5.277  14.652  0.00  0.00    +0.192 A 
ATOM     26  N   UNL     1       0.203  -4.046  15.110  0.00  0.00    -0.122 NA
ATOM     27  N   UNL     1       0.218  -4.059  16.395  0.00  0.00    -0.124 NA
ATOM     28  C   UNL     1       0.245  -5.287  16.830  0.00  0.00    +0.238 A 
ATOM     29  N   UNL     1       0.243  -6.107  15.735  0.00  0.00    -0.302 N 
ATOM     30  C   UNL     1       0.263  -7.572  15.727  0.00  0.00    +0.153 C 
BRANCH  28  31
ATOM     31  C   UNL     1       0.270  -5.723  18.272  0.00  0.00    +0.452 C 
ATOM     32  F   UNL     1      -0.082  -4.645  19.092  0.00  0.00    -0.163 F 
ATOM     33  F   UNL     1      -0.642  -6.768  18.459  0.00  0.00    -0.163 F 
ATOM     34  F   UNL     1       1.556  -6.161  18.605  0.00  0.00    -0.163 F 
ENDBRANCH  28  31
ENDBRANCH  24  25
ENDBRANCH  23  24
ENDBRANCH  20  23
ENDBRANCH  18  19
ENDBRANCH   1  18
TORSDOF 11
