REMARK  Name = ZINC43741111
REMARK  5 active torsions:
REMARK  status: ('A' for Active; 'I' for Inactive)
REMARK    1  A    between atoms: N_13  and  C_14
REMARK    2  A    between atoms: C_14  and  C_15
REMARK    3  A    between atoms: C_15  and  C_17
REMARK    4  A    between atoms: C_15  and  O_34
REMARK    5  A    between atoms: C_17  and  N_18
REMARK                            x       y       z     vdW  Elec       q    Type
REMARK                         _______ _______ _______ _____ _____    ______ ____
ROOT
ATOM      1  C   UNL     1       5.420  -0.473   1.388  0.00  0.00    +0.118 C 
ENDROOT
BRANCH   1   2
ATOM      2  O   UNL     1       4.688   0.559   2.054  0.00  0.00    -0.392 OA
ATOM      3  H   UNL     1       4.768   1.429   1.639  0.00  0.00    +0.210 HD
ENDBRANCH   1   2
BRANCH   1   4
ATOM      4  C   UNL     1       4.915  -0.610  -0.050  0.00  0.00    +0.151 C 
BRANCH   4  17
ATOM      5  C   UNL     1      -0.103   0.932   0.041  0.00  0.00    +0.001 A 
ATOM      6  C   UNL     1       1.036   1.723   0.038  0.00  0.00    +0.002 A 
ATOM      7  C   UNL     1       2.288   1.148   0.013  0.00  0.00    +0.026 A 
ATOM      8  C   UNL     1       2.418  -0.237  -0.009  0.00  0.00    +0.050 A 
ATOM      9  C   UNL     1       1.265  -1.036  -0.006  0.00  0.00    +0.008 A 
ATOM     10  C   UNL     1       0.005  -0.442   0.020  0.00  0.00    +0.010 A 
ATOM     11  C   UNL     1       1.726  -2.436  -0.034  0.00  0.00    +0.008 A 
ATOM     12  C   UNL     1       1.066  -3.663  -0.045  0.00  0.00    +0.010 A 
ATOM     13  C   UNL     1       1.794  -4.832  -0.073  0.00  0.00    +0.001 A 
ATOM     14  C   UNL     1       3.180  -4.792  -0.092  0.00  0.00    +0.002 A 
ATOM     15  C   UNL     1       3.846  -3.585  -0.082  0.00  0.00    +0.026 A 
ATOM     16  C   UNL     1       3.128  -2.393  -0.053  0.00  0.00    +0.050 A 
ATOM     17  N   UNL     1       3.524  -1.068  -0.038  0.00  0.00    -0.337 N 
ENDBRANCH   4  17
ENDBRANCH   1   4
BRANCH   1  18
ATOM     18  C   UNL     1       6.907  -0.115   1.375  0.00  0.00    -0.045 C 
BRANCH  18  19
ATOM     19  N   UNL     1       7.396  -0.001   2.756  0.00  0.00    +0.382 N 
ATOM     20  C   UNL     1       7.332  -1.314   3.405  0.00  0.00    -0.074 C 
ATOM     21  C   UNL     1       7.832  -1.242   4.840  0.00  0.00    -0.007 C 
ATOM     22  C   UNL     1       9.255  -0.677   4.890  0.00  0.00    +0.011 C 
ATOM     23  C   UNL     1       9.229   0.693   4.202  0.00  0.00    +0.020 C 
ATOM     24  C   UNL     1       8.784   0.482   2.745  0.00  0.00    -0.069 C 
ATOM     25  C   UNL     1       8.200   1.568   4.881  0.00  0.00    +0.023 A 
ATOM     26  C   UNL     1       8.407   2.911   4.863  0.00  0.00    +0.022 A 
ATOM     27  C   UNL     1       7.464   3.783   5.417  0.00  0.00    +0.007 A 
ATOM     28  C   UNL     1       6.321   3.264   5.952  0.00  0.00    +0.070 A 
ATOM     29  C   UNL     1       6.136   1.875   5.951  0.00  0.00    +0.251 A 
ATOM     30  O   UNL     1       5.091   1.404   6.371  0.00  0.00    -0.268 OA
ATOM     31  N   UNL     1       7.107   1.049   5.489  0.00  0.00    -0.312 N 
ATOM     32  C   UNL     1       6.929  -0.383   5.710  0.00  0.00    +0.126 C 
ATOM     33  H   UNL     1       6.817   0.652   3.263  0.00  0.00    -0.082 HD
ENDBRANCH  18  19
ENDBRANCH   1  18
TORSDOF 5
