REMARK  Name = ZINC02866169
REMARK  8 active torsions:
REMARK  status: ('A' for Active; 'I' for Inactive)
REMARK    1  A    between atoms: C_3  and  C_6
REMARK    2  A    between atoms: C_8  and  C_30
REMARK    3  A    between atoms: C_10  and  S_12
REMARK    4  A    between atoms: S_12  and  C_13
REMARK    5  A    between atoms: C_13  and  C_14
REMARK    6  A    between atoms: C_14  and  C_15
REMARK    7  A    between atoms: N_17  and  C_18
REMARK    8  A    between atoms: C_19  and  C_27
REMARK                            x       y       z     vdW  Elec       q    Type
REMARK                         _______ _______ _______ _____ _____    ______ ____
ROOT
ATOM      1  C   UNL     1       1.121   3.579   0.011  0.00  0.00    +0.107 C 
ENDROOT
BRANCH   1   2
ATOM      2  C   UNL     1       1.141   2.072   0.002  0.00  0.00    +0.218 C 
ATOM      3  O   UNL     1       2.200   1.480  -0.011  0.00  0.00    -0.275 OA
ATOM      4  N   UNL     1      -0.017   1.382   0.010  0.00  0.00    -0.279 N 
ATOM      5  H   UNL     1      -0.863   1.856   0.016  0.00  0.00    +0.155 HD
BRANCH   4   6
ATOM      6  C   UNL     1       0.002  -0.004   0.002  0.00  0.00    +0.084 A 
ATOM      7  C   UNL     1      -1.073  -0.881   0.013  0.00  0.00    +0.068 A 
ATOM      8  C   UNL     1      -0.780  -2.304  -0.003  0.00  0.00    -0.023 A 
ATOM      9  C   UNL     1       0.533  -2.620  -0.016  0.00  0.00    -0.004 A 
ATOM     10  S   UNL     1       1.374  -1.062  -0.016  0.00  0.00    -0.077 S 
ATOM     11  C   UNL     1       1.132  -3.993  -0.028  0.00  0.00    +0.043 C 
ATOM     12  C   UNL     1       0.038  -5.000   0.356  0.00  0.00    +0.005 C 
ATOM     13  C   UNL     1      -1.218  -4.703  -0.467  0.00  0.00    +0.005 C 
ATOM     14  C   UNL     1      -1.848  -3.390   0.002  0.00  0.00    +0.037 C 
BRANCH   7  15
ATOM     15  C   UNL     1      -2.455  -0.390   0.036  0.00  0.00    +0.244 C 
ATOM     16  O   UNL     1      -3.044  -0.181  -1.008  0.00  0.00    -0.270 OA
ATOM     17  N   UNL     1      -3.072  -0.170   1.214  0.00  0.00    -0.325 N 
ATOM     18  H   UNL     1      -2.603  -0.337   2.046  0.00  0.00    +0.145 HD
ATOM     19  H   UNL     1      -3.986   0.155   1.229  0.00  0.00    +0.145 HD
ENDBRANCH   7  15
ENDBRANCH   4   6
ENDBRANCH   1   2
BRANCH   1  20
ATOM     20  C   UNL     1       2.556   4.109  -0.000  0.00  0.00    +0.086 C 
BRANCH  20  21
ATOM     21  S   UNL     1       2.532   5.918   0.010  0.00  0.00    -0.086 S 
BRANCH  21  26
ATOM     22  C   UNL     1       5.983   7.786  -0.013  0.00  0.00    +0.111 A 
ATOM     23  C   UNL     1       6.904   6.731  -0.028  0.00  0.00    +0.064 A 
ATOM     24  C   UNL     1       6.422   5.436  -0.030  0.00  0.00    +0.149 A 
ATOM     25  N   UNL     1       5.113   5.231  -0.019  0.00  0.00    -0.218 NA
ATOM     26  C   UNL     1       4.262   6.248  -0.005  0.00  0.00    +0.189 A 
ATOM     27  N   UNL     1       4.680   7.505  -0.008  0.00  0.00    -0.219 NA
BRANCH  22  30
ATOM     28  C   UNL     1       6.511  11.407   0.000  0.00  0.00    +0.042 A 
ATOM     29  C   UNL     1       5.653  10.292  -0.002  0.00  0.00    +0.051 A 
ATOM     30  C   UNL     1       6.447   9.187  -0.010  0.00  0.00    +0.153 A 
ATOM     31  O   UNL     1       7.732   9.594  -0.021  0.00  0.00    -0.461 OA
ATOM     32  C   UNL     1       7.774  10.935  -0.015  0.00  0.00    +0.196 A 
ENDBRANCH  22  30
BRANCH  24  33
ATOM     33  C   UNL     1       7.375   4.268  -0.045  0.00  0.00    +0.434 C 
ATOM     34  F   UNL     1       6.651   3.077  -0.159  0.00  0.00    -0.164 F 
ATOM     35  F   UNL     1       8.245   4.391  -1.133  0.00  0.00    -0.164 F 
ATOM     36  F   UNL     1       8.113   4.254   1.143  0.00  0.00    -0.164 F 
ENDBRANCH  24  33
ENDBRANCH  21  26
ENDBRANCH  20  21
ENDBRANCH   1  20
TORSDOF 8
