REMARK  Name = ZINC37425492
REMARK  13 active torsions:
REMARK  status: ('A' for Active; 'I' for Inactive)
REMARK    1  A    between atoms: C_1  and  C_2
REMARK    2  A    between atoms: C_2  and  C_3
REMARK    3  A    between atoms: C_3  and  N_4
REMARK    4  A    between atoms: C_5  and  C_7
REMARK    5  A    between atoms: C_7  and  N_8
REMARK    6  A    between atoms: C_11  and  C_22
REMARK    7  A    between atoms: N_13  and  C_14
REMARK    8  A    between atoms: C_18  and  C_21
REMARK    9  A    between atoms: C_19  and  C_20
REMARK   10  A    between atoms: C_22  and  C_23
REMARK   11  A    between atoms: C_22  and  C_24
REMARK   12  A    between atoms: C_22  and  C_25
REMARK   13  A    between atoms: C_26  and  C_32
REMARK                            x       y       z     vdW  Elec       q    Type
REMARK                         _______ _______ _______ _____ _____    ______ ____
ROOT
ATOM      1  N   UNL     1       2.578 -10.576  -4.218  0.00  0.00    -0.246 N 
ATOM      2  C   UNL     1       2.094  -9.385  -4.780  0.00  0.00    +0.136 A 
ATOM      3  C   UNL     1       1.780  -9.243  -6.089  0.00  0.00    +0.034 A 
ATOM      4  C   UNL     1       1.343  -7.932  -6.285  0.00  0.00    +0.075 A 
ATOM      5  N   UNL     1       1.389  -7.308  -5.133  0.00  0.00    -0.169 NA
ATOM      6  N   UNL     1       1.859  -8.204  -4.161  0.00  0.00    -0.217 N 
ATOM      7  C   UNL     1       1.890 -10.333  -7.124  0.00  0.00    +0.112 C 
ATOM      8  S   UNL     1       3.660 -10.601  -7.502  0.00  0.00    -0.138 S 
ATOM      9  C   UNL     1       4.419 -10.489  -5.847  0.00  0.00    +0.166 C 
ATOM     10  C   UNL     1       3.588 -11.204  -4.827  0.00  0.00    +0.231 C 
ATOM     11  O   UNL     1       3.831 -12.361  -4.556  0.00  0.00    -0.274 OA
ENDROOT
BRANCH   6  12
ATOM     12  C   UNL     1       2.050  -7.928  -2.800  0.00  0.00    +0.071 A 
ATOM     13  C   UNL     1       3.330  -7.715  -2.306  0.00  0.00    +0.028 A 
ATOM     14  C   UNL     1       3.515  -7.443  -0.965  0.00  0.00    +0.002 A 
ATOM     15  C   UNL     1       2.426  -7.385  -0.113  0.00  0.00    +0.004 A 
ATOM     16  C   UNL     1       1.151  -7.597  -0.602  0.00  0.00    -0.046 A 
ATOM     17  C   UNL     1       0.959  -7.863  -1.944  0.00  0.00    -0.022 A 
ATOM     18  C   UNL     1      -0.433  -8.088  -2.477  0.00  0.00    +0.046 C 
ATOM     19  C   UNL     1      -0.033  -7.533   0.329  0.00  0.00    +0.044 C 
ENDBRANCH   6  12
BRANCH   7  20
ATOM     20  C   UNL     1       1.159  -9.920  -8.375  0.00  0.00    -0.030 A 
ATOM     21  C   UNL     1       1.868  -9.476  -9.475  0.00  0.00    +0.008 A 
ATOM     22  C   UNL     1       1.199  -9.097 -10.623  0.00  0.00    +0.038 A 
ATOM     23  C   UNL     1      -0.184  -9.161 -10.671  0.00  0.00    +0.123 A 
ATOM     24  C   UNL     1      -0.893  -9.606  -9.568  0.00  0.00    +0.038 A 
ATOM     25  C   UNL     1      -0.221  -9.989  -8.423  0.00  0.00    +0.008 A 
ATOM     26  F   UNL     1      -0.840  -8.791 -11.792  0.00  0.00    -0.205 F 
ENDBRANCH   7  20
BRANCH   4  27
ATOM     27  C   UNL     1       0.895  -7.337  -7.595  0.00  0.00    +0.007 C 
ATOM     28  C   UNL     1      -0.551  -7.751  -7.877  0.00  0.00    +0.017 C 
ATOM     29  C   UNL     1       0.983  -5.812  -7.519  0.00  0.00    +0.017 C 
ATOM     30  C   UNL     1       1.799  -7.844  -8.721  0.00  0.00    +0.017 C 
ENDBRANCH   4  27
BRANCH   1  31
ATOM     31  C   UNL     1       1.993 -11.115  -2.988  0.00  0.00    +0.210 C 
BRANCH  31  33
ATOM     32  N   UNL     1       0.154 -12.650  -2.373  0.00  0.00    -0.314 N 
ATOM     33  C   UNL     1       0.946 -12.141  -3.337  0.00  0.00    +0.231 C 
ATOM     34  O   UNL     1       0.817 -12.509  -4.485  0.00  0.00    -0.274 OA
ATOM     35  H   UNL     1       0.181 -12.280  -1.477  0.00  0.00    +0.149 HD
BRANCH  32  36
ATOM     36  C   UNL     1      -0.749 -13.763  -2.678  0.00  0.00    +0.104 C 
BRANCH  36  38
ATOM     37  C   UNL     1      -2.389 -15.383  -1.715  0.00  0.00    +0.005 C 
ATOM     38  C   UNL     1      -1.447 -14.221  -1.396  0.00  0.00    +0.015 C 
ENDBRANCH  36  38
ENDBRANCH  32  36
ENDBRANCH  31  33
ENDBRANCH   1  31
TORSDOF 7
