REMARK  Name = ZINC08837800
REMARK  8 active torsions:
REMARK  status: ('A' for Active; 'I' for Inactive)
REMARK    1  A    between atoms: C_4  and  C_7
REMARK    2  A    between atoms: C_7  and  O_8
REMARK    3  A    between atoms: O_8  and  C_9
REMARK    4  A    between atoms: C_18  and  C_30
REMARK    5  A    between atoms: C_20  and  C_26
REMARK    6  A    between atoms: C_20  and  C_28
REMARK    7  A    between atoms: C_21  and  N_25
REMARK    8  A    between atoms: C_22  and  C_23
REMARK                            x       y       z     vdW  Elec       q    Type
REMARK                         _______ _______ _______ _____ _____    ______ ____
ROOT
ATOM      1  C   UNL     1       1.335  -1.403   0.512  0.00  0.00    +0.403 C 
ATOM      2  O   UNL     1       0.384  -1.908   1.075  0.00  0.00    -0.226 OA
ATOM      3  N   UNL     1       1.158  -0.319  -0.269  0.00  0.00    -0.263 N 
ATOM      4  C   UNL     1       2.289   0.319  -0.966  0.00  0.00    +0.138 C 
ATOM      5  C   UNL     1       2.307   1.768  -0.552  0.00  0.00    -0.003 C 
ATOM      6  C   UNL     1       1.206   2.386  -0.172  0.00  0.00    -0.026 C 
ATOM      7  C   UNL     1      -0.155   1.756  -0.151  0.00  0.00    +0.048 C 
ATOM      8  C   UNL     1      -0.169   0.277  -0.462  0.00  0.00    +0.120 C 
ATOM      9  C   UNL     1      -0.806   2.060   1.200  0.00  0.00    +0.069 C 
ATOM     10  C   UNL     1      -0.995   3.572   1.329  0.00  0.00    +0.188 C 
ATOM     11  C   UNL     1       0.272   4.315   1.028  0.00  0.00    +0.054 C 
ATOM     12  C   UNL     1       1.303   3.786   0.323  0.00  0.00    +0.074 C 
ENDROOT
BRANCH   9  13
ATOM     13  C   UNL     1      -2.146   1.375   1.280  0.00  0.00    -0.022 A 
ATOM     14  C   UNL     1      -3.073   1.551   0.270  0.00  0.00    +0.007 A 
ATOM     15  C   UNL     1      -4.302   0.923   0.342  0.00  0.00    +0.020 A 
ATOM     16  C   UNL     1      -4.605   0.118   1.426  0.00  0.00    +0.042 A 
ATOM     17  C   UNL     1      -3.678  -0.058   2.437  0.00  0.00    +0.040 A 
ATOM     18  C   UNL     1      -2.446   0.567   2.362  0.00  0.00    +0.046 A 
ATOM     19 CL   UNL     1      -1.279   0.341   3.627  0.00  0.00    -0.083 Cl
ATOM     20 CL   UNL     1      -6.149  -0.670   1.517  0.00  0.00    -0.083 Cl
ENDBRANCH   9  13
BRANCH  11  21
ATOM     21  N   UNL     1       0.396   5.595   1.491  0.00  0.00    -0.358 N 
ATOM     22  H   UNL     1       1.313   6.167   1.287  0.00  0.00    +0.142 HD
ATOM     23  H   UNL     1      -0.422   6.053   2.066  0.00  0.00    +0.142 HD
ENDBRANCH  11  21
BRANCH  12  24
ATOM     24  C   UNL     1       2.472   4.568   0.055  0.00  0.00    +0.101 C 
ATOM     25  N   UNL     1       3.400   5.188  -0.157  0.00  0.00    -0.191 NA
ENDBRANCH  12  24
BRANCH  10  26
ATOM     26  C   UNL     1      -1.422   3.887   2.702  0.00  0.00    +0.091 C 
ATOM     27  N   UNL     1      -1.752   4.130   3.761  0.00  0.00    -0.194 NA
ENDBRANCH  10  26
BRANCH  10  28
ATOM     28  C   UNL     1      -2.041   4.006   0.389  0.00  0.00    +0.091 C 
ATOM     29  N   UNL     1      -2.848   4.342  -0.337  0.00  0.00    -0.194 NA
ENDBRANCH  10  28
BRANCH   1  30
ATOM     30  O   UNL     1       2.565  -1.926   0.669  0.00  0.00    -0.445 OA
BRANCH  30  31
ATOM     31  C   UNL     1       2.681  -3.093   1.525  0.00  0.00    +0.269 C 
BRANCH  31  35
ATOM     32  C   UNL     1       6.762  -4.345   1.683  0.00  0.00    +0.000 A 
ATOM     33  C   UNL     1       6.284  -3.430   2.603  0.00  0.00    +0.000 A 
ATOM     34  C   UNL     1       4.963  -3.025   2.551  0.00  0.00    +0.007 A 
ATOM     35  C   UNL     1       4.121  -3.534   1.581  0.00  0.00    -0.010 A 
ATOM     36  C   UNL     1       4.598  -4.452   0.664  0.00  0.00    +0.007 A 
ATOM     37  C   UNL     1       5.920  -4.853   0.712  0.00  0.00    +0.000 A 
ENDBRANCH  31  35
ENDBRANCH  30  31
ENDBRANCH   1  30
TORSDOF 8
