REMARK  Name = ZINC64015259
REMARK  6 active torsions:
REMARK  status: ('A' for Active; 'I' for Inactive)
REMARK    1  A    between atoms: C_1  and  C_2
REMARK    2  A    between atoms: C_2  and  C_3
REMARK    3  A    between atoms: C_2  and  C_4
REMARK    4  A    between atoms: C_4  and  C_5
REMARK    5  A    between atoms: C_7  and  C_12
REMARK    6  A    between atoms: C_27  and  C_29
REMARK                            x       y       z     vdW  Elec       q    Type
REMARK                         _______ _______ _______ _____ _____    ______ ____
ROOT
ATOM      1  C   UNL     1      -2.769  -5.098   1.582  0.00  0.00    +0.266 C 
ATOM      2  O   UNL     1      -3.137  -4.639   2.645  0.00  0.00    -0.268 OA
ATOM      3  N   UNL     1      -2.776  -6.431   1.384  0.00  0.00    -0.287 N 
ATOM      4  C   UNL     1      -2.063  -6.997   0.235  0.00  0.00    +0.113 C 
ATOM      5  C   UNL     1      -1.019  -8.015   0.730  0.00  0.00    +0.052 C 
ATOM      6  C   UNL     1      -1.708  -8.875   1.760  0.00  0.00    -0.035 C 
ATOM      7  C   UNL     1      -1.810 -10.193   1.877  0.00  0.00    -0.001 A 
ATOM      8  C   UNL     1      -1.202 -11.294   1.114  0.00  0.00    +0.010 A 
ATOM      9  C   UNL     1      -1.545 -12.552   1.498  0.00  0.00    +0.001 A 
ATOM     10  C   UNL     1      -2.422 -12.821   2.554  0.00  0.00    +0.002 A 
ATOM     11  C   UNL     1      -3.021 -11.870   3.315  0.00  0.00    +0.026 A 
ATOM     12  C   UNL     1      -2.731 -10.508   3.012  0.00  0.00    +0.043 A 
ATOM     13  N   UNL     1      -3.139  -9.414   3.583  0.00  0.00    -0.375 N 
ATOM     14  C   UNL     1      -2.486  -8.280   2.929  0.00  0.00    +0.131 C 
ATOM     15  C   UNL     1      -3.494  -7.303   2.327  0.00  0.00    +0.136 C 
ATOM     16  H   UNL     1      -3.770  -9.359   4.318  0.00  0.00    +0.160 HD
ENDROOT
BRANCH   1  19
ATOM     17  C   UNL     1      -1.701  -2.019  -0.295  0.00  0.00    +0.047 A 
ATOM     18  C   UNL     1      -2.130  -2.829   0.748  0.00  0.00    +0.056 A 
ATOM     19  C   UNL     1      -2.312  -4.189   0.500  0.00  0.00    +0.131 A 
ATOM     20  N   UNL     1      -2.070  -4.660  -0.720  0.00  0.00    -0.210 NA
ATOM     21  C   UNL     1      -1.662  -3.854  -1.686  0.00  0.00    +0.213 A 
ATOM     22  N   UNL     1      -1.485  -2.556  -1.482  0.00  0.00    -0.220 NA
ATOM     23  N   UNL     1      -1.419  -4.378  -2.944  0.00  0.00    -0.327 N 
ATOM     24  H   UNL     1      -1.548  -5.325  -3.108  0.00  0.00    +0.145 HD
ATOM     25  H   UNL     1      -1.119  -3.798  -3.662  0.00  0.00    +0.145 HD
BRANCH  17  26
ATOM     26  C   UNL     1      -1.490  -0.543  -0.076  0.00  0.00    +0.058 C 
BRANCH  26  28
ATOM     27  C   UNL     1       0.105   1.354  -0.392  0.00  0.00    +0.007 C 
ATOM     28  C   UNL     1      -0.069  -0.163  -0.496  0.00  0.00    -0.011 C 
ATOM     29  C   UNL     1       0.938  -0.856   0.424  0.00  0.00    +0.007 C 
ENDBRANCH  26  28
ENDBRANCH  17  26
ENDBRANCH   1  19
BRANCH  15  30
ATOM     30  C   UNL     1      -4.111  -6.471   3.422  0.00  0.00    +0.010 A 
ATOM     31  C   UNL     1      -3.513  -6.415   4.667  0.00  0.00    +0.008 A 
ATOM     32  C   UNL     1      -4.079  -5.652   5.672  0.00  0.00    +0.000 A 
ATOM     33  C   UNL     1      -5.243  -4.946   5.433  0.00  0.00    +0.003 A 
ATOM     34  C   UNL     1      -5.842  -5.001   4.189  0.00  0.00    +0.039 A 
ATOM     35  C   UNL     1      -5.273  -5.760   3.180  0.00  0.00    +0.128 A 
ATOM     36  F   UNL     1      -5.856  -5.811   1.962  0.00  0.00    -0.205 F 
ENDBRANCH  15  30
TORSDOF 4
