REMARK  Name = ZINC22924940
REMARK  10 active torsions:
REMARK  status: ('A' for Active; 'I' for Inactive)
REMARK    1  A    between atoms: C_1  and  C_2
REMARK    2  A    between atoms: C_2  and  C_3
REMARK    3  A    between atoms: C_10  and  C_15
REMARK    4  A    between atoms: C_15  and  C_17
REMARK    5  A    between atoms: C_15  and  N_26
REMARK    6  A    between atoms: N_21  and  C_22
REMARK    7  A    between atoms: C_22  and  C_23
REMARK    8  A    between atoms: C_22  and  C_24
REMARK    9  A    between atoms: C_22  and  C_25
REMARK   10  A    between atoms: N_29  and  C_32
REMARK                            x       y       z     vdW  Elec       q    Type
REMARK                         _______ _______ _______ _____ _____    ______ ____
ROOT
ATOM      1  C   UNL     1      -6.232  -2.335  -3.669  0.00  0.00    +0.162 C 
ENDROOT
BRANCH   1   9
ATOM      2  C   UNL     1      -3.966  -3.304   2.007  0.00  0.00    -0.047 A 
ATOM      3  C   UNL     1      -3.898  -1.968   2.378  0.00  0.00    +0.005 A 
ATOM      4  C   UNL     1      -4.294  -0.975   1.507  0.00  0.00    +0.026 A 
ATOM      5  C   UNL     1      -4.767  -1.314   0.243  0.00  0.00    +0.049 A 
ATOM      6  C   UNL     1      -4.834  -2.669  -0.129  0.00  0.00    -0.001 A 
ATOM      7  C   UNL     1      -4.423  -3.659   0.770  0.00  0.00    +0.013 A 
ATOM      8  C   UNL     1      -5.333  -3.015  -1.461  0.00  0.00    +0.021 A 
ATOM      9  C   UNL     1      -5.714  -2.013  -2.291  0.00  0.00    +0.042 A 
ATOM     10  C   UNL     1      -5.626  -0.669  -1.869  0.00  0.00    +0.254 A 
ATOM     11  O   UNL     1      -5.973   0.217  -2.630  0.00  0.00    -0.268 OA
ATOM     12  N   UNL     1      -5.169  -0.341  -0.647  0.00  0.00    -0.322 N 
ATOM     13  H   UNL     1      -5.122   0.593  -0.389  0.00  0.00    +0.169 HD
BRANCH   2  15
ATOM     14  C   UNL     1      -2.036  -4.651   2.786  0.00  0.00    +0.009 C 
ATOM     15  C   UNL     1      -3.528  -4.371   2.977  0.00  0.00    +0.032 C 
ENDBRANCH   2  15
ENDBRANCH   1   9
BRANCH   1  16
ATOM     16  N   UNL     1      -7.606  -1.832  -3.805  0.00  0.00    -0.292 NA
ATOM     17  C   UNL     1      -8.466  -2.352  -2.733  0.00  0.00    +0.067 C 
ATOM     18  C   UNL     1      -9.869  -1.758  -2.876  0.00  0.00    -0.063 C 
ATOM     19  N   UNL     1     -10.422  -2.118  -4.189  0.00  0.00    +0.383 N 
ATOM     20  C   UNL     1      -9.565  -1.571  -5.249  0.00  0.00    -0.063 C 
ATOM     21  C   UNL     1      -8.159  -2.163  -5.126  0.00  0.00    +0.067 C 
ATOM     22  H   UNL     1     -10.460  -3.123  -4.273  0.00  0.00    -0.081 HD
BRANCH  19  23
ATOM     23  C   UNL     1     -11.776  -1.564  -4.319  0.00  0.00    -0.068 C 
ATOM     24  C   UNL     1     -12.669  -2.135  -3.216  0.00  0.00    -0.015 C 
ATOM     25  C   UNL     1     -14.079  -1.558  -3.351  0.00  0.00    -0.002 C 
ATOM     26  C   UNL     1     -14.655  -1.933  -4.718  0.00  0.00    -0.000 C 
ATOM     27  C   UNL     1     -13.762  -1.361  -5.821  0.00  0.00    -0.002 C 
ATOM     28  C   UNL     1     -12.351  -1.939  -5.686  0.00  0.00    -0.015 C 
ENDBRANCH  19  23
ENDBRANCH   1  16
BRANCH   1  29
ATOM     29  C   UNL     1      -6.222  -3.828  -3.873  0.00  0.00    +0.174 A 
ATOM     30  N   UNL     1      -7.030  -4.699  -3.321  0.00  0.00    -0.111 NA
ATOM     31  N   UNL     1      -6.702  -5.871  -3.746  0.00  0.00    -0.023 NA
ATOM     32  N   UNL     1      -5.706  -5.769  -4.554  0.00  0.00    -0.043 NA
ATOM     33  N   UNL     1      -5.383  -4.525  -4.663  0.00  0.00    -0.222 N 
BRANCH  33  34
ATOM     34  C   UNL     1      -4.306  -3.974  -5.488  0.00  0.00    +0.059 C 
ATOM     35  C   UNL     1      -3.347  -3.172  -4.606  0.00  0.00    +0.036 C 
ATOM     36  C   UNL     1      -3.544  -5.117  -6.162  0.00  0.00    +0.036 C 
ATOM     37  C   UNL     1      -4.901  -3.057  -6.559  0.00  0.00    +0.036 C 
ENDBRANCH  33  34
ENDBRANCH   1  29
TORSDOF 6
