REMARK  Name = ZINC36068464
REMARK  12 active torsions:
REMARK  status: ('A' for Active; 'I' for Inactive)
REMARK    1  A    between atoms: C_1  and  C_2
REMARK    2  A    between atoms: C_2  and  C_3
REMARK    3  A    between atoms: C_3  and  C_5
REMARK    4  A    between atoms: C_3  and  N_6
REMARK    5  A    between atoms: C_7  and  C_9
REMARK    6  A    between atoms: C_12  and  C_14
REMARK    7  A    between atoms: C_14  and  N_15
REMARK    8  A    between atoms: N_15  and  C_16
REMARK    9  A    between atoms: N_15  and  C_26
REMARK   10  A    between atoms: C_16  and  C_17
REMARK   11  A    between atoms: C_26  and  C_27
REMARK   12  A    between atoms: C_32  and  C_33
REMARK                            x       y       z     vdW  Elec       q    Type
REMARK                         _______ _______ _______ _____ _____    ______ ____
ROOT
ATOM      1  N   UNL     1       7.753   0.393   0.510  0.00  0.00    +0.391 N 
ATOM      2  H   UNL     1       8.247  -0.083  -0.229  0.00  0.00    -0.080 HD
ENDROOT
BRANCH   1   3
ATOM      3  C   UNL     1       6.985   1.511  -0.054  0.00  0.00    +0.020 C 
BRANCH   3   7
ATOM      4  C   UNL     1       9.016   3.235  -2.509  0.00  0.00    +0.163 A 
ATOM      5  C   UNL     1       9.298   3.970  -1.398  0.00  0.00    +0.230 A 
ATOM      6  O   UNL     1       8.599   3.433  -0.386  0.00  0.00    -0.449 OA
ATOM      7  C   UNL     1       7.902   2.392  -0.863  0.00  0.00    +0.179 A 
ATOM      8  N   UNL     1       8.139   2.265  -2.135  0.00  0.00    -0.210 NA
BRANCH   4  10
ATOM      9  N   UNL     1       9.111   2.707  -4.894  0.00  0.00    -0.307 N 
ATOM     10  C   UNL     1       9.555   3.454  -3.864  0.00  0.00    +0.266 C 
ATOM     11  O   UNL     1      10.400   4.308  -4.051  0.00  0.00    -0.268 OA
ATOM     12  H   UNL     1       8.495   1.975  -4.732  0.00  0.00    +0.149 HD
BRANCH   9  13
ATOM     13  C   UNL     1       9.559   3.000  -6.258  0.00  0.00    +0.070 C 
ATOM     14  C   UNL     1      10.895   2.300  -6.517  0.00  0.00    +0.028 C 
BRANCH  13  16
ATOM     15  C   UNL     1       7.216   3.282  -7.079  0.00  0.00    +0.005 C 
ATOM     16  C   UNL     1       8.516   2.495  -7.257  0.00  0.00    +0.018 C 
ENDBRANCH  13  16
ENDBRANCH   9  13
ENDBRANCH   4  10
ENDBRANCH   3   7
ENDBRANCH   1   3
BRANCH   1  17
ATOM     17  C   UNL     1       8.717   0.907   1.492  0.00  0.00    -0.042 C 
BRANCH  17  18
ATOM     18  C   UNL     1       9.588  -0.222   1.980  0.00  0.00    -0.060 A 
ATOM     19  C   UNL     1       9.203  -0.962   3.083  0.00  0.00    +0.005 A 
ATOM     20  C   UNL     1       9.997  -1.999   3.534  0.00  0.00    +0.050 A 
ATOM     21  C   UNL     1      11.183  -2.299   2.882  0.00  0.00    +0.166 A 
ATOM     22  C   UNL     1      11.570  -1.553   1.772  0.00  0.00    +0.166 A 
ATOM     23  C   UNL     1      10.766  -0.519   1.322  0.00  0.00    +0.051 A 
ATOM     24  O   UNL     1      12.761  -2.039   1.314  0.00  0.00    -0.453 OA
ATOM     25  C   UNL     1      13.299  -2.822   2.397  0.00  0.00    +0.466 C 
ATOM     26  O   UNL     1      12.130  -3.252   3.120  0.00  0.00    -0.453 OA
ENDBRANCH  17  18
ENDBRANCH   1  17
BRANCH   1  27
ATOM     27  C   UNL     1       6.836  -0.546   1.170  0.00  0.00    -0.041 C 
BRANCH  27  28
ATOM     28  C   UNL     1       5.929  -1.169   0.141  0.00  0.00    -0.052 A 
ATOM     29  C   UNL     1       4.670  -0.643  -0.079  0.00  0.00    +0.002 A 
ATOM     30  C   UNL     1       3.837  -1.215  -1.023  0.00  0.00    +0.000 A 
ATOM     31  C   UNL     1       4.264  -2.312  -1.747  0.00  0.00    +0.001 A 
ATOM     32  C   UNL     1       5.523  -2.838  -1.527  0.00  0.00    +0.012 A 
ATOM     33  C   UNL     1       6.357  -2.264  -0.586  0.00  0.00    +0.056 A 
BRANCH  33  34
ATOM     34  C   UNL     1       7.733  -2.833  -0.350  0.00  0.00    +0.418 C 
ATOM     35  F   UNL     1       7.889  -4.002  -1.104  0.00  0.00    -0.166 F 
ATOM     36  F   UNL     1       8.698  -1.897  -0.737  0.00  0.00    -0.166 F 
ATOM     37  F   UNL     1       7.888  -3.130   1.008  0.00  0.00    -0.166 F 
ENDBRANCH  33  34
ENDBRANCH  27  28
ENDBRANCH   1  27
TORSDOF 10
