REMARK  Name = ZINC64669483
REMARK  8 active torsions:
REMARK  status: ('A' for Active; 'I' for Inactive)
REMARK    1  A    between atoms: C_1  and  C_2
REMARK    2  A    between atoms: C_5  and  C_8
REMARK    3  A    between atoms: C_8  and  N_9
REMARK    4  A    between atoms: C_10  and  C_12
REMARK    5  A    between atoms: C_15  and  C_17
REMARK    6  A    between atoms: C_18  and  C_27
REMARK    7  A    between atoms: N_21  and  C_22
REMARK    8  A    between atoms: C_30  and  C_33
REMARK                            x       y       z     vdW  Elec       q    Type
REMARK                         _______ _______ _______ _____ _____    ______ ____
ROOT
ATOM      1  C   UNL     1       6.681  -6.051  -0.060  0.00  0.00    +0.110 A 
ATOM      2  C   UNL     1       7.731  -6.533   0.711  0.00  0.00    +0.075 A 
ATOM      3  N   UNL     1       8.821  -5.813   0.396  0.00  0.00    -0.345 N 
ATOM      4  C   UNL     1       8.515  -4.927  -0.511  0.00  0.00    +0.175 A 
ATOM      5  N   UNL     1       7.208  -5.037  -0.831  0.00  0.00    -0.326 N 
ATOM      6  H   UNL     1       9.702  -5.933   0.784  0.00  0.00    +0.167 HD
ENDROOT
BRANCH   2   7
ATOM      7  C   UNL     1       7.662  -7.635   1.698  0.00  0.00    +0.000 A 
ATOM      8  C   UNL     1       6.603  -7.698   2.604  0.00  0.00    +0.010 A 
ATOM      9  C   UNL     1       6.544  -8.727   3.521  0.00  0.00    +0.004 A 
ATOM     10  C   UNL     1       7.532  -9.695   3.543  0.00  0.00    -0.050 A 
ATOM     11  C   UNL     1       8.585  -9.638   2.647  0.00  0.00    +0.004 A 
ATOM     12  C   UNL     1       8.652  -8.617   1.722  0.00  0.00    +0.010 A 
ATOM     13  C   UNL     1       7.462 -10.817   4.547  0.00  0.00    +0.044 C 
ENDBRANCH   2   7
BRANCH   1  17
ATOM     14  C   UNL     1       3.095  -6.537  -0.051  0.00  0.00    +0.190 A 
ATOM     15  C   UNL     1       3.501  -7.856  -0.066  0.00  0.00    +0.055 A 
ATOM     16  C   UNL     1       4.896  -7.851  -0.071  0.00  0.00    +0.052 A 
ATOM     17  C   UNL     1       5.295  -6.529  -0.059  0.00  0.00    +0.154 A 
ATOM     18  O   UNL     1       4.196  -5.754  -0.053  0.00  0.00    -0.449 OA
BRANCH  14  20
ATOM     19  N   UNL     1       1.447  -4.746  -0.032  0.00  0.00    -0.305 N 
ATOM     20  C   UNL     1       1.710  -6.067  -0.040  0.00  0.00    +0.280 C 
ATOM     21  O   UNL     1       0.795  -6.871  -0.040  0.00  0.00    -0.267 OA
ATOM     22  H   UNL     1       2.176  -4.106  -0.032  0.00  0.00    +0.149 HD
BRANCH  19  23
ATOM     23  C   UNL     1       0.059  -4.275  -0.021  0.00  0.00    +0.140 C 
BRANCH  23  28
ATOM     24  C   UNL     1      -0.018   1.503   0.010  0.00  0.00    +0.044 C 
ATOM     25  C   UNL     1       0.002  -0.004   0.002  0.00  0.00    -0.050 A 
ATOM     26  C   UNL     1       0.006  -0.689  -1.199  0.00  0.00    +0.003 A 
ATOM     27  C   UNL     1       0.025  -2.071  -1.206  0.00  0.00    +0.005 A 
ATOM     28  C   UNL     1       0.040  -2.768  -0.013  0.00  0.00    -0.030 A 
ATOM     29  C   UNL     1       0.037  -2.084   1.188  0.00  0.00    +0.005 A 
ATOM     30  C   UNL     1       0.023  -0.702   1.195  0.00  0.00    +0.003 A 
ENDBRANCH  23  28
ENDBRANCH  19  23
ENDBRANCH  14  20
ENDBRANCH   1  17
BRANCH   5  31
ATOM     31  C   UNL     1       6.483  -4.226  -1.812  0.00  0.00    +0.089 C 
ATOM     32  C   UNL     1       7.158  -4.341  -3.195  0.00  0.00    +0.025 C 
ATOM     33  C   UNL     1       7.029  -2.921  -3.800  0.00  0.00    +0.002 C 
ATOM     34  C   UNL     1       7.253  -2.005  -2.572  0.00  0.00    +0.002 C 
ATOM     35  C   UNL     1       6.543  -2.740  -1.416  0.00  0.00    +0.025 C 
ENDBRANCH   5  31
TORSDOF 6
