REMARK  Name = ZINC16001445
REMARK  2 active torsions:
REMARK  status: ('A' for Active; 'I' for Inactive)
REMARK    1  A    between atoms: C_1  and  C_2
REMARK    2  A    between atoms: N_24  and  C_27
REMARK                            x       y       z     vdW  Elec       q    Type
REMARK                         _______ _______ _______ _____ _____    ______ ____
ROOT
ATOM      1  C   UNL     1      -2.562   3.862   0.049  0.00  0.00    +0.047 C 
ATOM      2  C   UNL     1      -1.243   3.134   0.031  0.00  0.00    -0.011 A 
ATOM      3  C   UNL     1      -1.219   1.753   0.017  0.00  0.00    +0.046 A 
ATOM      4  C   UNL     1      -0.013   1.076   0.008  0.00  0.00    +0.020 A 
ATOM      5  C   UNL     1       1.175   1.786   0.000  0.00  0.00    +0.006 A 
ATOM      6  C   UNL     1       1.155   3.162   0.007  0.00  0.00    -0.027 A 
ATOM      7  C   UNL     1      -0.052   3.855   0.023  0.00  0.00    +0.040 A 
ATOM      8  N   UNL     1       0.181   5.232   0.026  0.00  0.00    -0.286 N 
ATOM      9  C   UNL     1       1.496   5.524   0.011  0.00  0.00    +0.212 C 
ATOM     10  O   UNL     1       1.991   6.632   0.008  0.00  0.00    -0.277 OA
ATOM     11  C   UNL     1       2.232   4.211  -0.002  0.00  0.00    +0.053 C 
ATOM     12  C   UNL     1       3.222   4.068   1.102  0.00  0.00    +0.089 C 
ATOM     13  C   UNL     1       4.081   2.877   0.507  0.00  0.00    +0.074 C 
ATOM     14  C   UNL     1       4.362   3.450  -0.857  0.00  0.00    -0.054 C 
ATOM     15  N   UNL     1       3.057   4.093  -1.237  0.00  0.00    +0.395 N 
ATOM     16  C   UNL     1       3.380   5.425  -1.782  0.00  0.00    -0.076 C 
ATOM     17  C   UNL     1       4.611   5.889  -0.994  0.00  0.00    -0.020 C 
ATOM     18  C   UNL     1       5.402   4.582  -0.769  0.00  0.00    -0.016 C 
ATOM     19  C   UNL     1       5.016   2.714   1.635  0.00  0.00    +0.228 C 
ATOM     20  O   UNL     1       6.195   2.435   1.583  0.00  0.00    -0.275 OA
ATOM     21  N   UNL     1       4.264   2.946   2.757  0.00  0.00    -0.210 N 
ATOM     22  C   UNL     1       3.071   3.560   2.472  0.00  0.00    +0.229 C 
ATOM     23  O   UNL     1       2.102   3.660   3.194  0.00  0.00    -0.275 OA
ATOM     24 CL   UNL     1      -2.710   0.863   0.019  0.00  0.00    -0.083 Cl
ATOM     25  H   UNL     1      -0.666   5.933   0.040  0.00  0.00    +0.155 HD
ATOM     26  H   UNL     1       2.491   3.526  -1.991  0.00  0.00    -0.079 HD
ENDROOT
BRANCH  21  27
ATOM     27  C   UNL     1       4.669   2.595   4.053  0.00  0.00    +0.044 A 
ATOM     28  C   UNL     1       3.847   2.872   5.138  0.00  0.00    +0.025 A 
ATOM     29  C   UNL     1       4.246   2.521   6.412  0.00  0.00    +0.022 A 
ATOM     30  C   UNL     1       5.468   1.903   6.611  0.00  0.00    +0.041 A 
ATOM     31  C   UNL     1       6.291   1.631   5.532  0.00  0.00    +0.022 A 
ATOM     32  C   UNL     1       5.894   1.975   4.255  0.00  0.00    +0.025 A 
ATOM     33 CL   UNL     1       5.970   1.469   8.215  0.00  0.00    -0.084 Cl
ENDBRANCH  21  27
TORSDOF 1
