REMARK  Name = ZINC47139173
REMARK  6 active torsions:
REMARK  status: ('A' for Active; 'I' for Inactive)
REMARK    1  A    between atoms: C_3  and  C_6
REMARK    2  A    between atoms: C_6  and  N_7
REMARK    3  A    between atoms: C_11  and  C_12
REMARK    4  A    between atoms: N_21  and  N_22
REMARK    5  A    between atoms: C_23  and  C_24
REMARK    6  A    between atoms: C_29  and  O_30
REMARK                            x       y       z     vdW  Elec       q    Type
REMARK                         _______ _______ _______ _____ _____    ______ ____
ROOT
ATOM      1  N   UNL     1       4.155   0.110   1.001  0.00  0.00    -0.237 N 
ATOM      2  C   UNL     1       3.997   1.205   1.726  0.00  0.00    +0.259 C 
ATOM      3  O   UNL     1       3.510   2.216   1.254  0.00  0.00    -0.269 OA
ATOM      4  C   UNL     1       4.439   1.145   3.133  0.00  0.00    +0.078 C 
ATOM      5  C   UNL     1       4.396   2.107   4.090  0.00  0.00    +0.028 C 
ATOM      6  S   UNL     1       5.044  -0.533   3.237  0.00  0.00    -0.047 S 
ATOM      7  C   UNL     1       4.703  -1.026   1.555  0.00  0.00    +0.190 C 
ATOM      8  N   UNL     1       4.924  -2.192   0.982  0.00  0.00    -0.126 NA
ENDROOT
BRANCH   5   9
ATOM      9  C   UNL     1       5.021   1.869   5.399  0.00  0.00    -0.024 A 
ATOM     10  C   UNL     1       4.618   2.610   6.516  0.00  0.00    +0.011 A 
ATOM     11  C   UNL     1       5.208   2.382   7.739  0.00  0.00    +0.039 A 
ATOM     12  C   UNL     1       6.200   1.420   7.866  0.00  0.00    +0.123 A 
ATOM     13  C   UNL     1       6.604   0.682   6.763  0.00  0.00    +0.039 A 
ATOM     14  C   UNL     1       6.018   0.895   5.535  0.00  0.00    +0.011 A 
ATOM     15  F   UNL     1       6.774   1.201   9.069  0.00  0.00    -0.205 F 
ENDBRANCH   5   9
BRANCH   8  16
ATOM     16  N   UNL     1       5.522  -3.129   1.637  0.00  0.00    -0.155 NA
ATOM     17  C   UNL     1       5.821  -4.254   1.042  0.00  0.00    +0.146 C 
BRANCH  17  18
ATOM     18  C   UNL     1       5.583  -4.408  -0.400  0.00  0.00    +0.037 A 
ATOM     19  C   UNL     1       5.350  -3.284  -1.199  0.00  0.00    +0.028 A 
ATOM     20  C   UNL     1       5.128  -3.436  -2.552  0.00  0.00    +0.019 A 
ATOM     21  C   UNL     1       5.136  -4.699  -3.123  0.00  0.00    +0.019 A 
ATOM     22  C   UNL     1       5.364  -5.818  -2.344  0.00  0.00    +0.047 A 
ATOM     23  C   UNL     1       5.595  -5.683  -0.985  0.00  0.00    +0.126 A 
ATOM     24 BR   UNL     1       4.812  -1.916  -3.632  0.00  0.00    -0.050 Br
BRANCH  23  25
ATOM     25  O   UNL     1       5.825  -6.782  -0.221  0.00  0.00    -0.506 OA
ATOM     26  H   UNL     1       5.022  -7.222   0.089  0.00  0.00    +0.292 HD
ENDBRANCH  23  25
ENDBRANCH  17  18
ENDBRANCH   8  16
BRANCH   1  27
ATOM     27  C   UNL     1       3.737   0.103  -0.403  0.00  0.00    +0.190 C 
BRANCH  27  30
ATOM     28  C   UNL     1       0.133  -0.644  -0.590  0.00  0.00    +0.041 A 
ATOM     29  C   UNL     1       1.203   0.269  -0.448  0.00  0.00    +0.046 A 
ATOM     30  C   UNL     1       2.339  -0.449  -0.508  0.00  0.00    +0.123 A 
ATOM     31  O   UNL     1       2.015  -1.741  -0.679  0.00  0.00    -0.466 OA
ATOM     32  C   UNL     1       0.679  -1.865  -0.730  0.00  0.00    +0.195 A 
ENDBRANCH  27  30
ENDBRANCH   1  27
TORSDOF 6
