REMARK  Name = ZINC21808495
REMARK  8 active torsions:
REMARK  status: ('A' for Active; 'I' for Inactive)
REMARK    1  A    between atoms: C_1  and  C_2
REMARK    2  A    between atoms: C_2  and  C_25
REMARK    3  A    between atoms: N_14  and  C_15
REMARK    4  A    between atoms: C_15  and  C_16
REMARK    5  A    between atoms: C_16  and  N_17
REMARK    6  A    between atoms: N_17  and  C_18
REMARK    7  A    between atoms: N_17  and  C_19
REMARK    8  A    between atoms: N_27  and  C_28
REMARK                            x       y       z     vdW  Elec       q    Type
REMARK                         _______ _______ _______ _____ _____    ______ ____
ROOT
ATOM      1  C   UNL     1      -0.996  -0.839  -2.366  0.00  0.00    +0.043 C 
ATOM      2  C   UNL     1      -2.047  -0.749  -1.258  0.00  0.00    +0.128 C 
ATOM      3  C   UNL     1      -2.873  -2.035  -1.255  0.00  0.00    +0.157 C 
ATOM      4  N   UNL     1      -3.667  -2.091  -0.025  0.00  0.00    -0.333 N 
ATOM      5  C   UNL     1      -4.888  -2.703   0.193  0.00  0.00    +0.057 A 
ATOM      6  C   UNL     1      -5.842  -3.443  -0.521  0.00  0.00    +0.034 A 
ATOM      7  C   UNL     1      -6.959  -3.885   0.095  0.00  0.00    +0.048 A 
ATOM      8  S   UNL     1      -6.751  -3.280   1.761  0.00  0.00    -0.095 S 
ATOM      9  C   UNL     1      -5.188  -2.471   1.544  0.00  0.00    +0.038 A 
ATOM     10  C   UNL     1      -4.167  -1.728   2.125  0.00  0.00    +0.048 A 
ATOM     11  C   UNL     1      -3.239  -1.492   1.155  0.00  0.00    +0.106 A 
ATOM     12  C   UNL     1      -1.974  -0.750   1.201  0.00  0.00    +0.264 C 
ATOM     13  O   UNL     1      -1.495  -0.366   2.252  0.00  0.00    -0.268 OA
ATOM     14  N   UNL     1      -1.372  -0.511   0.012  0.00  0.00    -0.282 N 
ENDROOT
BRANCH   2  15
ATOM     15  C   UNL     1      -2.961   0.414  -1.549  0.00  0.00    +0.238 C 
ATOM     16  O   UNL     1      -3.124   0.786  -2.691  0.00  0.00    -0.273 OA
ATOM     17  N   UNL     1      -3.598   1.039  -0.539  0.00  0.00    -0.311 N 
ATOM     18  H   UNL     1      -3.451   0.701   0.498  0.00  0.00    +0.149 HD
BRANCH  17  19
ATOM     19  C   UNL     1      -4.487   2.169  -0.821  0.00  0.00    +0.073 C 
ATOM     20  C   UNL     1      -3.664   3.456  -0.904  0.00  0.00    +0.022 C 
ATOM     21  C   UNL     1      -4.593   4.636  -1.199  0.00  0.00    +0.002 C 
ATOM     22  C   UNL     1      -5.627   4.763  -0.079  0.00  0.00    +0.000 C 
ATOM     23  C   UNL     1      -6.450   3.476   0.004  0.00  0.00    +0.002 C 
ATOM     24  C   UNL     1      -5.521   2.296   0.299  0.00  0.00    +0.022 C 
ENDBRANCH  17  19
ENDBRANCH   2  15
BRANCH  14  25
ATOM     25  C   UNL     1       0.002  -0.004   0.002  0.00  0.00    +0.091 C 
BRANCH  25  26
ATOM     26  C   UNL     1      -0.019   1.526   0.010  0.00  0.00    -0.060 C 
BRANCH  26  27
ATOM     27  N   UNL     1       1.359   2.034   0.000  0.00  0.00    +0.381 N 
ATOM     28  C   UNL     1       2.058   1.687   1.245  0.00  0.00    -0.096 C 
ATOM     29  H   UNL     1       1.892   1.551  -0.832  0.00  0.00    -0.082 HD
BRANCH  27  30
ATOM     30  C   UNL     1       1.384   3.485  -0.231  0.00  0.00    -0.069 C 
ATOM     31  C   UNL     1       0.735   3.797  -1.581  0.00  0.00    -0.015 C 
ATOM     32  C   UNL     1       0.760   5.308  -1.821  0.00  0.00    -0.002 C 
ATOM     33  C   UNL     1       2.209   5.800  -1.825  0.00  0.00    -0.000 C 
ATOM     34  C   UNL     1       2.858   5.487  -0.475  0.00  0.00    -0.002 C 
ATOM     35  C   UNL     1       2.833   3.977  -0.235  0.00  0.00    -0.015 C 
ENDBRANCH  27  30
ENDBRANCH  26  27
ENDBRANCH  25  26
ENDBRANCH  14  25
TORSDOF 6
