REMARK  Name = ZINC55364175
REMARK  6 active torsions:
REMARK  status: ('A' for Active; 'I' for Inactive)
REMARK    1  A    between atoms: C_6  and  C_7
REMARK    2  A    between atoms: N_18  and  C_24
REMARK    3  A    between atoms: C_24  and  C_25
REMARK    4  A    between atoms: C_25  and  C_27
REMARK    5  A    between atoms: C_25  and  O_34
REMARK    6  A    between atoms: C_27  and  N_28
REMARK                            x       y       z     vdW  Elec       q    Type
REMARK                         _______ _______ _______ _____ _____    ______ ____
ROOT
ATOM      1  C   UNL     1      -0.017   1.683   0.553  0.00  0.00    +0.006 A 
ATOM      2  C   UNL     1       1.166   2.399   0.484  0.00  0.00    +0.027 A 
ATOM      3  C   UNL     1       2.348   1.669   0.396  0.00  0.00    +0.050 A 
ATOM      4  C   UNL     1       2.317   0.242   0.381  0.00  0.00    +0.004 A 
ATOM      5  C   UNL     1       1.104  -0.451   0.450  0.00  0.00    +0.014 A 
ATOM      6  C   UNL     1      -0.043   0.299   0.535  0.00  0.00    -0.044 A 
ATOM      7  C   UNL     1       3.687  -0.186   0.290  0.00  0.00    -0.017 A 
ATOM      8  C   UNL     1       4.437   0.934   0.278  0.00  0.00    +0.040 A 
ATOM      9  N   UNL     1       3.652   2.053   0.309  0.00  0.00    -0.341 N 
ATOM     10  C   UNL     1       4.241   3.399   0.235  0.00  0.00    +0.137 C 
ATOM     11  C   UNL     1       5.740   3.281   0.537  0.00  0.00    +0.106 C 
ATOM     12  N   UNL     1       6.365   2.224  -0.271  0.00  0.00    -0.290 NA
ATOM     13  C   UNL     1       5.946   0.887   0.200  0.00  0.00    +0.104 C 
ATOM     14  C   UNL     1       6.336  -0.181  -0.809  0.00  0.00    +0.025 C 
ATOM     15  C   UNL     1       5.505  -1.440  -0.807  0.00  0.00    +0.007 C 
ATOM     16  C   UNL     1       4.372  -1.521   0.205  0.00  0.00    +0.037 C 
ENDROOT
BRANCH   6  17
ATOM     17  C   UNL     1      -1.372  -0.407   0.613  0.00  0.00    +0.019 C 
ATOM     18  C   UNL     1      -2.240   0.008  -0.576  0.00  0.00    +0.008 C 
ATOM     19  C   UNL     1      -3.590  -0.708  -0.497  0.00  0.00    +0.001 C 
ATOM     20  C   UNL     1      -4.294  -0.327   0.806  0.00  0.00    +0.000 C 
ATOM     21  C   UNL     1      -3.426  -0.742   1.996  0.00  0.00    +0.001 C 
ATOM     22  C   UNL     1      -2.076  -0.026   1.917  0.00  0.00    +0.008 C 
ENDBRANCH   6  17
BRANCH  12  23
ATOM     23  C   UNL     1       7.828   2.350  -0.263  0.00  0.00    +0.114 C 
BRANCH  23  24
ATOM     24  C   UNL     1       8.232   3.641  -0.979  0.00  0.00    +0.112 C 
BRANCH  24  25
ATOM     25  O   UNL     1       7.764   3.604  -2.328  0.00  0.00    -0.392 OA
ATOM     26  H   UNL     1       8.117   2.868  -2.847  0.00  0.00    +0.210 HD
ENDBRANCH  24  25
BRANCH  24  27
ATOM     27  C   UNL     1       9.756   3.773  -0.970  0.00  0.00    -0.046 C 
BRANCH  27  28
ATOM     28  N   UNL     1      10.144   5.019  -1.644  0.00  0.00    +0.381 N 
ATOM     29  C   UNL     1      11.605   5.071  -1.772  0.00  0.00    -0.079 C 
ATOM     30  C   UNL     1      12.009   6.329  -2.545  0.00  0.00    -0.019 C 
ATOM     31  C   UNL     1      11.517   7.566  -1.788  0.00  0.00    -0.004 C 
ATOM     32  C   UNL     1      10.002   7.465  -1.595  0.00  0.00    -0.019 C 
ATOM     33  C   UNL     1       9.672   6.165  -0.857  0.00  0.00    -0.079 C 
ATOM     34  H   UNL     1       9.726   5.048  -2.562  0.00  0.00    -0.082 HD
ENDBRANCH  27  28
ENDBRANCH  24  27
ENDBRANCH  23  24
ENDBRANCH  12  23
TORSDOF 6
