REMARK  Name = ZINC52551739
REMARK  7 active torsions:
REMARK  status: ('A' for Active; 'I' for Inactive)
REMARK    1  A    between atoms: C_6  and  C_7
REMARK    2  A    between atoms: C_7  and  C_8
REMARK    3  A    between atoms: N_13  and  C_14
REMARK    4  A    between atoms: C_17  and  O_21
REMARK    5  A    between atoms: O_21  and  C_22
REMARK    6  A    between atoms: C_29  and  C_31
REMARK    7  A    between atoms: C_31  and  O_32
REMARK                            x       y       z     vdW  Elec       q    Type
REMARK                         _______ _______ _______ _____ _____    ______ ____
ROOT
ATOM      1  C   UNL     1      -4.736  -2.879  -4.489  0.00  0.00    +0.038 A 
ATOM      2  C   UNL     1      -3.854  -2.537  -5.505  0.00  0.00    +0.027 A 
ATOM      3  C   UNL     1      -4.173  -2.816  -6.820  0.00  0.00    +0.051 A 
ATOM      4  C   UNL     1      -5.374  -3.438  -7.126  0.00  0.00    +0.164 A 
ATOM      5  C   UNL     1      -6.258  -3.780  -6.111  0.00  0.00    +0.167 A 
ATOM      6  C   UNL     1      -5.937  -3.507  -4.794  0.00  0.00    +0.065 A 
ATOM      7  F   UNL     1      -7.429  -4.385  -6.409  0.00  0.00    -0.202 F 
ENDROOT
BRANCH   1  13
ATOM      8  C   UNL     1      -4.770  -4.067   0.073  0.00  0.00    +0.225 C 
ATOM      9  O   UNL     1      -5.442  -5.041  -0.192  0.00  0.00    -0.275 OA
ATOM     10  N   UNL     1      -4.402  -3.216  -0.905  0.00  0.00    -0.240 N 
ATOM     11  C   UNL     1      -4.781  -3.447  -2.178  0.00  0.00    +0.310 C 
ATOM     12  O   UNL     1      -5.455  -4.423  -2.443  0.00  0.00    -0.252 OA
ATOM     13  N   UNL     1      -4.413  -2.596  -3.156  0.00  0.00    -0.269 N 
ATOM     14  H   UNL     1      -3.864  -2.437  -0.694  0.00  0.00    +0.159 HD
ATOM     15  H   UNL     1      -3.924  -1.788  -2.937  0.00  0.00    +0.156 HD
BRANCH   8  16
ATOM     16  C   UNL     1      -4.346  -3.809   1.496  0.00  0.00    +0.131 C 
BRANCH  16  22
ATOM     17  C   UNL     1      -4.133  -6.038   2.613  0.00  0.00    +0.007 A 
ATOM     18  C   UNL     1      -4.625  -7.039   3.429  0.00  0.00    +0.038 A 
ATOM     19  C   UNL     1      -5.870  -6.901   4.020  0.00  0.00    +0.123 A 
ATOM     20  C   UNL     1      -6.620  -5.760   3.791  0.00  0.00    +0.038 A 
ATOM     21  C   UNL     1      -6.126  -4.761   2.975  0.00  0.00    +0.007 A 
ATOM     22  C   UNL     1      -4.883  -4.900   2.386  0.00  0.00    -0.038 A 
ATOM     23  F   UNL     1      -6.352  -7.879   4.817  0.00  0.00    -0.205 F 
ENDBRANCH  16  22
ENDBRANCH   8  16
ENDBRANCH   1  13
BRANCH   4  24
ATOM     24  O   UNL     1      -5.687  -3.712  -8.421  0.00  0.00    -0.452 OA
BRANCH  24  25
ATOM     25  C   UNL     1      -6.415  -2.800  -9.105  0.00  0.00    +0.141 A 
ATOM     26  C   UNL     1      -6.920  -1.674  -8.486  0.00  0.00    +0.066 A 
ATOM     27  C   UNL     1      -7.666  -0.750  -9.208  0.00  0.00    +0.117 A 
ATOM     28  N   UNL     1      -7.936  -0.874 -10.482  0.00  0.00    -0.238 NA
ATOM     29  C   UNL     1      -7.507  -1.923 -11.212  0.00  0.00    +0.138 A 
ATOM     30  N   UNL     1      -7.669  -2.225 -12.479  0.00  0.00    -0.365 N 
ATOM     31  C   UNL     1      -6.985  -3.494 -12.750  0.00  0.00    +0.148 C 
ATOM     32  C   UNL     1      -6.374  -3.924 -11.435  0.00  0.00    -0.011 C 
ATOM     33  C   UNL     1      -6.696  -2.966 -10.542  0.00  0.00    +0.062 A 
ATOM     34  H   UNL     1      -8.160  -1.696 -13.128  0.00  0.00    +0.161 HD
BRANCH  32  35
ATOM     35  C   UNL     1      -5.562  -5.168 -11.177  0.00  0.00    +0.189 C 
BRANCH  35  36
ATOM     36  O   UNL     1      -6.441  -6.261 -10.905  0.00  0.00    -0.391 OA
ATOM     37  H   UNL     1      -5.986  -7.097 -10.729  0.00  0.00    +0.210 HD
ENDBRANCH  35  36
ENDBRANCH  32  35
ENDBRANCH  24  25
ENDBRANCH   4  24
TORSDOF 7
