REMARK  Name = ZINC15229112
REMARK  5 active torsions:
REMARK  status: ('A' for Active; 'I' for Inactive)
REMARK    1  A    between atoms: C_7  and  O_26
REMARK    2  A    between atoms: C_9  and  C_12
REMARK    3  A    between atoms: C_9  and  C_19
REMARK    4  A    between atoms: C_12  and  N_13
REMARK    5  A    between atoms: C_19  and  N_20
REMARK                            x       y       z     vdW  Elec       q    Type
REMARK                         _______ _______ _______ _____ _____    ______ ____
ROOT
ATOM      1  C   UNL     1      -1.350   1.270   0.524  0.00  0.00    +0.025 A 
ATOM      2  C   UNL     1      -1.166   2.476  -0.125  0.00  0.00    +0.019 A 
ATOM      3  C   UNL     1      -1.021   2.506  -1.500  0.00  0.00    +0.034 A 
ATOM      4  C   UNL     1      -1.058   1.329  -2.223  0.00  0.00    +0.061 A 
ATOM      5  C   UNL     1      -1.243   0.113  -1.571  0.00  0.00    +0.140 A 
ATOM      6  C   UNL     1      -1.391   0.087  -0.196  0.00  0.00    +0.025 A 
ATOM      7  C   UNL     1      -1.604  -1.207   0.547  0.00  0.00    +0.157 C 
ATOM      8  C   UNL     1      -1.185  -2.384  -0.337  0.00  0.00    +0.033 C 
ATOM      9  C   UNL     1      -1.821  -2.198  -1.721  0.00  0.00    +0.238 C 
ATOM     10  O   UNL     1      -1.269  -1.023  -2.316  0.00  0.00    -0.490 OA
ATOM     11 BR   UNL     1      -0.859   1.371  -4.103  0.00  0.00    -0.046 Br
ATOM     12 BR   UNL     1      -1.113   4.085   0.867  0.00  0.00    -0.050 Br
ENDROOT
BRANCH   7  13
ATOM     13  O   UNL     1      -2.985  -1.338   0.888  0.00  0.00    -0.386 OA
ATOM     14  H   UNL     1      -3.307  -0.658   1.496  0.00  0.00    +0.210 HD
ENDBRANCH   7  13
BRANCH   8  15
ATOM     15  C   UNL     1       0.339  -2.412  -0.470  0.00  0.00    -0.064 C 
BRANCH  15  16
ATOM     16  N   UNL     1       0.727  -3.436  -1.450  0.00  0.00    +0.380 N 
ATOM     17  C   UNL     1       0.628  -4.764  -0.834  0.00  0.00    -0.079 C 
ATOM     18  C   UNL     1       0.952  -5.838  -1.874  0.00  0.00    -0.019 C 
ATOM     19  C   UNL     1       2.375  -5.622  -2.398  0.00  0.00    -0.004 C 
ATOM     20  C   UNL     1       2.487  -4.206  -2.971  0.00  0.00    -0.019 C 
ATOM     21  C   UNL     1       2.106  -3.192  -1.891  0.00  0.00    -0.079 C 
ATOM     22  H   UNL     1       0.108  -3.389  -2.246  0.00  0.00    -0.082 HD
ENDBRANCH  15  16
ENDBRANCH   8  15
BRANCH   8  23
ATOM     23  C   UNL     1      -1.673  -3.695   0.283  0.00  0.00    +0.095 C 
BRANCH  23  24
ATOM     24  N   UNL     1      -2.955  -3.467   0.963  0.00  0.00    -0.302 NA
ATOM     25  C   UNL     1      -2.801  -3.561   2.421  0.00  0.00    +0.084 C 
ATOM     26  C   UNL     1      -4.118  -3.176   3.099  0.00  0.00    +0.015 C 
ATOM     27  C   UNL     1      -5.227  -4.118   2.623  0.00  0.00    +0.002 C 
ATOM     28  C   UNL     1      -5.333  -4.037   1.097  0.00  0.00    +0.015 C 
ATOM     29  C   UNL     1      -3.982  -4.397   0.476  0.00  0.00    +0.084 C 
ENDBRANCH  23  24
ENDBRANCH   8  23
TORSDOF 5
