REMARK  Name = ZINC26438142
REMARK  6 active torsions:
REMARK  status: ('A' for Active; 'I' for Inactive)
REMARK    1  A    between atoms: C_6  and  C_7
REMARK    2  A    between atoms: C_10  and  S_22
REMARK    3  A    between atoms: N_11  and  C_12
REMARK    4  A    between atoms: C_15  and  S_18
REMARK    5  A    between atoms: S_18  and  C_19
REMARK    6  A    between atoms: S_22  and  C_23
REMARK                            x       y       z     vdW  Elec       q    Type
REMARK                         _______ _______ _______ _____ _____    ______ ____
ROOT
ATOM      1  C   UNL     1      -1.266  -0.763   0.010  0.00  0.00    +0.169 A 
ATOM      2  N   UNL     1      -2.458  -0.289   0.292  0.00  0.00    -0.128 NA
ATOM      3  N   UNL     1      -3.335  -1.224   0.202  0.00  0.00    -0.122 NA
ATOM      4  C   UNL     1      -2.759  -2.353  -0.142  0.00  0.00    +0.197 A 
ATOM      5  N   UNL     1      -1.422  -2.100  -0.282  0.00  0.00    -0.270 N 
ENDROOT
BRANCH   1  11
ATOM      6  C   UNL     1      -0.017   1.392   0.010  0.00  0.00    +0.014 A 
ATOM      7  C   UNL     1       1.169   2.095   0.002  0.00  0.00    +0.039 A 
ATOM      8  C   UNL     1       2.379   1.418  -0.013  0.00  0.00    +0.123 A 
ATOM      9  C   UNL     1       2.404   0.033  -0.021  0.00  0.00    +0.039 A 
ATOM     10  C   UNL     1       1.223  -0.680  -0.014  0.00  0.00    +0.014 A 
ATOM     11  C   UNL     1       0.002  -0.004   0.002  0.00  0.00    +0.020 A 
ATOM     12  F   UNL     1       3.538   2.112  -0.020  0.00  0.00    -0.205 F 
ENDBRANCH   1  11
BRANCH   5  13
ATOM     13  C   UNL     1      -0.419  -3.012  -0.645  0.00  0.00    +0.051 A 
ATOM     14  C   UNL     1       0.274  -2.843  -1.836  0.00  0.00    +0.027 A 
ATOM     15  C   UNL     1       1.261  -3.740  -2.193  0.00  0.00    +0.017 A 
ATOM     16  C   UNL     1       1.560  -4.812  -1.361  0.00  0.00    +0.013 A 
ATOM     17  C   UNL     1       0.866  -4.980  -0.169  0.00  0.00    +0.017 A 
ATOM     18  C   UNL     1      -0.117  -4.079   0.190  0.00  0.00    +0.027 A 
BRANCH  16  19
ATOM     19  S   UNL     1       2.820  -5.957  -1.816  0.00  0.00    -0.056 S 
BRANCH  19  20
ATOM     20  C   UNL     1       2.844  -7.149  -0.449  0.00  0.00    +0.404 C 
ATOM     21  F   UNL     1       3.144  -6.483   0.745  0.00  0.00    -0.197 F 
ATOM     22  F   UNL     1       1.590  -7.760  -0.340  0.00  0.00    -0.197 F 
ENDBRANCH  19  20
ENDBRANCH  16  19
ENDBRANCH   5  13
BRANCH   4  23
ATOM     23  S   UNL     1      -3.560  -3.904  -0.384  0.00  0.00    -0.073 S 
BRANCH  23  24
ATOM     24  C   UNL     1      -5.308  -3.552  -0.050  0.00  0.00    +0.140 C 
ATOM     25  C   UNL     1      -6.115  -4.851  -0.113  0.00  0.00    +0.024 C 
ATOM     26  C   UNL     1      -5.553  -5.782  -1.172  0.00  0.00    +0.003 C 
ATOM     27  C   UNL     1      -5.714  -5.267  -2.590  0.00  0.00    +0.019 C 
ATOM     28  C   UNL     1      -4.858  -4.019  -2.817  0.00  0.00    +0.104 C 
ATOM     29  N   UNL     1      -5.627  -2.837  -2.394  0.00  0.00    -0.314 N 
ATOM     30  C   UNL     1      -5.844  -2.597  -1.097  0.00  0.00    +0.226 C 
ATOM     31  O   UNL     1      -6.473  -1.619  -0.756  0.00  0.00    -0.275 OA
ATOM     32  H   UNL     1      -5.977  -2.226  -3.061  0.00  0.00    +0.149 HD
ENDBRANCH  23  24
ENDBRANCH   4  23
TORSDOF 6
