REMARK  Name = ZINC32686081
REMARK  6 active torsions:
REMARK  status: ('A' for Active; 'I' for Inactive)
REMARK    1  A    between atoms: C_5  and  C_7
REMARK    2  A    between atoms: C_10  and  S_18
REMARK    3  A    between atoms: N_11  and  C_12
REMARK    4  A    between atoms: S_18  and  C_19
REMARK    5  A    between atoms: C_19  and  C_20
REMARK    6  A    between atoms: N_22  and  C_23
REMARK                            x       y       z     vdW  Elec       q    Type
REMARK                         _______ _______ _______ _____ _____    ______ ____
ROOT
ATOM      1  C   UNL     1       2.655   4.250   0.112  0.00  0.00    +0.166 A 
ATOM      2  N   UNL     1       3.842   3.694   0.171  0.00  0.00    -0.128 NA
ATOM      3  N   UNL     1       4.754   4.599   0.138  0.00  0.00    -0.122 NA
ATOM      4  C   UNL     1       4.204   5.790   0.056  0.00  0.00    +0.193 A 
ATOM      5  N   UNL     1       2.850   5.610   0.031  0.00  0.00    -0.299 N 
ENDROOT
BRANCH   1  10
ATOM      6  C   UNL     1      -0.867   3.298   1.001  0.00  0.00    +0.001 A 
ATOM      7  C   UNL     1      -1.082   2.230   0.148  0.00  0.00    +0.001 A 
ATOM      8  C   UNL     1      -0.088   1.823  -0.724  0.00  0.00    +0.016 A 
ATOM      9  C   UNL     1       1.130   2.473  -0.740  0.00  0.00    +0.029 A 
ATOM     10  C   UNL     1       1.354   3.548   0.123  0.00  0.00    +0.033 A 
ATOM     11  C   UNL     1       0.345   3.957   0.996  0.00  0.00    +0.013 A 
ATOM     12 BR   UNL     1       2.490   1.910  -1.926  0.00  0.00    -0.050 Br
ENDBRANCH   1  10
BRANCH   5  13
ATOM     13  C   UNL     1       1.820   6.648  -0.061  0.00  0.00    +0.091 C 
ATOM     14  C   UNL     1       2.072   7.508  -1.301  0.00  0.00    +0.025 C 
ATOM     15  C   UNL     1       0.997   8.592  -1.396  0.00  0.00    +0.002 C 
ATOM     16  C   UNL     1       1.047   9.472  -0.145  0.00  0.00    +0.000 C 
ATOM     17  C   UNL     1       0.795   8.612   1.094  0.00  0.00    +0.002 C 
ATOM     18  C   UNL     1       1.871   7.528   1.190  0.00  0.00    +0.025 C 
ENDBRANCH   5  13
BRANCH   4  19
ATOM     19  S   UNL     1       5.054   7.332  -0.017  0.00  0.00    -0.077 S 
BRANCH  19  20
ATOM     20  C   UNL     1       6.766   6.750   0.056  0.00  0.00    +0.173 C 
BRANCH  20  21
ATOM     21  C   UNL     1       7.701   7.931   0.007  0.00  0.00    +0.228 C 
ATOM     22  O   UNL     1       7.253   9.056  -0.070  0.00  0.00    -0.275 OA
ATOM     23  N   UNL     1       9.034   7.737   0.049  0.00  0.00    -0.283 N 
ATOM     24  H   UNL     1       9.443   6.716   0.022  0.00  0.00    +0.155 HD
BRANCH  23  25
ATOM     25  C   UNL     1       9.899   8.836   0.125  0.00  0.00    +0.069 A 
ATOM     26  C   UNL     1       9.520   9.973   0.826  0.00  0.00    +0.026 A 
ATOM     27  C   UNL     1      10.378  11.053   0.904  0.00  0.00    +0.002 A 
ATOM     28  C   UNL     1      11.608  11.008   0.276  0.00  0.00    +0.003 A 
ATOM     29  C   UNL     1      11.988   9.881  -0.429  0.00  0.00    +0.040 A 
ATOM     30  C   UNL     1      11.137   8.794  -0.507  0.00  0.00    +0.144 A 
ATOM     31  F   UNL     1      11.508   7.692  -1.196  0.00  0.00    -0.204 F 
ENDBRANCH  23  25
ENDBRANCH  20  21
ENDBRANCH  19  20
ENDBRANCH   4  19
TORSDOF 6
