REMARK  Name = ZINC09001474
REMARK  6 active torsions:
REMARK  status: ('A' for Active; 'I' for Inactive)
REMARK    1  A    between atoms: C_1  and  C_2
REMARK    2  A    between atoms: N_4  and  C_5
REMARK    3  A    between atoms: N_13  and  C_14
REMARK    4  A    between atoms: C_14  and  C_16
REMARK    5  A    between atoms: N_31  and  C_32
REMARK    6  A    between atoms: C_32  and  C_33
REMARK                            x       y       z     vdW  Elec       q    Type
REMARK                         _______ _______ _______ _____ _____    ______ ____
ROOT
ATOM      1  C   UNL     1       0.109  -2.067  -1.232  0.00  0.00    +0.035 A 
ATOM      2  C   UNL     1       0.119  -2.828  -0.068  0.00  0.00    +0.025 A 
ATOM      3  C   UNL     1       0.226  -4.196  -0.114  0.00  0.00    +0.029 A 
ATOM      4  C   UNL     1       0.327  -4.873  -1.342  0.00  0.00    +0.059 A 
ATOM      5  C   UNL     1       0.314  -4.081  -2.499  0.00  0.00    +0.041 A 
ATOM      6  C   UNL     1       0.202  -2.712  -2.459  0.00  0.00    +0.040 A 
ATOM      7  S   UNL     1       0.457  -5.269  -3.812  0.00  0.00    -0.052 S 
ATOM      8  C   UNL     1       0.528  -6.742  -2.806  0.00  0.00    +0.168 A 
ATOM      9  N   UNL     1       0.640  -8.008  -3.192  0.00  0.00    -0.152 NA
ATOM     10  N   UNL     1       0.439  -6.239  -1.543  0.00  0.00    -0.310 N 
ENDROOT
BRANCH   1  14
ATOM     11  C   UNL     1       0.557   1.511  -0.148  0.00  0.00    +0.109 C 
ATOM     12  C   UNL     1       0.584   0.005  -0.160  0.00  0.00    +0.214 C 
ATOM     13  O   UNL     1       1.132  -0.599   0.738  0.00  0.00    -0.276 OA
ATOM     14  N   UNL     1       0.000  -0.672  -1.169  0.00  0.00    -0.286 N 
ATOM     15  H   UNL     1      -0.496  -0.192  -1.851  0.00  0.00    +0.155 HD
ENDBRANCH   1  14
BRANCH   9  16
ATOM     16  C   UNL     1       0.715  -8.307  -4.494  0.00  0.00    +0.276 C 
ATOM     17  O   UNL     1       0.681  -7.417  -5.327  0.00  0.00    -0.268 OA
BRANCH  16  18
ATOM     18  C   UNL     1       0.839  -9.713  -4.922  0.00  0.00    +0.124 A 
ATOM     19  C   UNL     1       0.925 -10.058  -6.268  0.00  0.00    +0.032 A 
ATOM     20  C   UNL     1       1.010 -11.425  -6.598  0.00  0.00    +0.026 A 
ATOM     21  C   UNL     1       1.321 -11.851  -7.964  0.00  0.00    -0.007 A 
ATOM     22  C   UNL     1       1.524 -10.926  -8.991  0.00  0.00    +0.009 A 
ATOM     23  C   UNL     1       1.812 -11.367 -10.250  0.00  0.00    +0.001 A 
ATOM     24  C   UNL     1       1.906 -12.727 -10.525  0.00  0.00    +0.001 A 
ATOM     25  C   UNL     1       1.714 -13.655  -9.546  0.00  0.00    +0.008 A 
ATOM     26  C   UNL     1       1.417 -13.236  -8.239  0.00  0.00    -0.017 A 
ATOM     27  C   UNL     1       1.213 -14.166  -7.201  0.00  0.00    +0.012 A 
ATOM     28  C   UNL     1       0.916 -13.758  -5.942  0.00  0.00    +0.047 A 
ATOM     29  C   UNL     1       0.802 -12.404  -5.615  0.00  0.00    +0.140 A 
ATOM     30  O   UNL     1       0.467 -12.034  -4.356  0.00  0.00    -0.422 OA
ATOM     31  C   UNL     1       0.883 -10.813  -3.944  0.00  0.00    +0.350 A 
ATOM     32  O   UNL     1       1.276 -10.628  -2.807  0.00  0.00    -0.244 OA
ENDBRANCH  16  18
ENDBRANCH   9  16
BRANCH  10  33
ATOM     33  C   UNL     1       0.461  -7.146  -0.394  0.00  0.00    +0.212 C 
BRANCH  33  34
ATOM     34  C   UNL     1      -0.914  -7.555  -0.064  0.00  0.00    -0.084 C 
ATOM     35  C   UNL     1      -2.011  -7.881   0.198  0.00  0.00    +0.005 C 
ENDBRANCH  33  34
ENDBRANCH  10  33
TORSDOF 5
