REMARK  Name = ZINC12711357
REMARK  9 active torsions:
REMARK  status: ('A' for Active; 'I' for Inactive)
REMARK    1  A    between atoms: C_3  and  C_6
REMARK    2  A    between atoms: C_6  and  C_8
REMARK    3  A    between atoms: C_6  and  N_18
REMARK    4  A    between atoms: N_10  and  C_11
REMARK    5  A    between atoms: C_11  and  C_12
REMARK    6  A    between atoms: N_18  and  C_19
REMARK    7  A    between atoms: C_26  and  C_28
REMARK    8  A    between atoms: C_29  and  N_36
REMARK    9  A    between atoms: C_30  and  C_33
REMARK                            x       y       z     vdW  Elec       q    Type
REMARK                         _______ _______ _______ _____ _____    ______ ____
ROOT
ATOM      1  N   UNL     1      -1.266   3.330   0.003  0.00  0.00    -0.250 N 
ATOM      2  C   UNL     1      -1.947   2.386  -0.677  0.00  0.00    +0.262 C 
ATOM      3  O   UNL     1      -3.162   2.355  -0.624  0.00  0.00    -0.269 OA
ENDROOT
BRANCH   1   4
ATOM      4  C   UNL     1       0.129   3.396  -0.098  0.00  0.00    +0.038 A 
ATOM      5  C   UNL     1       0.925   2.774   0.855  0.00  0.00    +0.026 A 
ATOM      6  C   UNL     1       2.301   2.837   0.752  0.00  0.00    +0.040 A 
ATOM      7  C   UNL     1       2.886   3.527  -0.296  0.00  0.00    +0.124 A 
ATOM      8  C   UNL     1       2.094   4.151  -1.246  0.00  0.00    +0.040 A 
ATOM      9  C   UNL     1       0.718   4.087  -1.148  0.00  0.00    +0.026 A 
ATOM     10  F   UNL     1       4.232   3.591  -0.394  0.00  0.00    -0.205 F 
ENDBRANCH   1   4
BRANCH   2  11
ATOM     11  C   UNL     1      -1.224   1.398  -1.481  0.00  0.00    +0.116 A 
ATOM     12  C   UNL     1      -1.707   0.259  -2.127  0.00  0.00    +0.076 A 
ATOM     13  C   UNL     1      -0.706  -0.436  -2.805  0.00  0.00    +0.155 A 
ATOM     14  N   UNL     1       0.527   0.020  -2.774  0.00  0.00    -0.203 NA
ATOM     15  S   UNL     1       0.505   1.333  -1.902  0.00  0.00    +0.019 S 
BRANCH  13  16
ATOM     16  C   UNL     1      -1.026  -1.668  -3.549  0.00  0.00    +0.262 C 
ATOM     17  O   UNL     1      -2.169  -2.083  -3.574  0.00  0.00    -0.269 OA
ATOM     18  N   UNL     1      -0.053  -2.334  -4.201  0.00  0.00    -0.324 N 
ATOM     19  H   UNL     1       0.859  -2.002  -4.181  0.00  0.00    +0.145 HD
ATOM     20  H   UNL     1      -0.263  -3.144  -4.690  0.00  0.00    +0.145 HD
ENDBRANCH  13  16
BRANCH  12  21
ATOM     21  N   UNL     1      -3.038  -0.138  -2.099  0.00  0.00    -0.355 N 
ATOM     22  H   UNL     1      -3.690   0.388  -1.611  0.00  0.00    +0.142 HD
ATOM     23  H   UNL     1      -3.314  -0.940  -2.568  0.00  0.00    +0.142 HD
ENDBRANCH  12  21
ENDBRANCH   2  11
BRANCH   1  24
ATOM     24  C   UNL     1      -1.985   4.286   0.848  0.00  0.00    +0.204 C 
BRANCH  24  27
ATOM     25  C   UNL     1      -1.160   4.060   4.560  0.00  0.00    +0.008 A 
ATOM     26  C   UNL     1      -1.924   3.964   3.412  0.00  0.00    +0.013 A 
ATOM     27  C   UNL     1      -1.369   4.304   2.223  0.00  0.00    +0.019 A 
ATOM     28  S   UNL     1       0.285   4.772   2.708  0.00  0.00    -0.099 S 
ATOM     29  C   UNL     1       0.121   4.492   4.463  0.00  0.00    +0.045 A 
ENDBRANCH  24  27
BRANCH  24  30
ATOM     30  C   UNL     1      -1.895   5.661   0.238  0.00  0.00    +0.239 C 
ATOM     31  O   UNL     1      -1.323   5.820  -0.819  0.00  0.00    -0.273 OA
ATOM     32  N   UNL     1      -2.450   6.715   0.869  0.00  0.00    -0.311 N 
ATOM     33  H   UNL     1      -2.908   6.589   1.715  0.00  0.00    +0.149 HD
BRANCH  32  34
ATOM     34  C   UNL     1      -2.362   8.053   0.277  0.00  0.00    +0.135 C 
BRANCH  34  35
ATOM     35  C   UNL     1      -3.068   9.060   1.186  0.00  0.00    +0.135 C 
ATOM     36  C   UNL     1      -2.981  10.471   0.572  0.00  0.00    +0.035 C 
ATOM     37  C   UNL     1      -4.458  10.903   0.403  0.00  0.00    +0.031 C 
ATOM     38  C   UNL     1      -5.185   9.972   1.407  0.00  0.00    +0.160 C 
ATOM     39  O   UNL     1      -4.462   8.727   1.297  0.00  0.00    -0.375 OA
ENDBRANCH  34  35
ENDBRANCH  32  34
ENDBRANCH  24  30
ENDBRANCH   1  24
TORSDOF 9
