REMARK  Name = ZINC01945656
REMARK  13 active torsions:
REMARK  status: ('A' for Active; 'I' for Inactive)
REMARK    1  A    between atoms: C_1  and  C_2
REMARK    2  A    between atoms: C_2  and  O_3
REMARK    3  A    between atoms: O_3  and  C_4
REMARK    4  A    between atoms: C_4  and  C_6
REMARK    5  A    between atoms: C_10  and  N_11
REMARK    6  A    between atoms: C_12  and  C_14
REMARK    7  A    between atoms: C_16  and  N_24
REMARK    8  A    between atoms: C_17  and  C_23
REMARK    9  A    between atoms: C_18  and  N_20
REMARK   10  A    between atoms: C_28  and  C_32
REMARK   11  A    between atoms: C_32  and  C_33
REMARK   12  A    between atoms: C_32  and  C_34
REMARK   13  A    between atoms: C_32  and  C_35
REMARK                            x       y       z     vdW  Elec       q    Type
REMARK                         _______ _______ _______ _____ _____    ______ ____
ROOT
ATOM      1  C   UNL     1      -2.892  -1.910   0.043  0.00  0.00    +0.091 A 
ATOM      2  C   UNL     1      -3.589  -2.145  -1.210  0.00  0.00    -0.021 A 
ATOM      3  C   UNL     1      -4.785  -2.756  -1.071  0.00  0.00    -0.004 A 
ATOM      4  S   UNL     1      -4.963  -3.004   0.671  0.00  0.00    -0.077 S 
ATOM      5  C   UNL     1      -3.519  -2.335   1.205  0.00  0.00    +0.087 A 
ATOM      6  C   UNL     1      -5.736  -3.131  -2.166  0.00  0.00    +0.046 C 
ATOM      7  C   UNL     1      -5.324  -2.382  -3.441  0.00  0.00    -0.000 C 
ATOM      8  C   UNL     1      -3.815  -2.546  -3.647  0.00  0.00    +0.009 C 
ATOM      9  C   UNL     1      -3.054  -1.755  -2.581  0.00  0.00    +0.037 C 
ENDROOT
BRANCH   5  10
ATOM     10  N   UNL     1      -3.059  -2.230   2.507  0.00  0.00    -0.275 N 
ATOM     11  C   UNL     1      -3.806  -2.701   3.526  0.00  0.00    +0.249 C 
ATOM     12  O   UNL     1      -4.883  -3.218   3.301  0.00  0.00    -0.270 OA
ATOM     13  H   UNL     1      -2.200  -1.817   2.687  0.00  0.00    +0.156 HD
BRANCH  11  14
ATOM     14  C   UNL     1      -3.316  -2.589   4.915  0.00  0.00    +0.041 A 
ATOM     15  C   UNL     1      -2.082  -1.991   5.177  0.00  0.00    +0.046 A 
ATOM     16  C   UNL     1      -1.630  -1.889   6.477  0.00  0.00    +0.132 A 
ATOM     17  C   UNL     1      -2.397  -2.380   7.519  0.00  0.00    +0.010 A 
ATOM     18  C   UNL     1      -3.620  -2.974   7.266  0.00  0.00    +0.132 A 
ATOM     19  C   UNL     1      -4.087  -3.076   5.972  0.00  0.00    +0.046 A 
ATOM     20  C   UNL     1      -1.896  -2.266   8.936  0.00  0.00    +0.048 C 
BRANCH  18  21
ATOM     21  N   UNL     1      -4.434  -3.495   8.388  0.00  0.00    +0.057 N 
ATOM     22  O   UNL     1      -5.444  -4.120   8.163  0.00  0.00    -0.126 OA
ATOM     23  O   UNL     1      -4.088  -3.296   9.529  0.00  0.00    -0.126 OA
ENDBRANCH  18  21
BRANCH  16  24
ATOM     24  N   UNL     1      -0.322  -1.256   6.756  0.00  0.00    +0.057 N 
ATOM     25  O   UNL     1       0.404  -0.940   5.843  0.00  0.00    -0.126 OA
ATOM     26  O   UNL     1       0.020  -1.054   7.898  0.00  0.00    -0.126 OA
ENDBRANCH  16  24
ENDBRANCH  11  14
ENDBRANCH   5  10
BRANCH   7  27
ATOM     27  C   UNL     1      -6.074  -2.962  -4.642  0.00  0.00    -0.035 C 
ATOM     28  C   UNL     1      -7.580  -2.807  -4.425  0.00  0.00    +0.011 C 
ATOM     29  C   UNL     1      -5.662  -2.213  -5.911  0.00  0.00    +0.011 C 
ATOM     30  C   UNL     1      -5.730  -4.445  -4.790  0.00  0.00    +0.011 C 
ENDBRANCH   7  27
BRANCH   1  31
ATOM     31  C   UNL     1      -1.582  -1.258   0.076  0.00  0.00    +0.342 C 
ATOM     32  O   UNL     1      -0.568  -1.925   0.001  0.00  0.00    -0.245 OA
BRANCH  31  33
ATOM     33  O   UNL     1      -1.499   0.084   0.191  0.00  0.00    -0.461 OA
BRANCH  33  35
ATOM     34  C   UNL     1      -0.295   2.173   0.352  0.00  0.00    +0.048 C 
ATOM     35  C   UNL     1      -0.188   0.653   0.218  0.00  0.00    +0.229 C 
ENDBRANCH  33  35
ENDBRANCH  31  33
ENDBRANCH   1  31
TORSDOF 8
