REMARK  Name = ZINC09424800
REMARK  16 active torsions:
REMARK  status: ('A' for Active; 'I' for Inactive)
REMARK    1  A    between atoms: C_1  and  C_2
REMARK    2  A    between atoms: C_2  and  N_74
REMARK    3  A    between atoms: C_3  and  C_4
REMARK    4  A    between atoms: C_3  and  N_74
REMARK    5  A    between atoms: C_5  and  C_6
REMARK    6  A    between atoms: C_5  and  N_74
REMARK    7  A    between atoms: C_6  and  C_7
REMARK    8  A    between atoms: C_7  and  N_8
REMARK    9  A    between atoms: C_9  and  C_29
REMARK   10  A    between atoms: C_11  and  C_16
REMARK   11  A    between atoms: C_12  and  O_15
REMARK   12  A    between atoms: C_16  and  C_18
REMARK   13  A    between atoms: C_25  and  C_28
REMARK   14  A    between atoms: C_32  and  C_35
REMARK   15  A    between atoms: C_35  and  C_36
REMARK   16  A    between atoms: C_35  and  C_37
REMARK                            x       y       z     vdW  Elec       q    Type
REMARK                         _______ _______ _______ _____ _____    ______ ____
ROOT
ATOM      1  N   UNL     1       2.840   0.777   5.921  0.00  0.00    -0.284 N 
ATOM      2  C   UNL     1       2.062  -0.294   5.286  0.00  0.00    +0.144 C 
ATOM      3  C   UNL     1       2.910  -1.541   5.376  0.00  0.00    +0.071 C 
ATOM      4  C   UNL     1       4.056  -1.190   6.005  0.00  0.00    +0.188 C 
ATOM      5  C   UNL     1       4.005   0.249   6.340  0.00  0.00    +0.282 C 
ATOM      6  O   UNL     1       4.885   0.864   6.909  0.00  0.00    -0.267 OA
ENDROOT
BRANCH   2   7
ATOM      7  C   UNL     1       1.793   0.048   3.844  0.00  0.00    -0.022 A 
ATOM      8  C   UNL     1       0.548  -0.199   3.296  0.00  0.00    +0.006 A 
ATOM      9  C   UNL     1       0.301   0.115   1.972  0.00  0.00    +0.004 A 
ATOM     10  C   UNL     1       1.299   0.674   1.196  0.00  0.00    -0.045 A 
ATOM     11  C   UNL     1       2.545   0.916   1.743  0.00  0.00    +0.004 A 
ATOM     12  C   UNL     1       2.791   0.607   3.068  0.00  0.00    +0.006 A 
BRANCH  10  13
ATOM     13  C   UNL     1       1.029   1.016  -0.246  0.00  0.00    +0.013 C 
ATOM     14  C   UNL     1       1.990   0.233  -1.144  0.00  0.00    +0.012 C 
ATOM     15  C   UNL     1       1.238   2.516  -0.463  0.00  0.00    +0.012 C 
ENDBRANCH  10  13
ENDBRANCH   2   7
BRANCH   4  16
ATOM     16  O   UNL     1       5.085  -2.024   6.283  0.00  0.00    -0.502 OA
ATOM     17  H   UNL     1       5.808  -1.516   6.751  0.00  0.00    +0.292 HD
ENDBRANCH   4  16
BRANCH   3  18
ATOM     18  C   UNL     1       2.560  -2.874   4.877  0.00  0.00    +0.195 C 
ATOM     19  O   UNL     1       3.215  -3.383   3.986  0.00  0.00    -0.287 OA
BRANCH  18  20
ATOM     20  C   UNL     1       1.412  -3.600   5.455  0.00  0.00    +0.023 A 
ATOM     21  C   UNL     1       0.726  -3.074   6.554  0.00  0.00    +0.015 A 
ATOM     22  C   UNL     1      -0.341  -3.752   7.093  0.00  0.00    +0.046 A 
ATOM     23  C   UNL     1      -0.751  -4.972   6.550  0.00  0.00    +0.124 A 
ATOM     24  C   UNL     1      -0.068  -5.488   5.451  0.00  0.00    -0.002 A 
ATOM     25  C   UNL     1       0.997  -4.817   4.904  0.00  0.00    +0.019 A 
ATOM     26  C   UNL     1      -0.743  -6.795   5.084  0.00  0.00    +0.083 C 
ATOM     27  C   UNL     1      -2.080  -6.692   5.856  0.00  0.00    +0.175 C 
ATOM     28  O   UNL     1      -1.757  -5.801   6.936  0.00  0.00    -0.488 OA
ATOM     29  C   UNL     1      -3.173  -6.092   4.968  0.00  0.00    +0.052 C 
ENDBRANCH  18  20
ENDBRANCH   3  18
BRANCH   1  30
ATOM     30  C   UNL     1       2.423   2.173   6.073  0.00  0.00    +0.107 C 
BRANCH  30  31
ATOM     31  C   UNL     1       1.676   2.341   7.398  0.00  0.00    +0.000 C 
BRANCH  31  32
ATOM     32  C   UNL     1       1.240   3.799   7.556  0.00  0.00    -0.077 C 
BRANCH  32  33
ATOM     33  N   UNL     1       0.585   3.957   8.871  0.00  0.00    +0.379 N 
ATOM     34  H   UNL     1      -0.029   3.151   9.037  0.00  0.00    -0.082 HD
BRANCH  33  36
ATOM     35  C   UNL     1       0.901   3.950  11.297  0.00  0.00    -0.017 C 
ATOM     36  C   UNL     1       1.605   4.012   9.940  0.00  0.00    -0.082 C 
ENDBRANCH  33  36
BRANCH  33  37
ATOM     37  C   UNL     1      -0.228   5.191   8.885  0.00  0.00    -0.082 C 
ATOM     38  C   UNL     1      -1.524   4.933   8.114  0.00  0.00    -0.017 C 
ENDBRANCH  33  37
ENDBRANCH  32  33
ENDBRANCH  31  32
ENDBRANCH  30  31
ENDBRANCH   1  30
TORSDOF 11
