REMARK  Name = ZINC08694489
REMARK  8 active torsions:
REMARK  status: ('A' for Active; 'I' for Inactive)
REMARK    1  A    between atoms: C_2  and  C_3
REMARK    2  A    between atoms: C_3  and  N_4
REMARK    3  A    between atoms: C_5  and  C_29
REMARK    4  A    between atoms: C_8  and  S_9
REMARK    5  A    between atoms: S_9  and  C_10
REMARK    6  A    between atoms: C_11  and  C_23
REMARK    7  A    between atoms: C_29  and  C_30
REMARK    8  A    between atoms: C_29  and  C_36
REMARK                            x       y       z     vdW  Elec       q    Type
REMARK                         _______ _______ _______ _____ _____    ______ ____
ROOT
ATOM      1  N   UNL     1      -6.120  -1.831  -0.219  0.00  0.00    -0.301 N 
ATOM      2  C   UNL     1      -5.019  -2.622  -0.040  0.00  0.00    +0.146 A 
ATOM      3  N   UNL     1      -3.969  -1.865  -0.189  0.00  0.00    -0.133 NA
ATOM      4  N   UNL     1      -4.328  -0.660  -0.454  0.00  0.00    -0.122 NA
ATOM      5  C   UNL     1      -5.638  -0.580  -0.479  0.00  0.00    +0.197 A 
ENDROOT
BRANCH   1   6
ATOM      6  C   UNL     1      -7.525  -2.241  -0.147  0.00  0.00    +0.152 C 
BRANCH   6   8
ATOM      7  C   UNL     1      -8.522  -3.862  -1.677  0.00  0.00    +0.005 C 
ATOM      8  C   UNL     1      -7.992  -2.675  -1.512  0.00  0.00    -0.013 C 
ENDBRANCH   6   8
ENDBRANCH   1   6
BRANCH   5   9
ATOM      9  S   UNL     1      -6.595   0.866  -0.795  0.00  0.00    -0.044 S 
BRANCH   9  10
ATOM     10  C   UNL     1      -5.304   2.022  -1.113  0.00  0.00    +0.088 A 
ATOM     11  C   UNL     1      -5.182   2.600  -2.366  0.00  0.00    +0.010 A 
ATOM     12  C   UNL     1      -4.091   3.564  -2.584  0.00  0.00    +0.009 A 
ATOM     13  C   UNL     1      -3.911   4.178  -3.826  0.00  0.00    +0.030 A 
ATOM     14  C   UNL     1      -2.878   5.073  -4.000  0.00  0.00    +0.042 A 
ATOM     15  C   UNL     1      -2.016   5.362  -2.950  0.00  0.00    +0.022 A 
ATOM     16  C   UNL     1      -2.179   4.760  -1.721  0.00  0.00    +0.028 A 
ATOM     17  C   UNL     1      -3.215   3.853  -1.524  0.00  0.00    +0.050 A 
ATOM     18  N   UNL     1      -3.392   3.242  -0.298  0.00  0.00    -0.321 N 
ATOM     19  H   UNL     1      -2.784   3.451   0.428  0.00  0.00    +0.169 HD
ATOM     20  C   UNL     1      -4.388   2.364  -0.090  0.00  0.00    +0.264 A 
ATOM     21  O   UNL     1      -4.505   1.849   1.009  0.00  0.00    -0.267 OA
ATOM     22 CL   UNL     1      -2.653   5.843  -5.539  0.00  0.00    -0.084 Cl
BRANCH  11  23
ATOM     23  C   UNL     1      -6.124   2.261  -3.454  0.00  0.00    -0.016 A 
ATOM     24  C   UNL     1      -5.670   1.592  -4.592  0.00  0.00    +0.008 A 
ATOM     25  C   UNL     1      -6.556   1.274  -5.601  0.00  0.00    +0.001 A 
ATOM     26  C   UNL     1      -7.890   1.627  -5.491  0.00  0.00    +0.000 A 
ATOM     27  C   UNL     1      -8.345   2.295  -4.369  0.00  0.00    +0.001 A 
ATOM     28  C   UNL     1      -7.471   2.614  -3.350  0.00  0.00    +0.008 A 
ENDBRANCH  11  23
ENDBRANCH   9  10
ENDBRANCH   5   9
BRANCH   2  29
ATOM     29  C   UNL     1      -5.020  -4.096   0.273  0.00  0.00    +0.117 C 
BRANCH  29  30
ATOM     30  C   UNL     1      -4.455  -4.859  -0.898  0.00  0.00    -0.033 A 
ATOM     31  C   UNL     1      -3.217  -4.518  -1.411  0.00  0.00    +0.004 A 
ATOM     32  C   UNL     1      -2.696  -5.220  -2.482  0.00  0.00    +0.000 A 
ATOM     33  C   UNL     1      -3.417  -6.256  -3.045  0.00  0.00    +0.000 A 
ATOM     34  C   UNL     1      -4.657  -6.593  -2.535  0.00  0.00    +0.000 A 
ATOM     35  C   UNL     1      -5.176  -5.895  -1.461  0.00  0.00    +0.004 A 
ENDBRANCH  29  30
BRANCH  29  36
ATOM     36  C   UNL     1      -4.175  -4.351   1.494  0.00  0.00    -0.033 A 
ATOM     37  C   UNL     1      -2.873  -3.891   1.542  0.00  0.00    +0.004 A 
ATOM     38  C   UNL     1      -2.099  -4.120   2.664  0.00  0.00    +0.000 A 
ATOM     39  C   UNL     1      -2.624  -4.820   3.734  0.00  0.00    +0.000 A 
ATOM     40  C   UNL     1      -3.925  -5.285   3.685  0.00  0.00    +0.000 A 
ATOM     41  C   UNL     1      -4.700  -5.051   2.565  0.00  0.00    +0.004 A 
ENDBRANCH  29  36
ENDBRANCH   2  29
TORSDOF 8
