REMARK  Name = ZINC01192407
REMARK  10 active torsions:
REMARK  status: ('A' for Active; 'I' for Inactive)
REMARK    1  A    between atoms: C_1  and  C_2
REMARK    2  A    between atoms: C_5  and  N_8
REMARK    3  A    between atoms: C_10  and  C_14
REMARK    4  A    between atoms: C_11  and  C_13
REMARK    5  A    between atoms: C_14  and  C_16
REMARK    6  A    between atoms: C_14  and  C_25
REMARK    7  A    between atoms: C_21  and  N_22
REMARK    8  A    between atoms: C_27  and  C_39
REMARK    9  A    between atoms: N_29  and  C_32
REMARK   10  A    between atoms: C_35  and  C_38
REMARK                            x       y       z     vdW  Elec       q    Type
REMARK                         _______ _______ _______ _____ _____    ______ ____
ROOT
ATOM      1  C   UNL     1      -0.991  -7.100   0.681  0.00  0.00    +0.076 C 
ENDROOT
BRANCH   1   4
ATOM      2  N   UNL     1      -3.889  -5.806  -1.199  0.00  0.00    -0.219 N 
ATOM      3  C   UNL     1      -3.105  -5.799  -0.102  0.00  0.00    +0.276 A 
ATOM      4  C   UNL     1      -2.091  -6.767  -0.293  0.00  0.00    +0.048 A 
ATOM      5  C   UNL     1      -2.281  -7.339  -1.499  0.00  0.00    +0.039 A 
ATOM      6  N   UNL     1      -3.382  -6.773  -2.078  0.00  0.00    -0.294 N 
ATOM      7  C   UNL     1      -1.427  -8.424  -2.104  0.00  0.00    +0.065 C 
ATOM      8  O   UNL     1      -3.244  -5.088   0.876  0.00  0.00    -0.266 OA
ATOM      9  H   UNL     1      -3.747  -7.000  -2.947  0.00  0.00    +0.187 HD
BRANCH   2  14
ATOM     10  C   UNL     1      -8.435  -2.533  -2.088  0.00  0.00    +0.044 C 
ATOM     11  C   UNL     1      -7.227  -3.402  -1.852  0.00  0.00    -0.050 A 
ATOM     12  C   UNL     1      -6.835  -4.314  -2.815  0.00  0.00    +0.005 A 
ATOM     13  C   UNL     1      -5.728  -5.113  -2.602  0.00  0.00    +0.028 A 
ATOM     14  C   UNL     1      -5.009  -4.999  -1.419  0.00  0.00    +0.067 A 
ATOM     15  C   UNL     1      -5.406  -4.082  -0.454  0.00  0.00    +0.028 A 
ATOM     16  C   UNL     1      -6.510  -3.283  -0.676  0.00  0.00    +0.005 A 
ENDBRANCH   2  14
ENDBRANCH   1   4
BRANCH   1  17
ATOM     17  C   UNL     1       0.027  -5.958   0.710  0.00  0.00    +0.135 C 
ATOM     18  C   UNL     1       0.671  -5.784  -0.649  0.00  0.00    +0.047 C 
ATOM     19  N   UNL     1       1.921  -5.994  -0.503  0.00  0.00    -0.181 NA
ATOM     20  N   UNL     1       2.275  -6.304   0.807  0.00  0.00    -0.160 N 
ATOM     21  C   UNL     1       1.192  -6.304   1.618  0.00  0.00    +0.249 C 
ATOM     22  O   UNL     1       1.158  -6.532   2.809  0.00  0.00    -0.273 OA
ATOM     23  C   UNL     1      -0.032  -5.429  -1.934  0.00  0.00    +0.063 C 
BRANCH  20  24
ATOM     24  C   UNL     1       3.581  -6.577   1.231  0.00  0.00    +0.060 A 
ATOM     25  C   UNL     1       3.830  -6.883   2.562  0.00  0.00    +0.026 A 
ATOM     26  C   UNL     1       5.120  -7.152   2.977  0.00  0.00    +0.005 A 
ATOM     27  C   UNL     1       6.162  -7.118   2.069  0.00  0.00    -0.050 A 
ATOM     28  C   UNL     1       5.916  -6.814   0.742  0.00  0.00    +0.005 A 
ATOM     29  C   UNL     1       4.628  -6.550   0.319  0.00  0.00    +0.026 A 
ATOM     30  C   UNL     1       7.568  -7.411   2.525  0.00  0.00    +0.044 C 
ENDBRANCH  20  24
ENDBRANCH   1  17
BRANCH   1  31
ATOM     31  C   UNL     1      -1.577  -7.285   2.057  0.00  0.00    -0.008 A 
ATOM     32  C   UNL     1      -1.748  -6.194   2.889  0.00  0.00    +0.006 A 
ATOM     33  C   UNL     1      -2.285  -6.365   4.151  0.00  0.00    +0.000 A 
ATOM     34  C   UNL     1      -2.653  -7.626   4.581  0.00  0.00    +0.002 A 
ATOM     35  C   UNL     1      -2.484  -8.717   3.749  0.00  0.00    +0.033 A 
ATOM     36  C   UNL     1      -1.950  -8.546   2.485  0.00  0.00    +0.130 A 
BRANCH  36  37
ATOM     37  N   UNL     1      -1.773  -9.713   1.592  0.00  0.00    +0.057 N 
ATOM     38  O   UNL     1      -2.607 -10.588   1.570  0.00  0.00    -0.126 OA
ATOM     39  O   UNL     1      -0.795  -9.791   0.886  0.00  0.00    -0.126 OA
ENDBRANCH  36  37
ENDBRANCH   1  31
TORSDOF 6
