REMARK  Name = ZINC44714226
REMARK  8 active torsions:
REMARK  status: ('A' for Active; 'I' for Inactive)
REMARK    1  A    between atoms: C_1  and  C_2
REMARK    2  A    between atoms: C_3  and  C_9
REMARK    3  A    between atoms: C_4  and  C_8
REMARK    4  A    between atoms: C_9  and  C_11
REMARK    5  A    between atoms: C_9  and  N_12
REMARK    6  A    between atoms: C_13  and  C_15
REMARK    7  A    between atoms: C_26  and  C_28
REMARK    8  A    between atoms: C_31  and  C_33
REMARK                            x       y       z     vdW  Elec       q    Type
REMARK                         _______ _______ _______ _____ _____    ______ ____
ROOT
ATOM      1  C   UNL     1       2.526  -1.343  -5.213  0.00  0.00    +0.100 C 
ATOM      2  C   UNL     1       3.838  -1.495  -4.412  0.00  0.00    +0.121 C 
ATOM      3  N   UNL     1       4.912  -1.383  -5.428  0.00  0.00    -0.294 N 
ATOM      4  C   UNL     1       4.439  -0.320  -6.348  0.00  0.00    +0.115 C 
ATOM      5  C   UNL     1       2.924  -0.571  -6.482  0.00  0.00    -0.004 C 
ATOM      6  C   UNL     1       2.174   0.756  -6.551  0.00  0.00    -0.010 C 
ATOM      7  C   UNL     1       2.543   1.479  -7.849  0.00  0.00    -0.082 C 
ATOM      8  N   UNL     1       2.191   0.635  -8.998  0.00  0.00    +0.379 N 
ATOM      9  C   UNL     1       2.985  -0.599  -8.974  0.00  0.00    -0.082 C 
ATOM     10  C   UNL     1       2.635  -1.409  -7.723  0.00  0.00    -0.010 C 
ATOM     11  C   UNL     1       6.058  -2.088  -5.500  0.00  0.00    +0.282 C 
ATOM     12  O   UNL     1       6.846  -1.877  -6.403  0.00  0.00    -0.267 OA
ATOM     13  H   UNL     1       1.210   0.403  -8.955  0.00  0.00    -0.086 HD
ATOM     14  H   UNL     1       2.378   1.138  -9.852  0.00  0.00    -0.086 HD
ENDROOT
BRANCH  11  15
ATOM     15  C   UNL     1       6.355  -3.108  -4.491  0.00  0.00    +0.190 A 
ATOM     16  C   UNL     1       7.486  -3.893  -4.443  0.00  0.00    +0.055 A 
ATOM     17  C   UNL     1       7.355  -4.721  -3.323  0.00  0.00    +0.050 A 
ATOM     18  C   UNL     1       6.162  -4.415  -2.735  0.00  0.00    +0.136 A 
ATOM     19  O   UNL     1       5.571  -3.438  -3.443  0.00  0.00    -0.450 OA
BRANCH  18  20
ATOM     20  C   UNL     1       5.614  -5.049  -1.518  0.00  0.00    +0.017 A 
ATOM     21  C   UNL     1       6.335  -6.050  -0.864  0.00  0.00    +0.011 A 
ATOM     22  C   UNL     1       5.817  -6.637   0.272  0.00  0.00    +0.001 A 
ATOM     23  C   UNL     1       4.588  -6.236   0.763  0.00  0.00    +0.000 A 
ATOM     24  C   UNL     1       3.868  -5.245   0.120  0.00  0.00    +0.001 A 
ATOM     25  C   UNL     1       4.376  -4.645  -1.014  0.00  0.00    +0.011 A 
ENDBRANCH  18  20
ENDBRANCH  11  15
BRANCH   1  27
ATOM     26  N   UNL     1       0.197  -0.776  -4.603  0.00  0.00    -0.308 N 
ATOM     27  C   UNL     1       1.514  -0.559  -4.418  0.00  0.00    +0.219 C 
ATOM     28  O   UNL     1       1.885   0.268  -3.611  0.00  0.00    -0.275 OA
ATOM     29  H   UNL     1      -0.100  -1.437  -5.248  0.00  0.00    +0.149 HD
BRANCH  26  30
ATOM     30  C   UNL     1      -0.787  -0.014  -3.830  0.00  0.00    +0.104 C 
ATOM     31  C   UNL     1      -1.059   1.321  -4.526  0.00  0.00    +0.033 C 
BRANCH  30  34
ATOM     32  C   UNL     1      -2.504  -0.429  -1.248  0.00  0.00    +0.065 C 
ATOM     33  C   UNL     1      -2.811  -0.980  -2.616  0.00  0.00    +0.038 A 
ATOM     34  C   UNL     1      -2.069  -0.801  -3.733  0.00  0.00    +0.015 A 
ATOM     35  C   UNL     1      -2.702  -1.474  -4.783  0.00  0.00    +0.065 A 
ATOM     36  N   UNL     1      -3.785  -2.038  -4.313  0.00  0.00    -0.179 NA
ATOM     37  N   UNL     1      -3.873  -1.744  -2.946  0.00  0.00    -0.281 N 
ATOM     38  H   UNL     1      -4.575  -2.037  -2.344  0.00  0.00    +0.189 HD
ATOM     39  C   UNL     1      -2.220  -1.540  -6.210  0.00  0.00    +0.068 C 
ENDBRANCH  30  34
ENDBRANCH  26  30
ENDBRANCH   1  27
TORSDOF 5
