REMARK  Name = ZINC64986848
REMARK  6 active torsions:
REMARK  status: ('A' for Active; 'I' for Inactive)
REMARK    1  A    between atoms: C_1  and  C_2
REMARK    2  A    between atoms: C_5  and  O_8
REMARK    3  A    between atoms: O_8  and  C_9
REMARK    4  A    between atoms: C_14  and  S_15
REMARK    5  A    between atoms: S_15  and  N_18
REMARK    6  A    between atoms: C_21  and  C_24
REMARK                            x       y       z     vdW  Elec       q    Type
REMARK                         _______ _______ _______ _____ _____    ______ ____
ROOT
ATOM      1  C   UNL     1       0.176  -4.771   1.169  0.00  0.00    +0.158 A 
ATOM      2  C   UNL     1       0.165  -4.044   2.352  0.00  0.00    +0.095 A 
ATOM      3  C   UNL     1       0.289  -4.694   3.567  0.00  0.00    +0.144 A 
ATOM      4  C   UNL     1       0.455  -6.086   3.600  0.00  0.00    +0.081 A 
ATOM      5  C   UNL     1       0.446  -6.811   2.402  0.00  0.00    +0.049 A 
ATOM      6  C   UNL     1       0.304  -6.156   1.201  0.00  0.00    +0.148 A 
ATOM      7  C   UNL     1       0.667  -6.785   4.872  0.00  0.00    +0.252 C 
ATOM      8  O   UNL     1       1.456  -7.710   4.879  0.00  0.00    -0.270 OA
ATOM      9  N   UNL     1       0.064  -6.487   6.014  0.00  0.00    -0.278 N 
ATOM     10  C   UNL     1      -0.885  -5.483   6.206  0.00  0.00    +0.076 A 
ATOM     11  C   UNL     1      -1.971  -5.735   7.039  0.00  0.00    +0.027 A 
ATOM     12  C   UNL     1      -2.912  -4.752   7.271  0.00  0.00    +0.002 A 
ATOM     13  C   UNL     1      -2.780  -3.511   6.676  0.00  0.00    +0.004 A 
ATOM     14  C   UNL     1      -1.711  -3.256   5.839  0.00  0.00    +0.048 A 
ATOM     15  C   UNL     1      -0.767  -4.244   5.591  0.00  0.00    +0.150 A 
ATOM     16  O   UNL     1       0.237  -3.985   4.718  0.00  0.00    -0.453 OA
ATOM     17  H   UNL     1       0.306  -7.016   6.790  0.00  0.00    +0.155 HD
ENDROOT
BRANCH   6  18
ATOM     18  S   UNL     1       0.289  -7.074  -0.303  0.00  0.00    +0.064 S 
ATOM     19  O   UNL     1       1.206  -6.432  -1.179  0.00  0.00    -0.153 OA
ATOM     20  O   UNL     1       0.409  -8.443   0.056  0.00  0.00    -0.153 OA
BRANCH  18  21
ATOM     21  N   UNL     1      -1.214  -6.890  -0.974  0.00  0.00    -0.176 NA
ATOM     22  C   UNL     1      -2.299  -7.824  -0.646  0.00  0.00    +0.110 C 
ATOM     23  C   UNL     1      -2.879  -8.384  -1.949  0.00  0.00    +0.020 C 
ATOM     24  C   UNL     1      -3.300  -7.224  -2.854  0.00  0.00    -0.012 C 
ATOM     25  C   UNL     1      -2.076  -6.372  -3.197  0.00  0.00    +0.020 C 
ATOM     26  C   UNL     1      -1.489  -5.786  -1.904  0.00  0.00    +0.110 C 
ATOM     27  C   UNL     1      -3.912  -7.779  -4.142  0.00  0.00    +0.007 C 
ENDBRANCH  18  21
ENDBRANCH   6  18
BRANCH   1  28
ATOM     28  O   UNL     1       0.058  -4.129  -0.021  0.00  0.00    -0.454 OA
BRANCH  28  33
ATOM     29  C   UNL     1       0.065   1.503  -0.001  0.00  0.00    +0.044 C 
ATOM     30  C   UNL     1       0.063  -0.004  -0.006  0.00  0.00    -0.050 A 
ATOM     31  C   UNL     1       1.209  -0.697   0.338  0.00  0.00    +0.007 A 
ATOM     32  C   UNL     1       1.210  -2.078   0.334  0.00  0.00    +0.046 A 
ATOM     33  C   UNL     1       0.059  -2.770  -0.016  0.00  0.00    +0.129 A 
ATOM     34  C   UNL     1      -1.089  -2.072  -0.360  0.00  0.00    +0.046 A 
ATOM     35  C   UNL     1      -1.087  -0.691  -0.349  0.00  0.00    +0.007 A 
ENDBRANCH  28  33
ENDBRANCH   1  28
TORSDOF 4
