REMARK  Name = ZINC18017143
REMARK  13 active torsions:
REMARK  status: ('A' for Active; 'I' for Inactive)
REMARK    1  A    between atoms: C_1  and  C_2
REMARK    2  A    between atoms: C_2  and  C_3
REMARK    3  A    between atoms: C_6  and  C_9
REMARK    4  A    between atoms: C_9  and  C_11
REMARK    5  A    between atoms: C_9  and  N_64
REMARK    6  A    between atoms: C_11  and  N_12
REMARK    7  A    between atoms: C_13  and  C_15
REMARK    8  A    between atoms: C_18  and  S_21
REMARK    9  A    between atoms: S_21  and  N_24
REMARK   10  A    between atoms: N_24  and  C_25
REMARK   11  A    between atoms: C_30  and  C_31
REMARK   12  A    between atoms: C_32  and  N_64
REMARK   13  A    between atoms: C_33  and  N_64
REMARK                            x       y       z     vdW  Elec       q    Type
REMARK                         _______ _______ _______ _____ _____    ______ ____
ROOT
ATOM      1  N   UNL     1      -2.462   4.620  -6.278  0.00  0.00    -0.313 N 
ATOM      2  C   UNL     1      -2.777   3.330  -6.047  0.00  0.00    +0.244 C 
ATOM      3  O   UNL     1      -2.994   2.581  -6.979  0.00  0.00    -0.270 OA
ATOM      4  H   UNL     1      -2.288   5.217  -5.533  0.00  0.00    +0.149 HD
ENDROOT
BRANCH   2   5
ATOM      5  C   UNL     1      -2.860   2.826  -4.659  0.00  0.00    +0.037 A 
ATOM      6  C   UNL     1      -3.187   1.491  -4.417  0.00  0.00    +0.015 A 
ATOM      7  C   UNL     1      -3.262   1.027  -3.120  0.00  0.00    +0.029 A 
ATOM      8  C   UNL     1      -3.014   1.882  -2.061  0.00  0.00    +0.109 A 
ATOM      9  C   UNL     1      -2.694   3.208  -2.294  0.00  0.00    +0.029 A 
ATOM     10  C   UNL     1      -2.611   3.683  -3.586  0.00  0.00    +0.015 A 
BRANCH   8  11
ATOM     11  S   UNL     1      -3.112   1.281  -0.407  0.00  0.00    +0.072 S 
ATOM     12  O   UNL     1      -3.966   0.146  -0.437  0.00  0.00    -0.150 OA
ATOM     13  O   UNL     1      -3.372   2.408   0.420  0.00  0.00    -0.150 OA
BRANCH  11  14
ATOM     14  N   UNL     1      -1.606   0.730   0.004  0.00  0.00    -0.216 N 
ATOM     15  H   UNL     1      -1.481  -0.200   0.252  0.00  0.00    +0.174 HD
BRANCH  14  16
ATOM     16  C   UNL     1      -0.515   1.601  -0.011  0.00  0.00    +0.051 A 
ATOM     17  C   UNL     1      -0.676   2.926   0.376  0.00  0.00    +0.025 A 
ATOM     18  C   UNL     1       0.406   3.784   0.364  0.00  0.00    +0.002 A 
ATOM     19  C   UNL     1       1.647   3.328  -0.044  0.00  0.00    +0.000 A 
ATOM     20  C   UNL     1       1.810   2.012  -0.435  0.00  0.00    +0.005 A 
ATOM     21  C   UNL     1       0.733   1.147  -0.420  0.00  0.00    -0.028 A 
ATOM     22  C   UNL     1       0.911  -0.287  -0.847  0.00  0.00    +0.046 C 
ENDBRANCH  14  16
ENDBRANCH  11  14
ENDBRANCH   8  11
ENDBRANCH   2   5
BRANCH   1  23
ATOM     23  C   UNL     1      -2.380   5.119  -7.652  0.00  0.00    +0.094 C 
BRANCH  23  24
ATOM     24  C   UNL     1      -2.007   6.603  -7.635  0.00  0.00    -0.021 C 
BRANCH  24  28
ATOM     25  C   UNL     1      -2.109   8.145 -11.617  0.00  0.00    -0.048 A 
ATOM     26  C   UNL     1      -3.196   7.454 -11.115  0.00  0.00    +0.004 A 
ATOM     27  C   UNL     1      -3.163   6.955  -9.827  0.00  0.00    +0.002 A 
ATOM     28  C   UNL     1      -2.043   7.146  -9.040  0.00  0.00    -0.059 A 
ATOM     29  C   UNL     1      -0.958   7.841  -9.540  0.00  0.00    +0.002 A 
ATOM     30  C   UNL     1      -0.989   8.336 -10.831  0.00  0.00    +0.004 A 
BRANCH  25  32
ATOM     31  C   UNL     1      -2.714  10.109 -13.004  0.00  0.00    +0.009 C 
ATOM     32  C   UNL     1      -2.145   8.689 -13.022  0.00  0.00    +0.032 C 
ENDBRANCH  25  32
ENDBRANCH  24  28
BRANCH  24  35
ATOM     33  C   UNL     1      -2.605   8.759  -6.711  0.00  0.00    -0.096 C 
ATOM     34  C   UNL     1      -4.337   7.175  -7.305  0.00  0.00    -0.096 C 
ATOM     35  N   UNL     1      -2.966   7.327  -6.774  0.00  0.00    +0.382 N 
ATOM     36  H   UNL     1      -2.929   6.932  -5.827  0.00  0.00    -0.082 HD
ENDBRANCH  24  35
ENDBRANCH  23  24
ENDBRANCH   1  23
TORSDOF 9
