REMARK  Name = ZINC09517251
REMARK  12 active torsions:
REMARK  status: ('A' for Active; 'I' for Inactive)
REMARK    1  A    between atoms: C_1  and  C_2
REMARK    2  A    between atoms: C_2  and  O_3
REMARK    3  A    between atoms: O_3  and  C_4
REMARK    4  A    between atoms: C_7  and  C_10
REMARK    5  A    between atoms: C_10  and  C_12
REMARK    6  A    between atoms: C_10  and  N_22
REMARK    7  A    between atoms: C_13  and  O_21
REMARK    8  A    between atoms: C_18  and  C_20
REMARK    9  A    between atoms: C_26  and  C_29
REMARK   10  A    between atoms: C_29  and  O_31
REMARK   11  A    between atoms: O_31  and  C_32
REMARK   12  A    between atoms: C_32  and  C_33
REMARK                            x       y       z     vdW  Elec       q    Type
REMARK                         _______ _______ _______ _____ _____    ______ ____
ROOT
ATOM      1  C   UNL     1       1.109  -6.040  -1.847  0.00  0.00    +0.005 C 
ENDROOT
BRANCH   1   2
ATOM      2  C   UNL     1       0.054  -6.514  -2.813  0.00  0.00    +0.045 A 
ATOM      3  C   UNL     1      -0.991  -7.320  -2.594  0.00  0.00    +0.225 A 
ATOM      4  N   UNL     1      -1.854  -7.641  -3.615  0.00  0.00    -0.173 N 
ATOM      5  C   UNL     1      -1.596  -7.107  -4.840  0.00  0.00    +0.199 A 
ATOM      6  S   UNL     1      -0.134  -6.140  -4.550  0.00  0.00    -0.050 S 
ATOM      7  N   UNL     1      -2.501  -7.508  -5.691  0.00  0.00    -0.205 NA
ATOM      8  C   UNL     1      -3.368  -8.303  -5.069  0.00  0.00    +0.150 A 
ATOM      9  N   UNL     1      -3.025  -8.418  -3.815  0.00  0.00    -0.147 NA
ATOM     10  C   UNL     1      -4.559  -8.967  -5.712  0.00  0.00    +0.090 C 
BRANCH   3  11
ATOM     11  O   UNL     1      -1.202  -7.827  -1.349  0.00  0.00    -0.492 OA
ATOM     12  H   UNL     1      -1.979  -8.398  -1.284  0.00  0.00    +0.294 HD
ENDBRANCH   3  11
ENDBRANCH   1   2
BRANCH   1  13
ATOM     13  N   UNL     1       2.440  -6.366  -2.377  0.00  0.00    +0.388 N 
ATOM     14  C   UNL     1       2.550  -7.818  -2.560  0.00  0.00    -0.077 C 
ATOM     15  C   UNL     1       3.904  -8.156  -3.187  0.00  0.00    -0.018 C 
ATOM     16  C   UNL     1       5.024  -7.671  -2.263  0.00  0.00    +0.011 C 
ATOM     17  C   UNL     1       4.856  -6.168  -2.019  0.00  0.00    +0.081 C 
ATOM     18  C   UNL     1       3.466  -5.904  -1.435  0.00  0.00    -0.063 C 
ATOM     19  H   UNL     1       2.569  -5.906  -3.266  0.00  0.00    -0.080 HD
BRANCH  17  20
ATOM     20  C   UNL     1       5.908  -5.695  -1.049  0.00  0.00    +0.308 C 
ATOM     21  O   UNL     1       5.581  -5.194   0.000  0.00  0.00    -0.251 OA
BRANCH  20  22
ATOM     22  O   UNL     1       7.209  -5.830  -1.352  0.00  0.00    -0.465 OA
BRANCH  22  23
ATOM     23  C   UNL     1       8.152  -5.360  -0.387  0.00  0.00    +0.229 C 
ATOM     24  C   UNL     1       9.572  -5.598  -0.904  0.00  0.00    +0.048 C 
ENDBRANCH  22  23
ENDBRANCH  20  22
ENDBRANCH  17  20
ENDBRANCH   1  13
BRANCH   1  28
ATOM     25  C   UNL     1       0.777  -1.810  -1.336  0.00  0.00    +0.121 A 
ATOM     26  C   UNL     1       0.243  -2.669  -0.386  0.00  0.00    +0.046 A 
ATOM     27  C   UNL     1       0.351  -4.036  -0.554  0.00  0.00    +0.006 A 
ATOM     28  C   UNL     1       0.992  -4.548  -1.667  0.00  0.00    -0.056 A 
ATOM     29  C   UNL     1       1.525  -3.694  -2.615  0.00  0.00    +0.006 A 
ATOM     30  C   UNL     1       1.414  -2.327  -2.455  0.00  0.00    +0.046 A 
BRANCH  25  31
ATOM     31  O   UNL     1       0.671  -0.465  -1.174  0.00  0.00    -0.492 OA
BRANCH  31  33
ATOM     32  C   UNL     1      -0.019   1.526   0.010  0.00  0.00    +0.048 C 
ATOM     33  C   UNL     1       0.002  -0.004   0.002  0.00  0.00    +0.225 C 
ENDBRANCH  31  33
ENDBRANCH  25  31
ENDBRANCH   1  28
TORSDOF 9
