REMARK  Name = ZINC02105314
REMARK  9 active torsions:
REMARK  status: ('A' for Active; 'I' for Inactive)
REMARK    1  A    between atoms: C_1  and  C_2
REMARK    2  A    between atoms: C_2  and  N_65
REMARK    3  A    between atoms: C_3  and  C_4
REMARK    4  A    between atoms: C_3  and  N_65
REMARK    5  A    between atoms: C_5  and  C_6
REMARK    6  A    between atoms: C_5  and  N_65
REMARK    7  A    between atoms: C_6  and  C_7
REMARK    8  A    between atoms: C_7  and  N_8
REMARK    9  A    between atoms: C_28  and  C_30
REMARK                            x       y       z     vdW  Elec       q    Type
REMARK                         _______ _______ _______ _____ _____    ______ ____
ROOT
ATOM      1  N   UNL     1       1.726   4.067   0.731  0.00  0.00    -0.291 N 
ATOM      2  C   UNL     1       2.327   2.915   1.381  0.00  0.00    +0.203 C 
ATOM      3  C   UNL     1       2.064   1.648   0.634  0.00  0.00    +0.234 C 
ATOM      4  O   UNL     1       2.540   0.623   1.073  0.00  0.00    -0.274 OA
ATOM      5  N   UNL     1       1.340   1.569  -0.484  0.00  0.00    -0.276 N 
ATOM      6  C   UNL     1       0.646   2.715  -1.071  0.00  0.00    +0.167 C 
ATOM      7  C   UNL     1       0.975   3.991  -0.366  0.00  0.00    +0.237 C 
ATOM      8  O   UNL     1       0.530   5.023  -0.823  0.00  0.00    -0.274 OA
ATOM      9  C   UNL     1      -0.869   2.470  -1.014  0.00  0.00    +0.069 C 
ATOM     10  C   UNL     1      -1.152   1.061  -1.468  0.00  0.00    -0.015 A 
ATOM     11  C   UNL     1      -2.413   0.493  -1.901  0.00  0.00    +0.003 A 
ATOM     12  C   UNL     1      -3.697   1.030  -2.035  0.00  0.00    +0.010 A 
ATOM     13  C   UNL     1      -4.680   0.181  -2.482  0.00  0.00    +0.001 A 
ATOM     14  C   UNL     1      -4.424  -1.145  -2.789  0.00  0.00    +0.002 A 
ATOM     15  C   UNL     1      -3.163  -1.702  -2.665  0.00  0.00    +0.026 A 
ATOM     16  C   UNL     1      -2.145  -0.864  -2.214  0.00  0.00    +0.047 A 
ATOM     17  N   UNL     1      -0.817  -1.079  -1.984  0.00  0.00    -0.356 N 
ATOM     18  H   UNL     1      -0.357  -1.923  -2.115  0.00  0.00    +0.166 HD
ATOM     19  C   UNL     1      -0.231   0.076  -1.539  0.00  0.00    +0.046 A 
ATOM     20  C   UNL     1       1.223   0.265  -1.172  0.00  0.00    +0.154 C 
ENDROOT
BRANCH  20  21
ATOM     21  C   UNL     1       2.070   0.266  -2.418  0.00  0.00    -0.021 A 
ATOM     22  C   UNL     1       2.238  -0.901  -3.140  0.00  0.00    +0.006 A 
ATOM     23  C   UNL     1       3.011  -0.899  -4.287  0.00  0.00    +0.000 A 
ATOM     24  C   UNL     1       3.625   0.267  -4.704  0.00  0.00    +0.000 A 
ATOM     25  C   UNL     1       3.461   1.433  -3.979  0.00  0.00    +0.000 A 
ATOM     26  C   UNL     1       2.684   1.432  -2.836  0.00  0.00    +0.006 A 
ENDBRANCH  20  21
BRANCH   1  27
ATOM     27  C   UNL     1       1.960   5.390   1.316  0.00  0.00    +0.106 C 
BRANCH  27  28
ATOM     28  C   UNL     1       3.220   6.004   0.703  0.00  0.00    +0.000 C 
BRANCH  28  29
ATOM     29  C   UNL     1       3.464   7.385   1.314  0.00  0.00    -0.077 C 
BRANCH  29  30
ATOM     30  N   UNL     1       4.695   7.955   0.727  0.00  0.00    +0.379 N 
ATOM     31  H   UNL     1       5.455   7.270   0.815  0.00  0.00    -0.082 HD
BRANCH  30  33
ATOM     32  C   UNL     1       3.287   9.193  -0.884  0.00  0.00    -0.017 C 
ATOM     33  C   UNL     1       4.481   8.254  -0.705  0.00  0.00    -0.082 C 
ENDBRANCH  30  33
BRANCH  30  34
ATOM     34  C   UNL     1       5.075   9.188   1.449  0.00  0.00    -0.082 C 
ATOM     35  C   UNL     1       6.496   9.581   1.038  0.00  0.00    -0.017 C 
ENDBRANCH  30  34
ENDBRANCH  29  30
ENDBRANCH  28  29
ENDBRANCH  27  28
ENDBRANCH   1  27
TORSDOF 7
