REMARK  Name = ZINC63253284
REMARK  10 active torsions:
REMARK  status: ('A' for Active; 'I' for Inactive)
REMARK    1  A    between atoms: C_1  and  C_2
REMARK    2  A    between atoms: C_6  and  N_8
REMARK    3  A    between atoms: C_9  and  C_26
REMARK    4  A    between atoms: C_12  and  S_13
REMARK    5  A    between atoms: S_13  and  C_14
REMARK    6  A    between atoms: C_14  and  C_15
REMARK    7  A    between atoms: C_15  and  C_17
REMARK    8  A    between atoms: C_19  and  C_25
REMARK    9  A    between atoms: C_20  and  C_24
REMARK   10  A    between atoms: C_22  and  C_23
REMARK                            x       y       z     vdW  Elec       q    Type
REMARK                         _______ _______ _______ _____ _____    ______ ____
ROOT
ATOM      1  N   UNL     1      -0.427  -1.496   3.090  0.00  0.00    -0.270 N 
ATOM      2  C   UNL     1      -1.472  -2.231   3.626  0.00  0.00    +0.168 A 
ATOM      3  N   UNL     1      -1.004  -2.837   4.708  0.00  0.00    -0.128 NA
ATOM      4  N   UNL     1       0.233  -2.533   4.875  0.00  0.00    -0.122 NA
ATOM      5  C   UNL     1       0.639  -1.721   3.911  0.00  0.00    +0.197 A 
ENDROOT
BRANCH   2   6
ATOM      6  C   UNL     1      -2.778  -2.317   3.119  0.00  0.00    +0.025 C 
ATOM      7  C   UNL     1      -3.842  -3.047   3.649  0.00  0.00    +0.006 A 
ATOM      8  C   UNL     1      -3.956  -3.880   4.783  0.00  0.00    +0.010 A 
ATOM      9  C   UNL     1      -5.142  -4.477   5.064  0.00  0.00    +0.001 A 
ATOM     10  C   UNL     1      -6.265  -4.289   4.255  0.00  0.00    +0.002 A 
ATOM     11  C   UNL     1      -6.228  -3.504   3.151  0.00  0.00    +0.026 A 
ATOM     12  C   UNL     1      -5.023  -2.846   2.793  0.00  0.00    +0.043 A 
ATOM     13  N   UNL     1      -4.732  -2.044   1.788  0.00  0.00    -0.380 N 
ATOM     14  C   UNL     1      -3.328  -1.632   1.887  0.00  0.00    +0.152 C 
ATOM     15  H   UNL     1      -5.351  -1.766   1.094  0.00  0.00    +0.160 HD
ENDBRANCH   2   6
BRANCH   1  21
ATOM     16  C   UNL     1      -0.094   2.954   1.025  0.00  0.00    +0.044 C 
ATOM     17  C   UNL     1      -0.298   1.465   0.913  0.00  0.00    -0.048 A 
ATOM     18  C   UNL     1      -0.515   0.889  -0.326  0.00  0.00    +0.003 A 
ATOM     19  C   UNL     1      -0.704  -0.476  -0.433  0.00  0.00    +0.002 A 
ATOM     20  C   UNL     1      -0.675  -1.270   0.698  0.00  0.00    +0.026 A 
ATOM     21  C   UNL     1      -0.457  -0.694   1.942  0.00  0.00    +0.051 A 
ATOM     22  C   UNL     1      -0.262   0.677   2.046  0.00  0.00    +0.029 A 
ENDBRANCH   1  21
BRANCH   5  23
ATOM     23  S   UNL     1       2.258  -1.050   3.724  0.00  0.00    -0.078 S 
BRANCH  23  24
ATOM     24  C   UNL     1       3.181  -1.734   5.128  0.00  0.00    +0.157 C 
BRANCH  24  25
ATOM     25  C   UNL     1       4.601  -1.232   5.088  0.00  0.00    +0.174 C 
ATOM     26  O   UNL     1       4.956  -0.486   4.200  0.00  0.00    -0.291 OA
BRANCH  25  27
ATOM     27  C   UNL     1       5.558  -1.648   6.127  0.00  0.00    +0.021 A 
ATOM     28  C   UNL     1       5.124  -2.404   7.220  0.00  0.00    +0.015 A 
ATOM     29  C   UNL     1       6.026  -2.790   8.188  0.00  0.00    -0.047 A 
ATOM     30  C   UNL     1       7.359  -2.430   8.081  0.00  0.00    -0.047 A 
ATOM     31  C   UNL     1       7.795  -1.681   7.002  0.00  0.00    +0.007 A 
ATOM     32  C   UNL     1       6.906  -1.292   6.022  0.00  0.00    -0.040 A 
ATOM     33  C   UNL     1       7.385  -0.482   4.845  0.00  0.00    +0.044 C 
ATOM     34  C   UNL     1       8.338  -2.855   9.144  0.00  0.00    +0.044 C 
ATOM     35  C   UNL     1       5.561  -3.605   9.367  0.00  0.00    +0.044 C 
ENDBRANCH  25  27
ENDBRANCH  24  25
ENDBRANCH  23  24
ENDBRANCH   5  23
TORSDOF 6
