REMARK  Name = ZINC45615341
REMARK  7 active torsions:
REMARK  status: ('A' for Active; 'I' for Inactive)
REMARK    1  A    between atoms: C_1  and  C_2
REMARK    2  A    between atoms: N_15  and  C_16
REMARK    3  A    between atoms: C_16  and  C_18
REMARK    4  A    between atoms: C_16  and  C_26
REMARK    5  A    between atoms: C_21  and  O_24
REMARK    6  A    between atoms: O_24  and  C_25
REMARK    7  A    between atoms: N_30  and  C_31
REMARK                            x       y       z     vdW  Elec       q    Type
REMARK                         _______ _______ _______ _____ _____    ______ ____
ROOT
ATOM      1  C   UNL     1      -0.018   1.503   0.010  0.00  0.00    +0.069 C 
ATOM      2  C   UNL     1       0.002  -0.004   0.002  0.00  0.00    +0.081 A 
ATOM      3  C   UNL     1       0.008  -0.806  -1.133  0.00  0.00    +0.108 A 
ATOM      4  C   UNL     1       0.028  -2.130  -0.715  0.00  0.00    +0.177 A 
ATOM      5  N   UNL     1       0.041  -3.281  -1.411  0.00  0.00    -0.211 NA
ATOM      6  C   UNL     1       0.060  -4.456  -0.819  0.00  0.00    +0.131 A 
ATOM      7  C   UNL     1       0.067  -4.511   0.650  0.00  0.00    +0.040 A 
ATOM      8  C   UNL     1       0.088  -5.724   1.339  0.00  0.00    +0.013 A 
ATOM      9  C   UNL     1       0.095  -5.724   2.706  0.00  0.00    +0.001 A 
ATOM     10  C   UNL     1       0.081  -4.531   3.414  0.00  0.00    +0.002 A 
ATOM     11  C   UNL     1       0.061  -3.321   2.751  0.00  0.00    +0.028 A 
ATOM     12  C   UNL     1       0.053  -3.300   1.364  0.00  0.00    +0.078 A 
ATOM     13  N   UNL     1       0.034  -2.111   0.654  0.00  0.00    -0.212 N 
ATOM     14  N   UNL     1       0.023  -0.772   1.065  0.00  0.00    -0.168 NA
ATOM     15  N   UNL     1       0.072  -5.617  -1.565  0.00  0.00    -0.315 N 
ATOM     16 CL   UNL     1      -0.008  -0.253  -2.778  0.00  0.00    -0.078 Cl
ATOM     17  H   UNL     1       0.086  -6.479  -1.120  0.00  0.00    +0.148 HD
ENDROOT
BRANCH  15  18
ATOM     18  C   UNL     1       0.064  -5.548  -3.028  0.00  0.00    +0.167 C 
BRANCH  18  19
ATOM     19  C   UNL     1      -1.356  -5.421  -3.517  0.00  0.00    +0.112 A 
ATOM     20  N   UNL     1      -2.402  -5.975  -2.968  0.00  0.00    -0.348 N 
ATOM     21  C   UNL     1      -3.497  -5.645  -3.669  0.00  0.00    +0.102 A 
ATOM     22  C   UNL     1      -3.114  -4.856  -4.692  0.00  0.00    +0.104 A 
ATOM     23  N   UNL     1      -1.757  -4.709  -4.592  0.00  0.00    -0.337 N 
ATOM     24  C   UNL     1      -0.899  -3.928  -5.487  0.00  0.00    +0.150 C 
ATOM     25  H   UNL     1      -2.390  -6.537  -2.178  0.00  0.00    +0.167 HD
ENDBRANCH  18  19
BRANCH  18  26
ATOM     26  C   UNL     1       0.679  -6.803  -3.594  0.00  0.00    -0.020 A 
ATOM     27  C   UNL     1       0.401  -8.028  -3.017  0.00  0.00    +0.009 A 
ATOM     28  C   UNL     1       0.963  -9.179  -3.533  0.00  0.00    +0.046 A 
ATOM     29  C   UNL     1       1.808  -9.105  -4.631  0.00  0.00    +0.120 A 
ATOM     30  C   UNL     1       2.086  -7.874  -5.208  0.00  0.00    +0.046 A 
ATOM     31  C   UNL     1       1.516  -6.726  -4.691  0.00  0.00    +0.009 A 
BRANCH  29  32
ATOM     32  O   UNL     1       2.364 -10.236  -5.141  0.00  0.00    -0.495 OA
ATOM     33  C   UNL     1       3.224 -10.084  -6.272  0.00  0.00    +0.277 C 
ENDBRANCH  29  32
ENDBRANCH  18  26
ENDBRANCH  15  18
TORSDOF 4
