REMARK  Name = ZINC05271127
REMARK  9 active torsions:
REMARK  status: ('A' for Active; 'I' for Inactive)
REMARK    1  A    between atoms: C_1  and  C_2
REMARK    2  A    between atoms: C_2  and  C_3
REMARK    3  A    between atoms: C_3  and  C_4
REMARK    4  A    between atoms: C_4  and  C_6
REMARK    5  A    between atoms: C_4  and  C_7
REMARK    6  A    between atoms: C_9  and  C_26
REMARK    7  A    between atoms: N_13  and  C_18
REMARK    8  A    between atoms: C_21  and  C_25
REMARK    9  A    between atoms: C_22  and  C_24
REMARK                            x       y       z     vdW  Elec       q    Type
REMARK                         _______ _______ _______ _____ _____    ______ ____
ROOT
ATOM      1  C   UNL     1      -0.750   5.600   0.036  0.00  0.00    +0.135 A 
ATOM      2  N   UNL     1       0.564   5.664   0.024  0.00  0.00    -0.225 NA
ATOM      3  C   UNL     1       1.307   4.555   0.012  0.00  0.00    +0.154 A 
ATOM      4  C   UNL     1       0.658   3.321   0.013  0.00  0.00    +0.117 A 
ATOM      5  C   UNL     1      -0.747   3.303   0.026  0.00  0.00    +0.170 A 
ATOM      6  N   UNL     1      -1.402   4.452   0.037  0.00  0.00    -0.212 NA
ATOM      7  N   UNL     1      -1.126   1.972   0.018  0.00  0.00    -0.245 N 
ATOM      8  C   UNL     1      -0.014   1.212   0.009  0.00  0.00    +0.333 A 
ATOM      9  O   UNL     1       0.002  -0.004   0.002  0.00  0.00    -0.246 OA
ATOM     10  N   UNL     1       1.077   2.002   0.003  0.00  0.00    -0.303 N 
ATOM     11  H   UNL     1       1.998   1.699  -0.007  0.00  0.00    +0.171 HD
ENDROOT
BRANCH   7  12
ATOM     12  C   UNL     1      -2.444   1.496   0.021  0.00  0.00    +0.053 A 
ATOM     13  C   UNL     1      -3.507   2.389   0.030  0.00  0.00    +0.026 A 
ATOM     14  C   UNL     1      -4.805   1.917   0.033  0.00  0.00    +0.005 A 
ATOM     15  C   UNL     1      -5.046   0.555   0.028  0.00  0.00    -0.047 A 
ATOM     16  C   UNL     1      -3.990  -0.337   0.019  0.00  0.00    -0.046 A 
ATOM     17  C   UNL     1      -2.690   0.130   0.010  0.00  0.00    +0.030 A 
ATOM     18  C   UNL     1      -4.258  -1.820   0.013  0.00  0.00    +0.044 C 
ATOM     19  C   UNL     1      -6.464   0.043   0.031  0.00  0.00    +0.044 C 
ENDBRANCH   7  12
BRANCH   3  20
ATOM     20  C   UNL     1       2.786   4.635  -0.001  0.00  0.00    +0.262 C 
ATOM     21  O   UNL     1       3.449   3.616  -0.011  0.00  0.00    -0.269 OA
ATOM     22  N   UNL     1       3.396   5.836  -0.001  0.00  0.00    -0.324 N 
ATOM     23  H   UNL     1       2.867   6.649   0.007  0.00  0.00    +0.145 HD
ATOM     24  H   UNL     1       4.365   5.888  -0.009  0.00  0.00    +0.145 HD
ENDBRANCH   3  20
BRANCH   1  25
ATOM     25  C   UNL     1      -1.540   6.883   0.049  0.00  0.00    +0.054 C 
ATOM     26  C   UNL     1      -1.204   7.701  -1.200  0.00  0.00    +0.015 C 
BRANCH  25  27
ATOM     27  C   UNL     1      -1.181   7.690   1.299  0.00  0.00    +0.011 C 
BRANCH  27  29
ATOM     28  C   UNL     1      -1.713   9.738   2.627  0.00  0.00    +0.004 C 
ATOM     29  C   UNL     1      -2.071   8.932   1.377  0.00  0.00    -0.003 C 
ENDBRANCH  27  29
ENDBRANCH  25  27
ENDBRANCH   1  25
TORSDOF 5
