REMARK  Name = ZINC28292701
REMARK  7 active torsions:
REMARK  status: ('A' for Active; 'I' for Inactive)
REMARK    1  A    between atoms: C_1  and  C_2
REMARK    2  A    between atoms: C_2  and  C_3
REMARK    3  A    between atoms: C_6  and  C_9
REMARK    4  A    between atoms: C_9  and  C_11
REMARK    5  A    between atoms: C_9  and  N_27
REMARK    6  A    between atoms: C_11  and  N_12
REMARK    7  A    between atoms: C_13  and  C_15
REMARK                            x       y       z     vdW  Elec       q    Type
REMARK                         _______ _______ _______ _____ _____    ______ ____
ROOT
ATOM      1  C   UNL     1       0.057   1.501   0.063  0.00  0.00    +0.094 C 
ENDROOT
BRANCH   1   2
ATOM      2  N   UNL     1      -0.517   1.968   1.327  0.00  0.00    -0.310 N 
ATOM      3  C   UNL     1      -0.664   3.289   1.554  0.00  0.00    +0.279 C 
ATOM      4  O   UNL     1      -0.320   4.092   0.710  0.00  0.00    -0.267 OA
ATOM      5  H   UNL     1      -0.829   1.241   2.092  0.00  0.00    +0.149 HD
BRANCH   3   6
ATOM      6  C   UNL     1      -1.245   3.761   2.833  0.00  0.00    +0.193 A 
ATOM      7  C   UNL     1      -1.381   5.094   3.033  0.00  0.00    +0.103 A 
ATOM      8  C   UNL     1      -1.958   5.564   4.302  0.00  0.00    +0.193 A 
ATOM      9  O   UNL     1      -2.102   6.751   4.536  0.00  0.00    -0.287 OA
ATOM     10  C   UNL     1      -2.352   4.530   5.277  0.00  0.00    +0.065 A 
ATOM     11  C   UNL     1      -2.909   4.871   6.510  0.00  0.00    +0.035 A 
ATOM     12  C   UNL     1      -3.263   3.875   7.394  0.00  0.00    +0.042 A 
ATOM     13  C   UNL     1      -3.069   2.541   7.060  0.00  0.00    +0.023 A 
ATOM     14  C   UNL     1      -2.520   2.192   5.845  0.00  0.00    +0.048 A 
ATOM     15  C   UNL     1      -2.154   3.180   4.937  0.00  0.00    +0.140 A 
ATOM     16  O   UNL     1      -1.622   2.852   3.744  0.00  0.00    -0.450 OA
ATOM     17 CL   UNL     1      -3.956   4.289   8.931  0.00  0.00    -0.084 Cl
ENDBRANCH   3   6
ENDBRANCH   1   2
BRANCH   1  18
ATOM     18  C   UNL     1      -0.009  -0.026   0.007  0.00  0.00    -0.020 C 
BRANCH  18  22
ATOM     19  C   UNL     1      -4.093  -1.272  -0.101  0.00  0.00    -0.048 A 
ATOM     20  C   UNL     1      -3.390  -1.312   1.088  0.00  0.00    +0.004 A 
ATOM     21  C   UNL     1      -2.068  -0.909   1.123  0.00  0.00    +0.002 A 
ATOM     22  C   UNL     1      -1.450  -0.466  -0.032  0.00  0.00    -0.059 A 
ATOM     23  C   UNL     1      -2.155  -0.421  -1.220  0.00  0.00    +0.002 A 
ATOM     24  C   UNL     1      -3.475  -0.829  -1.256  0.00  0.00    +0.004 A 
BRANCH  19  26
ATOM     25  C   UNL     1      -6.441  -0.510   0.141  0.00  0.00    +0.009 C 
ATOM     26  C   UNL     1      -5.535  -1.710  -0.139  0.00  0.00    +0.032 C 
ENDBRANCH  19  26
ENDBRANCH  18  22
BRANCH  18  27
ATOM     27  N   UNL     1       0.680  -0.502  -1.200  0.00  0.00    +0.385 N 
ATOM     28  C   UNL     1       2.100  -0.065  -1.210  0.00  0.00    -0.078 C 
ATOM     29  C   UNL     1       2.767  -1.049  -2.204  0.00  0.00    -0.020 C 
ATOM     30  C   UNL     1       2.043  -2.382  -1.908  0.00  0.00    -0.020 C 
ATOM     31  C   UNL     1       0.713  -1.980  -1.245  0.00  0.00    -0.078 C 
ATOM     32  H   UNL     1       0.119  -0.085  -2.050  0.00  0.00    -0.081 HD
ENDBRANCH  18  27
ENDBRANCH   1  18
TORSDOF 6
