REMARK  Name = ZINC20928663
REMARK  8 active torsions:
REMARK  status: ('A' for Active; 'I' for Inactive)
REMARK    1  A    between atoms: C_1  and  C_2
REMARK    2  A    between atoms: C_6  and  N_9
REMARK    3  A    between atoms: C_7  and  C_8
REMARK    4  A    between atoms: N_13  and  S_27
REMARK    5  A    between atoms: C_15  and  C_16
REMARK    6  A    between atoms: C_15  and  C_17
REMARK    7  A    between atoms: N_19  and  C_20
REMARK    8  A    between atoms: S_27  and  C_30
REMARK                            x       y       z     vdW  Elec       q    Type
REMARK                         _______ _______ _______ _____ _____    ______ ____
ROOT
ATOM      1  N   UNL     1      -1.546   2.513   1.475  0.00  0.00    -0.254 N 
ATOM      2  C   UNL     1      -0.372   1.876   1.458  0.00  0.00    +0.236 C 
ATOM      3  O   UNL     1       0.068   1.439   2.500  0.00  0.00    -0.274 OA
ATOM      4  C   UNL     1       0.429   1.673   0.201  0.00  0.00    +0.205 C 
ATOM      5  N   UNL     1      -0.412   2.001  -0.961  0.00  0.00    -0.165 NA
ATOM      6  C   UNL     1      -1.255   3.204  -0.866  0.00  0.00    +0.145 C 
ATOM      7  C   UNL     1      -2.235   3.011   0.293  0.00  0.00    +0.129 C 
ATOM      8  C   UNL     1      -2.895   4.351   0.623  0.00  0.00    +0.043 C 
ENDROOT
BRANCH   1  14
ATOM      9  C   UNL     1      -3.684   0.662   5.497  0.00  0.00    +0.044 C 
ATOM     10  C   UNL     1      -3.200   1.838   4.689  0.00  0.00    -0.046 A 
ATOM     11  C   UNL     1      -3.359   3.123   5.176  0.00  0.00    +0.004 A 
ATOM     12  C   UNL     1      -2.917   4.205   4.438  0.00  0.00    +0.002 A 
ATOM     13  C   UNL     1      -2.315   4.006   3.210  0.00  0.00    +0.024 A 
ATOM     14  C   UNL     1      -2.155   2.718   2.718  0.00  0.00    +0.041 A 
ATOM     15  C   UNL     1      -2.605   1.633   3.459  0.00  0.00    -0.026 A 
ATOM     16  C   UNL     1      -2.439   0.234   2.926  0.00  0.00    +0.046 C 
ENDBRANCH   1  14
BRANCH   7  17
ATOM     17  C   UNL     1      -3.296   2.022  -0.116  0.00  0.00    +0.238 C 
ATOM     18  O   UNL     1      -3.566   1.872  -1.288  0.00  0.00    -0.273 OA
ATOM     19  N   UNL     1      -3.946   1.305   0.823  0.00  0.00    -0.311 N 
ATOM     20  H   UNL     1      -3.755   1.494   1.889  0.00  0.00    +0.149 HD
BRANCH  19  21
ATOM     21  C   UNL     1      -4.905   0.273   0.421  0.00  0.00    +0.073 C 
ATOM     22  C   UNL     1      -6.258   0.944   0.108  0.00  0.00    +0.022 C 
ATOM     23  C   UNL     1      -7.061   0.017  -0.764  0.00  0.00    +0.002 C 
ATOM     24  C   UNL     1      -8.017  -0.877   0.048  0.00  0.00    +0.000 C 
ATOM     25  C   UNL     1      -7.373  -1.427   1.335  0.00  0.00    +0.000 C 
ATOM     26  C   UNL     1      -5.953  -1.877   1.120  0.00  0.00    +0.002 C 
ATOM     27  C   UNL     1      -5.009  -0.714   1.486  0.00  0.00    +0.022 C 
ENDBRANCH  19  21
ENDBRANCH   7  17
BRANCH   5  28
ATOM     28  S   UNL     1      -0.410   1.055  -2.320  0.00  0.00    +0.061 S 
ATOM     29  O   UNL     1      -0.836   1.884  -3.392  0.00  0.00    -0.153 OA
ATOM     30  O   UNL     1       0.834   0.368  -2.335  0.00  0.00    -0.153 OA
BRANCH  28  31
ATOM     31  C   UNL     1      -1.659  -0.169  -2.104  0.00  0.00    +0.105 A 
ATOM     32  C   UNL     1      -1.345  -1.381  -1.516  0.00  0.00    +0.028 A 
ATOM     33  C   UNL     1      -2.326  -2.339  -1.343  0.00  0.00    +0.002 A 
ATOM     34  C   UNL     1      -3.618  -2.090  -1.766  0.00  0.00    +0.000 A 
ATOM     35  C   UNL     1      -3.931  -0.881  -2.358  0.00  0.00    +0.002 A 
ATOM     36  C   UNL     1      -2.951   0.079  -2.527  0.00  0.00    +0.028 A 
ENDBRANCH  28  31
ENDBRANCH   5  28
TORSDOF 5
