REMARK  Name = ZINC39558086
REMARK  9 active torsions:
REMARK  status: ('A' for Active; 'I' for Inactive)
REMARK    1  A    between atoms: C_1  and  C_2
REMARK    2  A    between atoms: C_7  and  C_8
REMARK    3  A    between atoms: C_8  and  C_9
REMARK    4  A    between atoms: C_9  and  N_10
REMARK    5  A    between atoms: C_13  and  C_16
REMARK    6  A    between atoms: C_16  and  N_17
REMARK    7  A    between atoms: N_17  and  C_18
REMARK    8  A    between atoms: C_23  and  C_25
REMARK    9  A    between atoms: C_28  and  C_34
REMARK                            x       y       z     vdW  Elec       q    Type
REMARK                         _______ _______ _______ _____ _____    ______ ____
ROOT
ATOM      1  N   UNL     1      -3.567   2.379   7.514  0.00  0.00    -0.297 N 
ATOM      2  C   UNL     1      -4.239   3.423   8.039  0.00  0.00    +0.232 C 
ATOM      3  O   UNL     1      -3.660   4.466   8.261  0.00  0.00    -0.274 OA
ENDROOT
BRANCH   2   4
ATOM      4  C   UNL     1      -5.708   3.296   8.348  0.00  0.00    +0.184 C 
ATOM      5  C   UNL     1      -6.477   4.213   7.446  0.00  0.00    -0.000 C 
ATOM      6  C   UNL     1      -7.482   4.954   7.883  0.00  0.00    -0.033 C 
ATOM      7  C   UNL     1      -7.870   4.895   9.307  0.00  0.00    +0.029 C 
ATOM      8  N   UNL     1      -6.966   4.348  10.226  0.00  0.00    -0.285 N 
ATOM      9  C   UNL     1      -5.930   3.614   9.795  0.00  0.00    +0.233 C 
ATOM     10  O   UNL     1      -5.140   3.190  10.612  0.00  0.00    -0.274 OA
ATOM     11  C   UNL     1      -9.058   5.354   9.709  0.00  0.00    +0.034 C 
ATOM     12  C   UNL     1      -8.229   5.854   6.932  0.00  0.00    +0.045 C 
ATOM     13  H   UNL     1      -7.090   4.500  11.176  0.00  0.00    +0.155 HD
ENDBRANCH   2   4
BRANCH   1  14
ATOM     14  C   UNL     1      -4.265   1.118   7.251  0.00  0.00    +0.076 C 
ATOM     15  C   UNL     1      -5.580   1.389   6.491  0.00  0.00    +0.022 C 
ATOM     16  C   UNL     1      -6.577   0.360   7.078  0.00  0.00    +0.002 C 
ATOM     17  C   UNL     1      -6.194   0.331   8.579  0.00  0.00    +0.002 C 
ATOM     18  C   UNL     1      -4.655   0.444   8.578  0.00  0.00    +0.022 C 
ENDBRANCH   1  14
BRANCH   1  19
ATOM     19  C   UNL     1      -2.141   2.505   7.207  0.00  0.00    +0.111 C 
BRANCH  19  23
ATOM     20  N   UNL     1      -0.840   4.966   3.962  0.00  0.00    +0.380 N 
ATOM     21  C   UNL     1      -0.313   3.596   4.000  0.00  0.00    -0.078 C 
ATOM     22  C   UNL     1      -0.483   3.020   5.407  0.00  0.00    -0.014 C 
ATOM     23  C   UNL     1      -1.970   3.006   5.772  0.00  0.00    +0.003 C 
ATOM     24  C   UNL     1      -2.527   4.428   5.656  0.00  0.00    -0.014 C 
ATOM     25  C   UNL     1      -2.281   4.953   4.240  0.00  0.00    -0.078 C 
ATOM     26  H   UNL     1      -0.369   5.525   4.658  0.00  0.00    -0.082 HD
BRANCH  20  27
ATOM     27  C   UNL     1      -0.605   5.543   2.632  0.00  0.00    -0.074 C 
BRANCH  27  28
ATOM     28  C   UNL     1       0.901   5.672   2.391  0.00  0.00    +0.017 C 
BRANCH  28  35
ATOM     29  C   UNL     1       0.877   8.539   2.035  0.00  0.00    +0.044 C 
ATOM     30  C   UNL     1       1.131   7.636   0.856  0.00  0.00    -0.047 A 
ATOM     31  C   UNL     1       1.358   8.179  -0.395  0.00  0.00    +0.003 A 
ATOM     32  C   UNL     1       1.591   7.350  -1.476  0.00  0.00    +0.000 A 
ATOM     33  C   UNL     1       1.597   5.978  -1.307  0.00  0.00    +0.000 A 
ATOM     34  C   UNL     1       1.371   5.435  -0.056  0.00  0.00    +0.004 A 
ATOM     35  C   UNL     1       1.142   6.264   1.026  0.00  0.00    -0.046 A 
ENDBRANCH  28  35
ENDBRANCH  27  28
ENDBRANCH  20  27
ENDBRANCH  19  23
ENDBRANCH   1  19
TORSDOF 7
