REMARK  Name = ZINC37380584
REMARK  4 active torsions:
REMARK  status: ('A' for Active; 'I' for Inactive)
REMARK    1  A    between atoms: C_2  and  C_8
REMARK    2  A    between atoms: C_8  and  C_10
REMARK    3  A    between atoms: C_8  and  O_21
REMARK    4  A    between atoms: C_16  and  C_18
REMARK                            x       y       z     vdW  Elec       q    Type
REMARK                         _______ _______ _______ _____ _____    ______ ____
ROOT
ATOM      1  C   UNL     1       0.548   4.120   0.478  0.00  0.00    +0.150 C 
ENDROOT
BRANCH   1   3
ATOM      2  C   UNL     1      -1.174   2.331   0.840  0.00  0.00    +0.030 A 
ATOM      3  C   UNL     1       0.153   2.719   0.868  0.00  0.00    +0.003 A 
ATOM      4  C   UNL     1       1.093   1.820   1.251  0.00  0.00    +0.062 A 
ATOM      5  S   UNL     1       0.105   0.373   1.589  0.00  0.00    -0.074 S 
ATOM      6  C   UNL     1      -1.495   1.062   1.197  0.00  0.00    +0.056 A 
ATOM      7 BR   UNL     1      -3.195   0.238   1.263  0.00  0.00    -0.043 Br
ATOM      8 BR   UNL     1       2.966   2.042   1.391  0.00  0.00    -0.042 Br
ENDBRANCH   1   3
BRANCH   1   9
ATOM      9  C   UNL     1       0.955   4.144  -0.997  0.00  0.00    +0.036 C 
ATOM     10  C   UNL     1       2.227   3.315  -1.188  0.00  0.00    +0.007 C 
ATOM     11  C   UNL     1       2.634   3.338  -2.663  0.00  0.00    +0.000 C 
ATOM     12  C   UNL     1       2.895   4.782  -3.097  0.00  0.00    +0.001 C 
ATOM     13  C   UNL     1       1.624   5.611  -2.905  0.00  0.00    +0.015 C 
ATOM     14  C   UNL     1       1.217   5.587  -1.431  0.00  0.00    +0.108 C 
BRANCH  14  15
ATOM     15  C   UNL     1       2.327   6.170  -0.594  0.00  0.00    +0.359 C 
ATOM     16  O   UNL     1       2.720   7.304  -0.807  0.00  0.00    -0.246 OA
ATOM     17  O   UNL     1       2.833   5.506   0.295  0.00  0.00    -0.246 OA
ENDBRANCH  14  15
ENDBRANCH   1   9
BRANCH   1  18
ATOM     18  O   UNL     1      -0.558   5.001   0.681  0.00  0.00    -0.387 OA
ATOM     19  H   UNL     1      -1.343   4.772   0.165  0.00  0.00    +0.210 HD
ENDBRANCH   1  18
TORSDOF 4
