REMARK  Name = ZINC39710454
REMARK  10 active torsions:
REMARK  status: ('A' for Active; 'I' for Inactive)
REMARK    1  A    between atoms: C_1  and  C_2
REMARK    2  A    between atoms: C_2  and  C_3
REMARK    3  A    between atoms: C_10  and  C_15
REMARK    4  A    between atoms: C_15  and  C_17
REMARK    5  A    between atoms: C_15  and  N_26
REMARK    6  A    between atoms: N_21  and  C_22
REMARK    7  A    between atoms: C_22  and  C_23
REMARK    8  A    between atoms: C_23  and  O_24
REMARK    9  A    between atoms: O_24  and  C_25
REMARK   10  A    between atoms: N_29  and  C_32
REMARK                            x       y       z     vdW  Elec       q    Type
REMARK                         _______ _______ _______ _____ _____    ______ ____
ROOT
ATOM      1  C   UNL     1       0.344  -3.338   6.309  0.00  0.00    +0.142 C 
ENDROOT
BRANCH   1   9
ATOM      2  C   UNL     1       0.731  -0.503   1.223  0.00  0.00    -0.047 A 
ATOM      3  C   UNL     1       2.110  -0.706   1.160  0.00  0.00    +0.005 A 
ATOM      4  C   UNL     1       2.834  -1.154   2.219  0.00  0.00    +0.024 A 
ATOM      5  C   UNL     1       2.206  -1.435   3.446  0.00  0.00    +0.040 A 
ATOM      6  N   UNL     1       2.927  -1.873   4.478  0.00  0.00    -0.284 N 
ATOM      7  C   UNL     1       2.401  -2.156   5.658  0.00  0.00    +0.226 C 
ATOM      8  O   UNL     1       3.110  -2.553   6.563  0.00  0.00    -0.275 OA
ATOM      9  C   UNL     1       0.914  -1.985   5.877  0.00  0.00    +0.123 C 
ATOM     10  C   UNL     1       0.090  -1.487   4.706  0.00  0.00    -0.003 C 
ATOM     11  C   UNL     1       0.750  -1.230   3.541  0.00  0.00    -0.007 A 
ATOM     12  C   UNL     1       0.033  -0.741   2.363  0.00  0.00    +0.013 A 
ATOM     13  H   UNL     1       3.882  -1.990   4.358  0.00  0.00    +0.155 HD
BRANCH   2  15
ATOM     14  C   UNL     1      -0.019   1.526   0.010  0.00  0.00    +0.009 C 
ATOM     15  C   UNL     1       0.002  -0.004   0.002  0.00  0.00    +0.032 C 
ENDBRANCH   2  15
ENDBRANCH   1   9
BRANCH   1  16
ATOM     16  N   UNL     1       0.996  -3.769   7.553  0.00  0.00    -0.289 NA
ATOM     17  C   UNL     1       0.658  -2.868   8.663  0.00  0.00    +0.104 C 
ATOM     18  C   UNL     1       1.494  -3.241   9.892  0.00  0.00    +0.120 C 
ATOM     19  N   UNL     1       1.301  -4.673  10.171  0.00  0.00    -0.325 N 
ATOM     20  C   UNL     1       1.488  -5.628   9.069  0.00  0.00    +0.120 C 
ATOM     21  C   UNL     1       0.652  -5.161   7.872  0.00  0.00    +0.104 C 
BRANCH  19  22
ATOM     22  C   UNL     1       0.950  -5.113  11.451  0.00  0.00    +0.065 A 
ATOM     23  C   UNL     1      -0.388  -5.237  11.801  0.00  0.00    +0.026 A 
ATOM     24  C   UNL     1      -0.733  -5.673  13.066  0.00  0.00    +0.002 A 
ATOM     25  C   UNL     1       0.253  -5.986  13.984  0.00  0.00    +0.003 A 
ATOM     26  C   UNL     1       1.587  -5.864  13.640  0.00  0.00    +0.040 A 
ATOM     27  C   UNL     1       1.939  -5.434  12.374  0.00  0.00    +0.144 A 
ATOM     28  F   UNL     1       3.242  -5.321  12.036  0.00  0.00    -0.204 F 
ENDBRANCH  19  22
ENDBRANCH   1  16
BRANCH   1  29
ATOM     29  C   UNL     1      -1.139  -3.208   6.538  0.00  0.00    +0.170 A 
ATOM     30  N   UNL     1      -1.726  -2.633   7.559  0.00  0.00    -0.112 NA
ATOM     31  N   UNL     1      -3.000  -2.727   7.390  0.00  0.00    -0.023 NA
ATOM     32  N   UNL     1      -3.241  -3.346   6.287  0.00  0.00    -0.044 NA
ATOM     33  N   UNL     1      -2.119  -3.654   5.730  0.00  0.00    -0.225 N 
BRANCH  33  34
ATOM     34  C   UNL     1      -1.945  -4.361   4.458  0.00  0.00    +0.175 C 
BRANCH  34  35
ATOM     35  C   UNL     1      -1.887  -5.868   4.716  0.00  0.00    +0.183 C 
BRANCH  35  36
ATOM     36  O   UNL     1      -1.716  -6.557   3.476  0.00  0.00    -0.381 OA
ATOM     37  C   UNL     1      -1.650  -7.978   3.605  0.00  0.00    +0.194 C 
ENDBRANCH  35  36
ENDBRANCH  34  35
ENDBRANCH  33  34
ENDBRANCH   1  29
TORSDOF 8
