REMARK  Name = ZINC34728117
REMARK  7 active torsions:
REMARK  status: ('A' for Active; 'I' for Inactive)
REMARK    1  A    between atoms: C_1  and  C_2
REMARK    2  A    between atoms: C_5  and  C_9
REMARK    3  A    between atoms: C_6  and  C_8
REMARK    4  A    between atoms: C_9  and  N_10
REMARK    5  A    between atoms: N_22  and  C_25
REMARK    6  A    between atoms: C_25  and  C_26
REMARK    7  A    between atoms: N_28  and  C_29
REMARK                            x       y       z     vdW  Elec       q    Type
REMARK                         _______ _______ _______ _____ _____    ______ ____
ROOT
ATOM      1  N   UNL     1      -1.181  -4.734   0.373  0.00  0.00    -0.283 N 
ATOM      2  C   UNL     1      -1.534  -4.871   1.691  0.00  0.00    +0.097 A 
ATOM      3  C   UNL     1      -2.784  -5.372   2.053  0.00  0.00    +0.074 A 
ATOM      4  C   UNL     1      -3.033  -5.466   3.491  0.00  0.00    -0.023 A 
ATOM      5  C   UNL     1      -2.015  -5.053   4.270  0.00  0.00    -0.004 A 
ATOM      6  S   UNL     1      -0.755  -4.550   3.134  0.00  0.00    -0.075 S 
ATOM      7  C   UNL     1      -1.978  -5.030   5.768  0.00  0.00    +0.043 C 
ATOM      8  C   UNL     1      -3.413  -5.197   6.287  0.00  0.00    +0.005 C 
ATOM      9  C   UNL     1      -4.074  -6.367   5.553  0.00  0.00    +0.005 C 
ATOM     10  C   UNL     1      -4.330  -5.988   4.093  0.00  0.00    +0.037 C 
ATOM     11  C   UNL     1      -3.681  -5.738   0.935  0.00  0.00    +0.266 A 
ATOM     12  O   UNL     1      -4.792  -6.183   1.159  0.00  0.00    -0.267 OA
ATOM     13  N   UNL     1      -3.256  -5.573  -0.330  0.00  0.00    -0.251 N 
ATOM     14  C   UNL     1      -2.038  -5.078  -0.606  0.00  0.00    +0.334 A 
ATOM     15  O   UNL     1      -1.701  -4.942  -1.767  0.00  0.00    -0.246 OA
ENDROOT
BRANCH   1  16
ATOM     16  C   UNL     1       0.140  -4.204   0.028  0.00  0.00    +0.162 C 
BRANCH  16  21
ATOM     17  C   UNL     1      -0.041   1.572   0.033  0.00  0.00    +0.044 C 
ATOM     18  C   UNL     1       0.006   0.066   0.032  0.00  0.00    -0.050 A 
ATOM     19  C   UNL     1      -1.153  -0.662   0.227  0.00  0.00    +0.004 A 
ATOM     20  C   UNL     1      -1.109  -2.044   0.226  0.00  0.00    +0.006 A 
ATOM     21  C   UNL     1       0.093  -2.698   0.028  0.00  0.00    -0.025 A 
ATOM     22  C   UNL     1       1.251  -1.970  -0.168  0.00  0.00    -0.045 A 
ATOM     23  C   UNL     1       1.207  -0.588  -0.171  0.00  0.00    +0.007 A 
ATOM     24  C   UNL     1       2.562  -2.682  -0.382  0.00  0.00    +0.044 C 
ENDBRANCH  16  21
ENDBRANCH   1  16
BRANCH  13  25
ATOM     25  C   UNL     1      -4.146  -5.937  -1.435  0.00  0.00    +0.226 C 
BRANCH  25  26
ATOM     26  C   UNL     1      -4.982  -4.744  -1.820  0.00  0.00    +0.237 C 
ATOM     27  O   UNL     1      -4.848  -3.693  -1.230  0.00  0.00    -0.274 OA
ATOM     28  N   UNL     1      -5.879  -4.845  -2.821  0.00  0.00    -0.283 N 
ATOM     29  H   UNL     1      -5.941  -5.665  -3.336  0.00  0.00    +0.155 HD
BRANCH  28  30
ATOM     30  C   UNL     1      -6.719  -3.770  -3.116  0.00  0.00    +0.041 A 
ATOM     31  C   UNL     1      -6.266  -2.475  -2.982  0.00  0.00    +0.024 A 
ATOM     32  C   UNL     1      -7.095  -1.397  -3.273  0.00  0.00    +0.002 A 
ATOM     33  C   UNL     1      -8.374  -1.588  -3.699  0.00  0.00    +0.008 A 
ATOM     34  C   UNL     1      -8.875  -2.892  -3.850  0.00  0.00    -0.016 A 
ATOM     35  C   UNL     1      -8.038  -3.999  -3.561  0.00  0.00    +0.003 A 
ATOM     36  C   UNL     1      -8.539  -5.301  -3.717  0.00  0.00    +0.010 A 
ATOM     37  C   UNL     1      -9.818  -5.484  -4.148  0.00  0.00    +0.001 A 
ATOM     38  C   UNL     1     -10.639  -4.397  -4.438  0.00  0.00    +0.001 A 
ATOM     39  C   UNL     1     -10.191  -3.120  -4.288  0.00  0.00    +0.008 A 
ENDBRANCH  28  30
ENDBRANCH  25  26
ENDBRANCH  13  25
TORSDOF 5
