REMARK  Name = ZINC03913654
REMARK  4 active torsions:
REMARK  status: ('A' for Active; 'I' for Inactive)
REMARK    1  A    between atoms: C_1  and  C_2
REMARK    2  A    between atoms: C_5  and  N_8
REMARK    3  A    between atoms: N_8  and  C_9
REMARK    4  A    between atoms: C_14  and  C_17
REMARK                            x       y       z     vdW  Elec       q    Type
REMARK                         _______ _______ _______ _____ _____    ______ ____
ROOT
ATOM      1  C   UNL     1       0.175  -4.857   1.153  0.00  0.00    +0.171 C 
ATOM      2  N   UNL     1       0.164  -4.183   2.278  0.00  0.00    -0.157 NA
ATOM      3  C   UNL     1       0.339  -4.673   3.481  0.00  0.00    +0.240 C 
ATOM      4  O   UNL     1       0.207  -3.917   4.424  0.00  0.00    -0.274 OA
ATOM      5  C   UNL     1       0.689  -6.099   3.774  0.00  0.00    +0.124 C 
ATOM      6  C   UNL     1       0.009  -7.047   2.792  0.00  0.00    +0.175 C 
ATOM      7  S   UNL     1       0.319  -6.503   1.093  0.00  0.00    -0.076 S 
ENDROOT
BRANCH   6   8
ATOM      8  C   UNL     1       0.554  -8.439   2.980  0.00  0.00    +0.370 C 
ATOM      9  O   UNL     1      -0.206  -9.392   3.017  0.00  0.00    -0.245 OA
ATOM     10  O   UNL     1       1.756  -8.613   3.094  0.00  0.00    -0.245 OA
ENDBRANCH   6   8
BRANCH   1  11
ATOM     11  N   UNL     1       0.057  -4.169  -0.021  0.00  0.00    -0.192 NA
BRANCH  11  16
ATOM     12  C   UNL     1      -2.096   1.079  -0.030  0.00  0.00    +0.044 C 
ATOM     13  C   UNL     1      -1.524  -0.315  -0.028  0.00  0.00    -0.050 A 
ATOM     14  C   UNL     1      -0.629  -0.696  -1.011  0.00  0.00    +0.005 A 
ATOM     15  C   UNL     1      -0.103  -1.973  -1.011  0.00  0.00    +0.025 A 
ATOM     16  C   UNL     1      -0.473  -2.875  -0.023  0.00  0.00    +0.056 A 
ATOM     17  C   UNL     1      -1.372  -2.490   0.963  0.00  0.00    +0.025 A 
ATOM     18  C   UNL     1      -1.891  -1.210   0.961  0.00  0.00    +0.005 A 
ENDBRANCH  11  16
ENDBRANCH   1  11
TORSDOF 3
