REMARK  Name = ZINC40226375
REMARK  2 active torsions:
REMARK  status: ('A' for Active; 'I' for Inactive)
REMARK    1  A    between atoms: C_6  and  N_7
REMARK    2  A    between atoms: N_7  and  C_8
REMARK                            x       y       z     vdW  Elec       q    Type
REMARK                         _______ _______ _______ _____ _____    ______ ____
ROOT
ATOM      1  C   UNL     1      -0.017   1.386   0.010  0.00  0.00    +0.025 A 
ATOM      2  C   UNL     1       1.167   2.097   0.002  0.00  0.00    +0.029 A 
ATOM      3  C   UNL     1       2.378   1.423  -0.013  0.00  0.00    +0.067 A 
ATOM      4  C   UNL     1       2.401   0.027  -0.021  0.00  0.00    +0.069 A 
ATOM      5  C   UNL     1       1.211  -0.684  -0.013  0.00  0.00    +0.050 A 
ATOM      6  C   UNL     1       0.002  -0.004   0.002  0.00  0.00    +0.030 A 
ATOM      7  N   UNL     1       3.741  -0.354  -0.035  0.00  0.00    -0.306 N 
ATOM      8  H   UNL     1       4.071  -1.266  -0.044  0.00  0.00    +0.170 HD
ATOM      9  C   UNL     1       4.499   0.758  -0.037  0.00  0.00    +0.325 A 
ATOM     10  O   UNL     1       5.716   0.776  -0.048  0.00  0.00    -0.247 OA
ATOM     11  N   UNL     1       3.708   1.847  -0.023  0.00  0.00    -0.306 N 
ATOM     12  H   UNL     1       4.010   2.769  -0.022  0.00  0.00    +0.170 HD
ENDROOT
BRANCH   6  13
ATOM     13  N   UNL     1      -1.201  -0.719   0.010  0.00  0.00    -0.337 N 
ATOM     14  H   UNL     1      -1.189  -1.689   0.005  0.00  0.00    +0.147 HD
BRANCH  13  15
ATOM     15  C   UNL     1      -2.478  -0.002   0.027  0.00  0.00    +0.101 C 
ATOM     16  C   UNL     1      -3.600  -0.894  -0.547  0.00  0.00    +0.031 C 
ATOM     17  C   UNL     1      -4.820  -0.479   0.301  0.00  0.00    +0.037 C 
ATOM     18  C   UNL     1      -4.243   0.019   1.609  0.00  0.00    -0.041 A 
ATOM     19  C   UNL     1      -2.895   0.295   1.451  0.00  0.00    -0.024 A 
ATOM     20  C   UNL     1      -2.156   0.768   2.522  0.00  0.00    +0.007 A 
ATOM     21  C   UNL     1      -2.759   0.967   3.749  0.00  0.00    +0.015 A 
ATOM     22  C   UNL     1      -4.105   0.693   3.909  0.00  0.00    +0.018 A 
ATOM     23  C   UNL     1      -4.847   0.217   2.839  0.00  0.00    +0.019 A 
ATOM     24 BR   UNL     1      -4.933   0.964   5.587  0.00  0.00    -0.050 Br
ENDBRANCH  13  15
ENDBRANCH   6  13
TORSDOF 2
