REMARK  Name = ZINC37607537
REMARK  12 active torsions:
REMARK  status: ('A' for Active; 'I' for Inactive)
REMARK    1  A    between atoms: C_1  and  C_2
REMARK    2  A    between atoms: C_6  and  C_8
REMARK    3  A    between atoms: C_12  and  O_24
REMARK    4  A    between atoms: C_19  and  C_21
REMARK    5  A    between atoms: O_24  and  C_25
REMARK    6  A    between atoms: C_25  and  C_26
REMARK    7  A    between atoms: C_28  and  C_31
REMARK    8  A    between atoms: N_33  and  C_34
REMARK    9  A    between atoms: C_34  and  C_35
REMARK   10  A    between atoms: C_35  and  C_36
REMARK   11  A    between atoms: C_36  and  C_37
REMARK   12  A    between atoms: C_36  and  C_38
REMARK                            x       y       z     vdW  Elec       q    Type
REMARK                         _______ _______ _______ _____ _____    ______ ____
ROOT
ATOM      1  C   UNL     1       0.054  -2.845   2.489  0.00  0.00    +0.137 C 
ATOM      2  C   UNL     1      -1.357  -3.221   2.867  0.00  0.00    -0.016 A 
ATOM      3  C   UNL     1      -2.204  -2.208   3.292  0.00  0.00    +0.051 A 
ATOM      4  C   UNL     1      -3.514  -2.489   3.643  0.00  0.00    +0.122 A 
ATOM      5  C   UNL     1      -3.978  -3.795   3.568  0.00  0.00    +0.046 A 
ATOM      6  C   UNL     1      -3.132  -4.799   3.150  0.00  0.00    +0.007 A 
ATOM      7  C   UNL     1      -1.815  -4.518   2.803  0.00  0.00    -0.040 A 
ATOM      8  C   UNL     1      -0.944  -5.673   2.382  0.00  0.00    +0.054 C 
ATOM      9  C   UNL     1       0.268  -5.180   1.593  0.00  0.00    +0.113 C 
ATOM     10  N   UNL     1       0.864  -4.058   2.334  0.00  0.00    -0.290 N 
ATOM     11  C   UNL     1       2.106  -4.141   2.851  0.00  0.00    +0.219 C 
ATOM     12  O   UNL     1       2.575  -3.201   3.457  0.00  0.00    -0.275 OA
ENDROOT
BRANCH   1  18
ATOM     13  C   UNL     1       1.245   1.227  -0.167  0.00  0.00    +0.044 C 
ATOM     14  C   UNL     1       0.607  -0.136  -0.083  0.00  0.00    -0.050 A 
ATOM     15  C   UNL     1       0.006  -0.688  -1.199  0.00  0.00    +0.003 A 
ATOM     16  C   UNL     1      -0.579  -1.938  -1.121  0.00  0.00    +0.001 A 
ATOM     17  C   UNL     1      -0.564  -2.636   0.072  0.00  0.00    +0.006 A 
ATOM     18  C   UNL     1       0.037  -2.084   1.188  0.00  0.00    -0.022 A 
ATOM     19  C   UNL     1       0.627  -0.836   1.109  0.00  0.00    +0.009 A 
ENDBRANCH   1  18
BRANCH  11  20
ATOM     20  C   UNL     1       2.912  -5.402   2.675  0.00  0.00    +0.075 C 
ATOM     21  C   UNL     1       3.185  -6.246   3.921  0.00  0.00    +0.013 C 
ATOM     22  C   UNL     1       4.315  -5.435   3.284  0.00  0.00    +0.013 C 
ENDBRANCH  11  20
BRANCH   4  23
ATOM     23  O   UNL     1      -4.338  -1.493   4.060  0.00  0.00    -0.483 OA
BRANCH  23  24
ATOM     24  C   UNL     1      -5.676  -1.860   4.406  0.00  0.00    +0.324 C 
BRANCH  24  25
ATOM     25  C   UNL     1      -6.436  -0.634   4.841  0.00  0.00    +0.234 A 
ATOM     26  N   UNL     1      -7.125   0.141   4.058  0.00  0.00    -0.206 NA
ATOM     27  C   UNL     1      -7.668   1.139   4.808  0.00  0.00    +0.164 A 
ATOM     28  C   UNL     1      -7.274   0.933   6.094  0.00  0.00    +0.230 A 
ATOM     29  O   UNL     1      -6.514  -0.174   6.098  0.00  0.00    -0.444 OA
BRANCH  27  30
ATOM     30  C   UNL     1      -8.521   2.237   4.319  0.00  0.00    +0.266 C 
ATOM     31  O   UNL     1      -8.944   3.071   5.096  0.00  0.00    -0.268 OA
ATOM     32  N   UNL     1      -8.832   2.317   3.010  0.00  0.00    -0.310 N 
ATOM     33  H   UNL     1      -8.494   1.652   2.390  0.00  0.00    +0.149 HD
BRANCH  32  34
ATOM     34  C   UNL     1      -9.680   3.408   2.524  0.00  0.00    +0.105 C 
BRANCH  34  35
ATOM     35  C   UNL     1      -9.878   3.266   1.013  0.00  0.00    +0.022 C 
BRANCH  35  36
ATOM     36  C   UNL     1     -10.764   4.405   0.505  0.00  0.00    -0.016 C 
ATOM     37  C   UNL     1     -10.038   5.739   0.695  0.00  0.00    +0.007 C 
ATOM     38  C   UNL     1     -11.064   4.195  -0.980  0.00  0.00    +0.007 C 
ENDBRANCH  35  36
ENDBRANCH  34  35
ENDBRANCH  32  34
ENDBRANCH  27  30
ENDBRANCH  24  25
ENDBRANCH  23  24
ENDBRANCH   4  23
TORSDOF 9
