REMARK  Name = ZINC09281076
REMARK  9 active torsions:
REMARK  status: ('A' for Active; 'I' for Inactive)
REMARK    1  A    between atoms: C_1  and  C_2
REMARK    2  A    between atoms: C_2  and  C_3
REMARK    3  A    between atoms: C_2  and  C_4
REMARK    4  A    between atoms: C_2  and  C_5
REMARK    5  A    between atoms: C_12  and  N_25
REMARK    6  A    between atoms: C_13  and  C_14
REMARK    7  A    between atoms: N_16  and  C_17
REMARK    8  A    between atoms: C_26  and  C_28
REMARK    9  A    between atoms: C_29  and  C_30
REMARK                            x       y       z     vdW  Elec       q    Type
REMARK                         _______ _______ _______ _____ _____    ______ ____
ROOT
ATOM      1  C   UNL     1      -9.869  -4.445   0.448  0.00  0.00    -0.000 C 
ATOM      2  C   UNL     1     -10.375  -3.259  -0.378  0.00  0.00    +0.009 C 
ATOM      3  C   UNL     1      -9.683  -1.973   0.079  0.00  0.00    +0.037 C 
ATOM      4  C   UNL     1      -8.176  -2.196   0.065  0.00  0.00    -0.023 A 
ATOM      5  C   UNL     1      -7.657  -3.443   0.053  0.00  0.00    -0.004 A 
ATOM      6  S   UNL     1      -5.903  -3.204   0.030  0.00  0.00    -0.077 S 
ATOM      7  C   UNL     1      -5.857  -1.472   0.047  0.00  0.00    +0.085 A 
ATOM      8  C   UNL     1      -7.199  -1.120   0.062  0.00  0.00    +0.069 A 
ATOM      9  C   UNL     1      -8.413  -4.736   0.054  0.00  0.00    +0.046 C 
ENDROOT
BRANCH   1  11
ATOM     10  C   UNL     1     -10.214  -6.862   0.975  0.00  0.00    +0.011 C 
ATOM     11  C   UNL     1     -10.733  -5.675   0.162  0.00  0.00    -0.035 C 
ATOM     12  C   UNL     1     -12.182  -5.381   0.556  0.00  0.00    +0.011 C 
ATOM     13  C   UNL     1     -10.667  -6.009  -1.329  0.00  0.00    +0.011 C 
ENDBRANCH   1  11
BRANCH   8  14
ATOM     14  C   UNL     1      -7.617   0.285   0.074  0.00  0.00    +0.247 C 
ATOM     15  O   UNL     1      -7.800   0.875  -0.975  0.00  0.00    -0.270 OA
ATOM     16  N   UNL     1      -7.798   0.924   1.247  0.00  0.00    -0.307 N 
ATOM     17  H   UNL     1      -7.651   0.454   2.083  0.00  0.00    +0.149 HD
BRANCH  16  18
ATOM     18  C   UNL     1      -8.215   2.329   1.259  0.00  0.00    +0.096 C 
ATOM     19  C   UNL     1      -6.979   3.238   1.159  0.00  0.00    +0.046 C 
ATOM     20  C   UNL     1      -7.370   4.698   1.491  0.00  0.00    +0.168 C 
ATOM     21  S   UNL     1      -8.802   4.485   2.626  0.00  0.00    -0.029 S 
ATOM     22  O   UNL     1      -9.958   5.049   2.023  0.00  0.00    -0.174 OA
ATOM     23  O   UNL     1      -8.422   4.897   3.932  0.00  0.00    -0.174 OA
ATOM     24  C   UNL     1      -8.945   2.648   2.595  0.00  0.00    +0.188 C 
ENDBRANCH  16  18
ENDBRANCH   8  14
BRANCH   7  25
ATOM     25  N   UNL     1      -4.749  -0.641   0.042  0.00  0.00    -0.276 N 
ATOM     26  C   UNL     1      -3.510  -1.170   0.028  0.00  0.00    +0.242 C 
ATOM     27  O   UNL     1      -3.364  -2.379   0.019  0.00  0.00    -0.270 OA
ATOM     28  H   UNL     1      -4.865   0.322   0.049  0.00  0.00    +0.156 HD
BRANCH  26  29
ATOM     29  C   UNL     1      -2.378  -0.321   0.022  0.00  0.00    +0.071 C 
ATOM     30  C   UNL     1      -1.130  -0.854   0.008  0.00  0.00    +0.051 C 
BRANCH  30  31
ATOM     31  C   UNL     1       0.002  -0.004   0.002  0.00  0.00    +0.128 A 
ATOM     32  C   UNL     1       1.321  -0.408  -0.013  0.00  0.00    +0.049 A 
ATOM     33  C   UNL     1       2.096   0.762  -0.014  0.00  0.00    +0.042 A 
ATOM     34  C   UNL     1       1.241   1.808  -0.000  0.00  0.00    +0.195 A 
ATOM     35  O   UNL     1      -0.016   1.345   0.009  0.00  0.00    -0.464 OA
ENDBRANCH  30  31
ENDBRANCH  26  29
ENDBRANCH   7  25
TORSDOF 6
