REMARK  Name = ZINC16390621
REMARK  13 active torsions:
REMARK  status: ('A' for Active; 'I' for Inactive)
REMARK    1  A    between atoms: C_1  and  C_2
REMARK    2  A    between atoms: C_2  and  C_3
REMARK    3  A    between atoms: C_3  and  N_65
REMARK    4  A    between atoms: C_4  and  C_5
REMARK    5  A    between atoms: C_4  and  N_65
REMARK    6  A    between atoms: N_7  and  C_8
REMARK    7  A    between atoms: C_17  and  C_18
REMARK    8  A    between atoms: C_17  and  N_65
REMARK    9  A    between atoms: N_20  and  C_21
REMARK   10  A    between atoms: C_21  and  C_23
REMARK   11  A    between atoms: C_21  and  C_33
REMARK   12  A    between atoms: C_33  and  C_34
REMARK   13  A    between atoms: C_33  and  C_35
REMARK                            x       y       z     vdW  Elec       q    Type
REMARK                         _______ _______ _______ _____ _____    ______ ____
ROOT
ATOM      1  C   UNL     1      -6.463  -0.058  -2.337  0.00  0.00    +0.019 C 
ENDROOT
BRANCH   1   2
ATOM      2  C   UNL     1      -5.400  -0.783  -1.553  0.00  0.00    +0.197 C 
ATOM      3  O   UNL     1      -5.472  -1.985  -1.401  0.00  0.00    -0.278 OA
ATOM      4  N   UNL     1      -4.369  -0.097  -1.021  0.00  0.00    -0.310 N 
ATOM      5  H   UNL     1      -4.312   0.863  -1.143  0.00  0.00    +0.149 HD
BRANCH   4   6
ATOM      6  C   UNL     1      -3.336  -0.802  -0.259  0.00  0.00    +0.106 C 
BRANCH   6   7
ATOM      7  C   UNL     1      -2.053  -0.012  -0.301  0.00  0.00    -0.023 A 
ATOM      8  C   UNL     1      -2.088   1.366  -0.200  0.00  0.00    +0.009 A 
ATOM      9  C   UNL     1      -0.915   2.095  -0.243  0.00  0.00    +0.050 A 
ATOM     10  C   UNL     1       0.302   1.444  -0.382  0.00  0.00    +0.162 A 
ATOM     11  C   UNL     1       0.338   0.059  -0.482  0.00  0.00    +0.162 A 
ATOM     12  C   UNL     1      -0.844  -0.666  -0.442  0.00  0.00    +0.055 A 
ATOM     13  O   UNL     1       1.521  -0.600  -0.618  0.00  0.00    -0.485 OA
ATOM     14  C   UNL     1       2.648   0.181  -1.030  0.00  0.00    +0.270 C 
ATOM     15  C   UNL     1       2.673   1.468  -0.194  0.00  0.00    +0.270 C 
ATOM     16  O   UNL     1       1.450   2.175  -0.424  0.00  0.00    -0.485 OA
ENDBRANCH   6   7
BRANCH   6  17
ATOM     17  C   UNL     1      -3.790  -0.959   1.194  0.00  0.00    +0.008 C 
ATOM     18  C   UNL     1      -5.092  -1.761   1.237  0.00  0.00    +0.009 C 
ATOM     19  C   UNL     1      -2.711  -1.695   1.989  0.00  0.00    +0.009 C 
ENDBRANCH   6  17
ENDBRANCH   4   6
ENDBRANCH   1   2
BRANCH   1  20
ATOM     20  N   UNL     1      -7.391  -1.056  -2.912  0.00  0.00    +0.391 N 
ATOM     21  H   UNL     1      -6.846  -1.849  -3.271  0.00  0.00    -0.080 HD
BRANCH  20  22
ATOM     22  C   UNL     1      -8.153  -0.453  -4.026  0.00  0.00    -0.078 C 
BRANCH  22  24
ATOM     23  C   UNL     1      -7.986   0.330  -6.393  0.00  0.00    +0.002 C 
ATOM     24  C   UNL     1      -7.249  -0.386  -5.259  0.00  0.00    -0.022 C 
ENDBRANCH  22  24
ENDBRANCH  20  22
BRANCH  20  25
ATOM     25  C   UNL     1      -8.319  -1.542  -1.870  0.00  0.00    +0.020 C 
BRANCH  25  26
ATOM     26  C   UNL     1      -9.100  -2.707  -2.421  0.00  0.00    +0.201 C 
ATOM     27  O   UNL     1      -8.915  -3.077  -3.561  0.00  0.00    -0.278 OA
ATOM     28  N   UNL     1     -10.005  -3.338  -1.646  0.00  0.00    -0.285 N 
ATOM     29  H   UNL     1     -10.110  -3.082  -0.717  0.00  0.00    +0.155 HD
BRANCH  28  30
ATOM     30  C   UNL     1     -10.793  -4.365  -2.184  0.00  0.00    +0.072 A 
ATOM     31  C   UNL     1     -10.267  -5.213  -3.149  0.00  0.00    +0.029 A 
ATOM     32  C   UNL     1     -11.043  -6.227  -3.675  0.00  0.00    +0.043 A 
ATOM     33  C   UNL     1     -12.350  -6.394  -3.250  0.00  0.00    +0.161 A 
ATOM     34  C   UNL     1     -12.881  -5.546  -2.290  0.00  0.00    +0.195 A 
ATOM     35  C   UNL     1     -12.105  -4.531  -1.757  0.00  0.00    +0.182 A 
ATOM     36  F   UNL     1     -12.622  -3.705  -0.821  0.00  0.00    -0.200 F 
ATOM     37  F   UNL     1     -14.157  -5.710  -1.877  0.00  0.00    -0.199 F 
ATOM     38  F   UNL     1     -13.107  -7.384  -3.770  0.00  0.00    -0.202 F 
ENDBRANCH  28  30
ENDBRANCH  25  26
ENDBRANCH  20  25
ENDBRANCH   1  20
TORSDOF 10
