REMARK  Name = ZINC28616233
REMARK  8 active torsions:
REMARK  status: ('A' for Active; 'I' for Inactive)
REMARK    1  A    between atoms: C_1  and  C_2
REMARK    2  A    between atoms: C_2  and  C_3
REMARK    3  A    between atoms: C_2  and  C_4
REMARK    4  A    between atoms: C_2  and  C_5
REMARK    5  A    between atoms: C_12  and  C_16
REMARK    6  A    between atoms: N_18  and  N_19
REMARK    7  A    between atoms: C_20  and  C_21
REMARK    8  A    between atoms: C_23  and  N_29
REMARK                            x       y       z     vdW  Elec       q    Type
REMARK                         _______ _______ _______ _____ _____    ______ ____
ROOT
ATOM      1  C   UNL     1      -3.486  -0.671   0.326  0.00  0.00    +0.276 C 
ATOM      2  O   UNL     1      -3.452  -1.869   0.513  0.00  0.00    -0.270 OA
ATOM      3  N   UNL     1      -2.358  -0.006   0.005  0.00  0.00    -0.204 N 
ATOM      4  H   UNL     1      -2.403   1.063  -0.248  0.00  0.00    +0.177 HD
ENDROOT
BRANCH   1  12
ATOM      5  C   UNL     1      -9.400  -0.581   1.449  0.00  0.00    -0.038 A 
ATOM      6  C   UNL     1      -9.460   0.693   1.983  0.00  0.00    +0.008 A 
ATOM      7  C   UNL     1      -8.313   1.458   2.082  0.00  0.00    +0.050 A 
ATOM      8  C   UNL     1      -7.098   0.949   1.647  0.00  0.00    +0.162 A 
ATOM      9  C   UNL     1      -7.038  -0.332   1.112  0.00  0.00    +0.163 A 
ATOM     10  C   UNL     1      -8.193  -1.094   1.014  0.00  0.00    +0.053 A 
ATOM     11  O   UNL     1      -5.856  -0.853   0.682  0.00  0.00    -0.472 OA
ATOM     12  C   UNL     1      -4.790   0.075   0.453  0.00  0.00    +0.297 C 
ATOM     13  C   UNL     1      -4.722   1.036   1.648  0.00  0.00    +0.283 C 
ATOM     14  O   UNL     1      -5.978   1.715   1.748  0.00  0.00    -0.484 OA
BRANCH   5  16
ATOM     15  C   UNL     1     -11.840  -0.615   1.887  0.00  0.00    +0.015 C 
ATOM     16  C   UNL     1     -10.653  -1.411   1.341  0.00  0.00    -0.013 C 
ATOM     17  C   UNL     1     -10.907  -1.762  -0.127  0.00  0.00    +0.015 C 
ATOM     18  C   UNL     1     -10.484  -2.697   2.151  0.00  0.00    +0.015 C 
ENDBRANCH   5  16
ENDBRANCH   1  12
BRANCH   3  19
ATOM     19  N   UNL     1      -1.129  -0.678  -0.008  0.00  0.00    -0.187 NA
ATOM     20  C   UNL     1      -0.029  -0.016  -0.201  0.00  0.00    +0.142 C 
BRANCH  20  21
ATOM     21  C   UNL     1       0.028   1.424   0.109  0.00  0.00    +0.044 A 
ATOM     22  C   UNL     1      -0.772   1.956   1.124  0.00  0.00    +0.046 A 
ATOM     23  C   UNL     1      -0.714   3.304   1.409  0.00  0.00    +0.128 A 
ATOM     24  C   UNL     1       0.134   4.133   0.695  0.00  0.00    +0.051 A 
ATOM     25  C   UNL     1       0.931   3.619  -0.311  0.00  0.00    +0.067 A 
ATOM     26  C   UNL     1       0.889   2.265  -0.608  0.00  0.00    +0.202 A 
ATOM     27  O   UNL     1       1.675   1.758  -1.592  0.00  0.00    -0.286 OA
ATOM     28 BR   UNL     1       2.084   4.762  -1.280  0.00  0.00    -0.046 Br
BRANCH  23  29
ATOM     29  N   UNL     1      -1.562   3.866   2.484  0.00  0.00    +0.056 N 
ATOM     30  O   UNL     1      -2.309   3.139   3.114  0.00  0.00    -0.126 OA
ATOM     31  O   UNL     1      -1.513   5.057   2.739  0.00  0.00    -0.126 OA
ENDBRANCH  23  29
ENDBRANCH  20  21
ENDBRANCH   3  19
TORSDOF 5
