REMARK  Name = ZINC26912455
REMARK  7 active torsions:
REMARK  status: ('A' for Active; 'I' for Inactive)
REMARK    1  A    between atoms: C_6  and  C_7
REMARK    2  A    between atoms: C_7  and  C_8
REMARK    3  A    between atoms: C_8  and  N_9
REMARK    4  A    between atoms: C_10  and  C_12
REMARK    5  A    between atoms: N_15  and  C_18
REMARK    6  A    between atoms: C_21  and  C_27
REMARK    7  A    between atoms: C_23  and  N_24
REMARK                            x       y       z     vdW  Elec       q    Type
REMARK                         _______ _______ _______ _____ _____    ______ ____
ROOT
ATOM      1  C   UNL     1       4.157  -1.183  -0.083  0.00  0.00    +0.078 C 
ATOM      2  C   UNL     1       3.940  -0.366   1.194  0.00  0.00    +0.031 C 
ATOM      3  C   UNL     1       2.538   0.248   1.168  0.00  0.00    +0.106 C 
ATOM      4  N   UNL     1       2.401   1.108  -0.014  0.00  0.00    -0.328 N 
ATOM      5  C   UNL     1       2.559   0.337  -1.254  0.00  0.00    +0.106 C 
ATOM      6  C   UNL     1       3.961  -0.275  -1.300  0.00  0.00    +0.031 C 
ENDROOT
BRANCH   4   7
ATOM      7  C   UNL     1       1.181   1.788   0.000  0.00  0.00    +0.060 A 
ATOM      8  C   UNL     1      -0.013   1.076   0.008  0.00  0.00    +0.026 A 
ATOM      9  C   UNL     1      -1.217   1.751   0.017  0.00  0.00    +0.014 A 
ATOM     10  C   UNL     1      -1.237   3.134   0.030  0.00  0.00    +0.057 A 
ATOM     11  C   UNL     1      -0.051   3.845   0.022  0.00  0.00    +0.047 A 
ATOM     12  C   UNL     1       1.157   3.176   0.008  0.00  0.00    +0.148 A 
BRANCH  10  13
ATOM     13  C   UNL     1      -2.553   3.867   0.046  0.00  0.00    +0.417 C 
ATOM     14  F   UNL     1      -2.973   4.100  -1.268  0.00  0.00    -0.166 F 
ATOM     15  F   UNL     1      -3.510   3.092   0.710  0.00  0.00    -0.166 F 
ATOM     16  F   UNL     1      -2.399   5.088   0.710  0.00  0.00    -0.166 F 
ENDBRANCH  10  13
BRANCH  12  17
ATOM     17  N   UNL     1       2.426   3.939   0.000  0.00  0.00    +0.058 N 
ATOM     18  O   UNL     1       2.405   5.156   0.006  0.00  0.00    -0.126 OA
ATOM     19  O   UNL     1       3.491   3.348  -0.013  0.00  0.00    -0.126 OA
ENDBRANCH  12  17
ENDBRANCH   4   7
BRANCH   1  21
ATOM     20  N   UNL     1       5.974  -2.499  -1.125  0.00  0.00    -0.315 N 
ATOM     21  C   UNL     1       5.557  -1.742  -0.090  0.00  0.00    +0.216 C 
ATOM     22  O   UNL     1       6.307  -1.511   0.834  0.00  0.00    -0.276 OA
ATOM     23  H   UNL     1       5.294  -2.708  -1.963  0.00  0.00    +0.149 HD
BRANCH  20  24
ATOM     24  C   UNL     1       7.335  -3.042  -1.132  0.00  0.00    +0.109 C 
BRANCH  24  25
ATOM     25  C   UNL     1       7.551  -3.858  -2.408  0.00  0.00    +0.054 C 
BRANCH  25  31
ATOM     26  C   UNL     1       9.980  -3.692  -2.986  0.00  0.00    +0.007 A 
ATOM     27  C   UNL     1      11.267  -4.199  -2.991  0.00  0.00    +0.050 A 
ATOM     28  C   UNL     1      11.525  -5.440  -2.434  0.00  0.00    +0.166 A 
ATOM     29  C   UNL     1      10.487  -6.173  -1.863  0.00  0.00    +0.166 A 
ATOM     30  C   UNL     1       9.201  -5.657  -1.857  0.00  0.00    +0.053 A 
ATOM     31  C   UNL     1       8.951  -4.417  -2.416  0.00  0.00    -0.042 A 
ATOM     32  O   UNL     1      10.992  -7.348  -1.388  0.00  0.00    -0.453 OA
ATOM     33  C   UNL     1      12.269  -7.508  -2.035  0.00  0.00    +0.466 C 
ATOM     34  O   UNL     1      12.681  -6.157  -2.316  0.00  0.00    -0.453 OA
ENDBRANCH  25  31
ENDBRANCH  24  25
ENDBRANCH  20  24
ENDBRANCH   1  21
TORSDOF 7
