REMARK  Name = ZINC35452642
REMARK  3 active torsions:
REMARK  status: ('A' for Active; 'I' for Inactive)
REMARK    1  A    between atoms: C_1  and  C_2
REMARK    2  A    between atoms: N_7  and  C_9
REMARK    3  A    between atoms: C_14  and  N_15
REMARK                            x       y       z     vdW  Elec       q    Type
REMARK                         _______ _______ _______ _____ _____    ______ ____
ROOT
ATOM      1  C   UNL     1       0.429  -2.793   2.202  0.00  0.00    +0.053 A 
ATOM      2  C   UNL     1       1.299  -3.132   3.228  0.00  0.00    +0.052 A 
ATOM      3  C   UNL     1       0.861  -3.942   4.264  0.00  0.00    +0.078 A 
ATOM      4  C   UNL     1      -0.449  -4.417   4.275  0.00  0.00    +0.144 A 
ATOM      5  C   UNL     1      -1.317  -4.079   3.252  0.00  0.00    +0.072 A 
ATOM      6  C   UNL     1      -0.883  -3.263   2.217  0.00  0.00    +0.049 A 
ATOM      7  O   UNL     1      -0.863  -5.213   5.299  0.00  0.00    -0.481 OA
ATOM      8  C   UNL     1       0.115  -6.085   5.872  0.00  0.00    +0.325 C 
ATOM      9  C   UNL     1       1.389  -5.319   6.125  0.00  0.00    +0.255 C 
ATOM     10  O   UNL     1       2.107  -5.622   7.054  0.00  0.00    -0.272 OA
ATOM     11  N   UNL     1       1.727  -4.294   5.312  0.00  0.00    -0.280 N 
ATOM     12  H   UNL     1       2.556  -3.809   5.450  0.00  0.00    +0.155 HD
ENDROOT
BRANCH   1  18
ATOM     13  C   UNL     1      -0.019   1.526   0.010  0.00  0.00    +0.009 C 
ATOM     14  C   UNL     1       0.002  -0.004   0.002  0.00  0.00    +0.003 C 
ATOM     15  C   UNL     1       0.720  -0.498  -1.256  0.00  0.00    +0.006 C 
ATOM     16  C   UNL     1       0.712  -2.028  -1.282  0.00  0.00    +0.019 C 
ATOM     17  C   UNL     1       1.463  -2.559  -0.057  0.00  0.00    +0.105 C 
ATOM     18  N   UNL     1       0.869  -1.973   1.153  0.00  0.00    -0.328 N 
ATOM     19  C   UNL     1       0.744  -0.512   1.242  0.00  0.00    +0.108 C 
ENDBRANCH   1  18
BRANCH   6  20
ATOM     20  N   UNL     1      -1.763  -2.915   1.182  0.00  0.00    -0.356 N 
ATOM     21  H   UNL     1      -1.458  -2.348   0.456  0.00  0.00    +0.142 HD
ATOM     22  H   UNL     1      -2.676  -3.242   1.192  0.00  0.00    +0.142 HD
ENDBRANCH   6  20
TORSDOF 2
