REMARK  Name = ZINC33341282
REMARK  5 active torsions:
REMARK  status: ('A' for Active; 'I' for Inactive)
REMARK    1  A    between atoms: C_1  and  C_2
REMARK    2  A    between atoms: C_9  and  N_31
REMARK    3  A    between atoms: C_10  and  C_13
REMARK    4  A    between atoms: N_17  and  C_21
REMARK    5  A    between atoms: C_21  and  C_22
REMARK                            x       y       z     vdW  Elec       q    Type
REMARK                         _______ _______ _______ _____ _____    ______ ____
ROOT
ATOM      1  C   UNL     1      -3.109  12.183  -5.096  0.00  0.00    +0.047 C 
ATOM      2  C   UNL     1      -3.389  10.938  -4.294  0.00  0.00    -0.007 A 
ATOM      3  C   UNL     1      -4.392  10.093  -4.665  0.00  0.00    +0.008 A 
ATOM      4  C   UNL     1      -4.639   8.940  -3.909  0.00  0.00    +0.019 A 
ATOM      5  C   UNL     1      -3.887   8.669  -2.819  0.00  0.00    +0.096 A 
ATOM      6  N   UNL     1      -2.881   9.508  -2.439  0.00  0.00    -0.267 N 
ATOM      7  C   UNL     1      -2.616  10.641  -3.157  0.00  0.00    +0.145 A 
ATOM      8  N   UNL     1      -1.637  11.473  -2.802  0.00  0.00    -0.213 NA
ATOM      9  C   UNL     1      -0.879  11.242  -1.740  0.00  0.00    +0.136 A 
ATOM     10  C   UNL     1      -1.107  10.085  -0.958  0.00  0.00    +0.081 A 
ATOM     11  C   UNL     1      -2.145   9.205  -1.348  0.00  0.00    +0.267 A 
ATOM     12  O   UNL     1      -2.374   8.194  -0.708  0.00  0.00    -0.267 OA
ENDROOT
BRANCH  10  13
ATOM     13  C   UNL     1      -0.314   9.811   0.180  0.00  0.00    +0.037 C 
ATOM     14  C   UNL     1      -0.876   9.834   1.424  0.00  0.00    +0.077 C 
ATOM     15  C   UNL     1      -2.201  10.181   1.814  0.00  0.00    +0.259 C 
ATOM     16  O   UNL     1      -3.028  10.521   0.987  0.00  0.00    -0.269 OA
ATOM     17  N   UNL     1      -2.507  10.125   3.098  0.00  0.00    -0.251 N 
ATOM     18  C   UNL     1      -1.587   9.754   4.016  0.00  0.00    +0.121 C 
ATOM     19  S   UNL     1      -1.760   9.619   5.715  0.00  0.00    -0.027 S 
ATOM     20  S   UNL     1      -0.147   9.438   3.008  0.00  0.00    -0.061 S 
BRANCH  17  21
ATOM     21  C   UNL     1      -3.862  10.475   3.533  0.00  0.00    +0.150 C 
BRANCH  21  22
ATOM     22  C   UNL     1      -4.726   9.241   3.527  0.00  0.00    -0.026 A 
ATOM     23  C   UNL     1      -5.430   8.897   2.388  0.00  0.00    +0.009 A 
ATOM     24  C   UNL     1      -6.224   7.766   2.378  0.00  0.00    +0.050 A 
ATOM     25  C   UNL     1      -6.317   6.973   3.510  0.00  0.00    +0.166 A 
ATOM     26  C   UNL     1      -5.608   7.319   4.658  0.00  0.00    +0.167 A 
ATOM     27  C   UNL     1      -4.814   8.455   4.661  0.00  0.00    +0.054 A 
ATOM     28  O   UNL     1      -5.861   6.389   5.627  0.00  0.00    -0.453 OA
ATOM     29  C   UNL     1      -6.410   5.254   4.932  0.00  0.00    +0.466 C 
ATOM     30  O   UNL     1      -7.016   5.827   3.759  0.00  0.00    -0.453 OA
ENDBRANCH  21  22
ENDBRANCH  17  21
ENDBRANCH  10  13
BRANCH   9  31
ATOM     31  N   UNL     1       0.125  12.122  -1.400  0.00  0.00    -0.315 N 
ATOM     32  C   UNL     1      -0.152  12.763  -0.108  0.00  0.00    +0.106 C 
ATOM     33  C   UNL     1       1.047  13.619   0.306  0.00  0.00    +0.019 C 
ATOM     34  C   UNL     1       1.304  14.681  -0.766  0.00  0.00    +0.003 C 
ATOM     35  C   UNL     1       1.542  13.989  -2.111  0.00  0.00    +0.019 C 
ATOM     36  C   UNL     1       0.329  13.122  -2.455  0.00  0.00    +0.106 C 
ENDBRANCH   9  31
TORSDOF 4
