REMARK  Name = ZINC09079116
REMARK  10 active torsions:
REMARK  status: ('A' for Active; 'I' for Inactive)
REMARK    1  A    between atoms: C_3  and  C_7
REMARK    2  A    between atoms: C_7  and  C_9
REMARK    3  A    between atoms: C_7  and  S_25
REMARK    4  A    between atoms: C_9  and  N_10
REMARK    5  A    between atoms: C_11  and  C_13
REMARK    6  A    between atoms: N_15  and  C_16
REMARK    7  A    between atoms: C_16  and  C_17
REMARK    8  A    between atoms: C_17  and  C_18
REMARK    9  A    between atoms: C_21  and  O_24
REMARK   10  A    between atoms: S_25  and  C_28
REMARK                            x       y       z     vdW  Elec       q    Type
REMARK                         _______ _______ _______ _____ _____    ______ ____
ROOT
ATOM      1  C   UNL     1       4.316  -1.061  -1.809  0.00  0.00    +0.184 C 
ENDROOT
BRANCH   1   4
ATOM      2  C   UNL     1       1.441  -1.793  -4.141  0.00  0.00    +0.020 A 
ATOM      3  C   UNL     1       2.493  -1.122  -3.536  0.00  0.00    +0.008 A 
ATOM      4  C   UNL     1       3.162  -1.746  -2.495  0.00  0.00    -0.003 A 
ATOM      5  C   UNL     1       2.754  -3.003  -2.089  0.00  0.00    +0.116 A 
ATOM      6  N   UNL     1       1.745  -3.609  -2.684  0.00  0.00    -0.263 NA
ATOM      7  C   UNL     1       1.089  -3.048  -3.681  0.00  0.00    +0.111 A 
ENDBRANCH   1   4
BRANCH   1   8
ATOM      8  S   UNL     1       3.931  -0.843  -0.050  0.00  0.00    +0.005 S 
ATOM      9  O   UNL     1       4.861   0.050   0.547  0.00  0.00    -0.169 OA
ATOM     10  O   UNL     1       3.647  -2.100   0.548  0.00  0.00    -0.169 OA
BRANCH   8  11
ATOM     11  C   UNL     1       2.397   0.024  -0.026  0.00  0.00    +0.093 A 
ATOM     12  C   UNL     1       1.207  -0.680  -0.016  0.00  0.00    +0.031 A 
ATOM     13  C   UNL     1       0.002  -0.004   0.002  0.00  0.00    +0.051 A 
ATOM     14  C   UNL     1      -0.017   1.383   0.010  0.00  0.00    +0.162 A 
ATOM     15  C   UNL     1       1.179   2.090   0.002  0.00  0.00    +0.164 A 
ATOM     16  C   UNL     1       2.386   1.406  -0.017  0.00  0.00    +0.076 A 
ATOM     17  O   UNL     1       1.184   3.451   0.018  0.00  0.00    -0.485 OA
ATOM     18  C   UNL     1      -0.040   4.103  -0.340  0.00  0.00    +0.270 C 
ATOM     19  C   UNL     1      -1.189   3.413   0.408  0.00  0.00    +0.270 C 
ATOM     20  O   UNL     1      -1.212   2.035   0.019  0.00  0.00    -0.485 OA
ENDBRANCH   8  11
ENDBRANCH   1   8
BRANCH   1  21
ATOM     21  C   UNL     1       5.576  -1.917  -1.953  0.00  0.00    +0.136 C 
BRANCH  21  22
ATOM     22  N   UNL     1       6.698  -1.251  -1.287  0.00  0.00    -0.305 N 
ATOM     23  C   UNL     1       7.917  -1.825  -1.285  0.00  0.00    +0.299 C 
ATOM     24  O   UNL     1       8.086  -2.893  -1.835  0.00  0.00    -0.265 OA
ATOM     25  H   UNL     1       6.563  -0.397  -0.848  0.00  0.00    +0.149 HD
BRANCH  23  26
ATOM     26  C   UNL     1       9.062  -1.145  -0.605  0.00  0.00    +0.299 C 
ATOM     27  O   UNL     1       8.893  -0.077  -0.056  0.00  0.00    -0.265 OA
ATOM     28  N   UNL     1      10.281  -1.719  -0.603  0.00  0.00    -0.307 N 
ATOM     29  H   UNL     1      10.416  -2.573  -1.043  0.00  0.00    +0.149 HD
BRANCH  28  30
ATOM     30  C   UNL     1      11.403  -1.053   0.063  0.00  0.00    +0.109 C 
BRANCH  30  31
ATOM     31  C   UNL     1      12.663  -1.909  -0.081  0.00  0.00    +0.054 C 
BRANCH  31  32
ATOM     32  C   UNL     1      13.817  -1.224   0.604  0.00  0.00    -0.046 A 
ATOM     33  C   UNL     1      14.618  -0.346  -0.104  0.00  0.00    +0.007 A 
ATOM     34  C   UNL     1      15.673   0.287   0.524  0.00  0.00    +0.045 A 
ATOM     35  C   UNL     1      15.935   0.035   1.862  0.00  0.00    +0.117 A 
ATOM     36  C   UNL     1      15.134  -0.850   2.569  0.00  0.00    +0.045 A 
ATOM     37  C   UNL     1      14.077  -1.477   1.938  0.00  0.00    +0.007 A 
BRANCH  35  38
ATOM     38  O   UNL     1      16.976   0.653   2.480  0.00  0.00    -0.507 OA
ATOM     39  H   UNL     1      17.810   0.166   2.429  0.00  0.00    +0.292 HD
ENDBRANCH  35  38
ENDBRANCH  31  32
ENDBRANCH  30  31
ENDBRANCH  28  30
ENDBRANCH  23  26
ENDBRANCH  21  22
ENDBRANCH   1  21
TORSDOF 10
