REMARK  Name = ZINC21122222
REMARK  10 active torsions:
REMARK  status: ('A' for Active; 'I' for Inactive)
REMARK    1  A    between atoms: C_1  and  C_2
REMARK    2  A    between atoms: C_2  and  C_4
REMARK    3  A    between atoms: C_2  and  O_16
REMARK    4  A    between atoms: N_6  and  C_7
REMARK    5  A    between atoms: C_10  and  C_13
REMARK    6  A    between atoms: C_13  and  C_15
REMARK    7  A    between atoms: O_16  and  C_17
REMARK    8  A    between atoms: C_17  and  C_19
REMARK    9  A    between atoms: C_21  and  C_30
REMARK   10  A    between atoms: N_22  and  C_24
REMARK                            x       y       z     vdW  Elec       q    Type
REMARK                         _______ _______ _______ _____ _____    ______ ____
ROOT
ATOM      1  C   UNL     1       4.720  -5.490  -0.354  0.00  0.00    +0.379 C 
ATOM      2  O   UNL     1       3.798  -6.280  -0.387  0.00  0.00    -0.241 OA
ENDROOT
BRANCH   1   3
ATOM      3  C   UNL     1       6.089  -5.965  -0.066  0.00  0.00    +0.260 A 
ATOM      4  N   UNL     1       6.446  -7.237   0.177  0.00  0.00    -0.201 NA
ATOM      5  C   UNL     1       7.747  -7.245   0.386  0.00  0.00    +0.164 A 
ATOM      6  N   UNL     1       8.183  -5.960   0.268  0.00  0.00    -0.212 N 
ATOM      7  N   UNL     1       7.169  -5.214  -0.008  0.00  0.00    -0.137 NA
BRANCH   6   8
ATOM      8  C   UNL     1       9.506  -5.525   0.416  0.00  0.00    +0.068 A 
ATOM      9  C   UNL     1      10.286  -6.011   1.457  0.00  0.00    +0.028 A 
ATOM     10  C   UNL     1      11.592  -5.583   1.597  0.00  0.00    +0.002 A 
ATOM     11  C   UNL     1      12.119  -4.664   0.708  0.00  0.00    +0.000 A 
ATOM     12  C   UNL     1      11.344  -4.175  -0.327  0.00  0.00    +0.002 A 
ATOM     13  C   UNL     1      10.039  -4.602  -0.475  0.00  0.00    +0.028 A 
ENDBRANCH   6   8
BRANCH   5  14
ATOM     14  C   UNL     1       8.580  -8.430   0.692  0.00  0.00    +0.019 A 
ATOM     15  C   UNL     1       9.933  -8.442   0.352  0.00  0.00    +0.011 A 
ATOM     16  C   UNL     1      10.705  -9.548   0.644  0.00  0.00    +0.001 A 
ATOM     17  C   UNL     1      10.137 -10.647   1.263  0.00  0.00    +0.000 A 
ATOM     18  C   UNL     1       8.795 -10.643   1.598  0.00  0.00    +0.001 A 
ATOM     19  C   UNL     1       8.014  -9.542   1.316  0.00  0.00    +0.011 A 
ENDBRANCH   5  14
ENDBRANCH   1   3
BRANCH   1  20
ATOM     20  O   UNL     1       4.495  -4.182  -0.582  0.00  0.00    -0.446 OA
BRANCH  20  22
ATOM     21  C   UNL     1       2.870  -3.854  -2.365  0.00  0.00    +0.062 C 
ATOM     22  C   UNL     1       3.125  -3.787  -0.858  0.00  0.00    +0.259 C 
BRANCH  22  23
ATOM     23  C   UNL     1       2.901  -2.378  -0.373  0.00  0.00    +0.258 C 
ATOM     24  O   UNL     1       3.828  -1.734   0.071  0.00  0.00    -0.271 OA
ATOM     25  N   UNL     1       1.669  -1.833  -0.433  0.00  0.00    -0.282 N 
ATOM     26  H   UNL     1       0.811  -2.446  -0.747  0.00  0.00    +0.155 HD
BRANCH  25  27
ATOM     27  C   UNL     1       1.484  -0.494  -0.098  0.00  0.00    +0.034 A 
ATOM     28  C   UNL     1       2.486   0.434  -0.365  0.00  0.00    +0.024 A 
ATOM     29  C   UNL     1       2.307   1.753  -0.037  0.00  0.00    +0.013 A 
ATOM     30  C   UNL     1       1.114   2.166   0.570  0.00  0.00    +0.017 A 
ATOM     31  C   UNL     1       0.109   1.229   0.837  0.00  0.00    +0.013 A 
ATOM     32  C   UNL     1       0.296  -0.088   0.505  0.00  0.00    +0.024 A 
BRANCH  30  33
ATOM     33  C   UNL     1       0.919   3.578   0.924  0.00  0.00    +0.160 C 
ATOM     34  O   UNL     1       1.742   4.406   0.594  0.00  0.00    -0.292 OA
ATOM     35  C   UNL     1      -0.305   3.998   1.697  0.00  0.00    +0.091 C 
ENDBRANCH  30  33
ENDBRANCH  25  27
ENDBRANCH  22  23
ENDBRANCH  20  22
ENDBRANCH   1  20
TORSDOF 8
