REMARK  Name = ZINC24094708
REMARK  4 active torsions:
REMARK  status: ('A' for Active; 'I' for Inactive)
REMARK    1  A    between atoms: C_4  and  N_7
REMARK    2  A    between atoms: C_11  and  C_13
REMARK    3  A    between atoms: C_13  and  C_14
REMARK    4  A    between atoms: C_14  and  N_15
REMARK                            x       y       z     vdW  Elec       q    Type
REMARK                         _______ _______ _______ _____ _____    ______ ____
ROOT
ATOM      1  N   UNL     1       3.622  -0.651  -0.037  0.00  0.00    -0.269 N 
ATOM      2  C   UNL     1       3.645  -1.995   0.057  0.00  0.00    +0.310 C 
ATOM      3  O   UNL     1       2.603  -2.622   0.064  0.00  0.00    -0.252 OA
ATOM      4  N   UNL     1       4.823  -2.644   0.143  0.00  0.00    -0.240 N 
ATOM      5  C   UNL     1       4.846  -3.989   0.237  0.00  0.00    +0.222 C 
ATOM      6  O   UNL     1       3.807  -4.614   0.244  0.00  0.00    -0.275 OA
ATOM      7  H   UNL     1       4.452  -0.156  -0.121  0.00  0.00    +0.156 HD
ATOM      8  H   UNL     1       5.654  -2.144   0.137  0.00  0.00    +0.159 HD
ENDROOT
BRANCH   1  12
ATOM      9  C   UNL     1      -0.015   1.381   0.032  0.00  0.00    +0.000 A 
ATOM     10  C   UNL     1       0.140   0.218   0.765  0.00  0.00    +0.002 A 
ATOM     11  C   UNL     1       1.344  -0.457   0.744  0.00  0.00    +0.023 A 
ATOM     12  C   UNL     1       2.400   0.031  -0.015  0.00  0.00    +0.035 A 
ATOM     13  C   UNL     1       2.241   1.198  -0.750  0.00  0.00    +0.023 A 
ATOM     14  C   UNL     1       1.034   1.870  -0.725  0.00  0.00    +0.002 A 
ENDBRANCH   1  12
BRANCH   5  15
ATOM     15  C   UNL     1       6.163  -4.715   0.333  0.00  0.00    +0.115 C 
BRANCH  15  16
ATOM     16  C   UNL     1       5.909  -6.220   0.429  0.00  0.00    +0.127 C 
BRANCH  16  17
ATOM     17  N   UNL     1       7.190  -6.926   0.522  0.00  0.00    -0.224 N 
ATOM     18  C   UNL     1       7.894  -7.365  -0.543  0.00  0.00    +0.247 C 
ATOM     19  O   UNL     1       7.602  -7.255  -1.714  0.00  0.00    -0.273 OA
ATOM     20  C   UNL     1       9.123  -8.019   0.035  0.00  0.00    +0.113 C 
ATOM     21  C   UNL     1      10.401  -7.330  -0.462  0.00  0.00    +0.035 C 
ATOM     22  C   UNL     1      11.423  -8.489  -0.596  0.00  0.00    +0.003 C 
ATOM     23  C   UNL     1      10.552  -9.660  -1.115  0.00  0.00    +0.003 C 
ATOM     24  C   UNL     1       9.209  -9.493  -0.368  0.00  0.00    +0.035 C 
ATOM     25  N   UNL     1       8.971  -7.870   1.484  0.00  0.00    -0.285 N 
ATOM     26  C   UNL     1       7.810  -7.212   1.675  0.00  0.00    +0.309 C 
ATOM     27  O   UNL     1       7.373  -6.914   2.769  0.00  0.00    -0.252 OA
ATOM     28  H   UNL     1       9.584  -8.179   2.168  0.00  0.00    +0.151 HD
ENDBRANCH  16  17
ENDBRANCH  15  16
ENDBRANCH   5  15
TORSDOF 4
