REMARK  Name = ZINC39940096
REMARK  9 active torsions:
REMARK  status: ('A' for Active; 'I' for Inactive)
REMARK    1  A    between atoms: C_1  and  C_2
REMARK    2  A    between atoms: C_2  and  C_4
REMARK    3  A    between atoms: C_2  and  O_14
REMARK    4  A    between atoms: N_6  and  C_7
REMARK    5  A    between atoms: O_14  and  C_15
REMARK    6  A    between atoms: C_15  and  C_17
REMARK    7  A    between atoms: C_20  and  N_23
REMARK    8  A    between atoms: N_23  and  S_24
REMARK    9  A    between atoms: S_24  and  C_27
REMARK                            x       y       z     vdW  Elec       q    Type
REMARK                         _______ _______ _______ _____ _____    ______ ____
ROOT
ATOM      1  C   UNL     1       0.587  -1.746  -3.485  0.00  0.00    +0.059 A 
ATOM      2  C   UNL     1       1.961  -1.973  -3.613  0.00  0.00    +0.017 A 
ATOM      3  C   UNL     1       2.512  -2.153  -4.855  0.00  0.00    +0.025 A 
ATOM      4  C   UNL     1       1.706  -2.111  -5.989  0.00  0.00    +0.048 A 
ATOM      5  C   UNL     1       0.337  -1.885  -5.866  0.00  0.00    +0.025 A 
ATOM      6  C   UNL     1      -0.221  -1.710  -4.626  0.00  0.00    +0.017 A 
ENDROOT
BRANCH   1   7
ATOM      7  C   UNL     1      -0.009  -1.552  -2.151  0.00  0.00    +0.340 C 
ATOM      8  O   UNL     1      -1.204  -1.361  -2.042  0.00  0.00    -0.245 OA
BRANCH   7   9
ATOM      9  O   UNL     1       0.771  -1.588  -1.053  0.00  0.00    -0.449 OA
BRANCH   9  11
ATOM     10  C   UNL     1       0.115   0.100   0.548  0.00  0.00    +0.062 C 
ATOM     11  C   UNL     1       0.127  -1.392   0.207  0.00  0.00    +0.259 C 
BRANCH  11  12
ATOM     12  C   UNL     1       0.875  -2.145   1.276  0.00  0.00    +0.258 C 
ATOM     13  O   UNL     1       1.912  -2.712   1.006  0.00  0.00    -0.271 OA
ATOM     14  N   UNL     1       0.391  -2.190   2.533  0.00  0.00    -0.282 N 
ATOM     15  H   UNL     1      -0.402  -1.681   2.766  0.00  0.00    +0.155 HD
BRANCH  14  16
ATOM     16  C   UNL     1       1.032  -2.969   3.503  0.00  0.00    +0.034 A 
ATOM     17  C   UNL     1       0.286  -3.627   4.472  0.00  0.00    +0.025 A 
ATOM     18  C   UNL     1       0.921  -4.395   5.428  0.00  0.00    +0.022 A 
ATOM     19  C   UNL     1       2.300  -4.510   5.420  0.00  0.00    +0.041 A 
ATOM     20  C   UNL     1       3.046  -3.856   4.456  0.00  0.00    +0.022 A 
ATOM     21  C   UNL     1       2.416  -3.091   3.494  0.00  0.00    +0.025 A 
ATOM     22 CL   UNL     1       3.095  -5.476   6.623  0.00  0.00    -0.084 Cl
ENDBRANCH  14  16
ENDBRANCH  11  12
ENDBRANCH   9  11
ENDBRANCH   7   9
ENDBRANCH   1   7
BRANCH   4  23
ATOM     23  N   UNL     1       2.268  -2.293  -7.247  0.00  0.00    -0.216 N 
ATOM     24  H   UNL     1       3.088  -1.833  -7.483  0.00  0.00    +0.174 HD
BRANCH  23  25
ATOM     25  S   UNL     1       1.536  -3.296  -8.344  0.00  0.00    +0.072 S 
ATOM     26  O   UNL     1       0.174  -2.900  -8.411  0.00  0.00    -0.150 OA
ATOM     27  O   UNL     1       2.378  -3.329  -9.489  0.00  0.00    -0.150 OA
BRANCH  25  28
ATOM     28  C   UNL     1       1.556  -4.919  -7.658  0.00  0.00    +0.110 A 
ATOM     29  C   UNL     1       2.743  -5.747  -7.835  0.00  0.00    +0.031 A 
ATOM     30  C   UNL     1       2.823  -6.999  -7.335  0.00  0.00    +0.027 A 
ATOM     31  C   UNL     1       1.692  -7.553  -6.593  0.00  0.00    +0.056 A 
ATOM     32  N   UNL     1       1.448  -8.693  -5.996  0.00  0.00    -0.268 N 
ATOM     33  C   UNL     1       0.185  -8.638  -5.455  0.00  0.00    +0.308 C 
ATOM     34  O   UNL     1      -0.347  -9.534  -4.834  0.00  0.00    -0.252 OA
ATOM     35  N   UNL     1      -0.384  -7.415  -5.724  0.00  0.00    -0.267 N 
ATOM     36  C   UNL     1       0.473  -6.703  -6.411  0.00  0.00    +0.058 A 
ATOM     37  C   UNL     1       0.472  -5.357  -6.981  0.00  0.00    +0.054 A 
ATOM     38  H   UNL     1      -1.269  -7.129  -5.450  0.00  0.00    +0.156 HD
ATOM     39  H   UNL     1       2.055  -9.448  -5.945  0.00  0.00    +0.156 HD
ENDBRANCH  25  28
ENDBRANCH  23  25
ENDBRANCH   4  23
TORSDOF 8
