REMARK  Name = ZINC64198965
REMARK  10 active torsions:
REMARK  status: ('A' for Active; 'I' for Inactive)
REMARK    1  A    between atoms: C_1  and  C_2
REMARK    2  A    between atoms: C_6  and  N_8
REMARK    3  A    between atoms: C_9  and  S_14
REMARK    4  A    between atoms: S_14  and  C_15
REMARK    5  A    between atoms: C_15  and  C_16
REMARK    6  A    between atoms: N_18  and  C_19
REMARK    7  A    between atoms: C_19  and  C_21
REMARK    8  A    between atoms: C_19  and  C_30
REMARK    9  A    between atoms: C_30  and  C_31
REMARK   10  A    between atoms: C_30  and  C_32
REMARK                            x       y       z     vdW  Elec       q    Type
REMARK                         _______ _______ _______ _____ _____    ______ ____
ROOT
ATOM      1  C   UNL     1      -4.331  -5.584   2.096  0.00  0.00    +0.223 C 
ATOM      2  O   UNL     1      -4.524  -6.251   1.102  0.00  0.00    -0.275 OA
ATOM      3  N   UNL     1      -5.360  -4.952   2.694  0.00  0.00    -0.308 N 
ATOM      4  H   UNL     1      -5.206  -4.418   3.489  0.00  0.00    +0.149 HD
ENDROOT
BRANCH   1   5
ATOM      5  C   UNL     1      -2.940  -5.461   2.663  0.00  0.00    +0.168 C 
BRANCH   5   6
ATOM      6  S   UNL     1      -1.784  -6.418   1.643  0.00  0.00    -0.103 S 
BRANCH   6   8
ATOM      7  N   UNL     1       0.169  -4.736   2.469  0.00  0.00    -0.201 N 
ATOM      8  C   UNL     1      -0.178  -6.169   2.449  0.00  0.00    +0.294 C 
ATOM      9  N   UNL     1      -0.247  -6.558   3.862  0.00  0.00    -0.135 NA
ATOM     10  N   UNL     1       0.002  -5.583   4.573  0.00  0.00    -0.066 NA
ATOM     11  N   UNL     1       0.274  -4.428   3.838  0.00  0.00    -0.164 N 
ATOM     12  H   UNL     1       0.495  -3.560   4.209  0.00  0.00    +0.195 HD
BRANCH   7  18
ATOM     13  C   UNL     1       1.234  -0.262   0.738  0.00  0.00    +0.044 C 
ATOM     14  C   UNL     1       0.874  -1.707   0.511  0.00  0.00    -0.049 A 
ATOM     15  C   UNL     1       0.729  -2.190  -0.777  0.00  0.00    +0.003 A 
ATOM     16  C   UNL     1       0.399  -3.515  -0.989  0.00  0.00    +0.002 A 
ATOM     17  C   UNL     1       0.212  -4.363   0.086  0.00  0.00    +0.025 A 
ATOM     18  C   UNL     1       0.357  -3.882   1.380  0.00  0.00    +0.053 A 
ATOM     19  C   UNL     1       0.694  -2.550   1.590  0.00  0.00    +0.028 A 
ENDBRANCH   7  18
ENDBRANCH   6   8
ENDBRANCH   5   6
ENDBRANCH   1   5
BRANCH   3  20
ATOM     20  C   UNL     1      -6.712  -5.072   2.142  0.00  0.00    +0.118 C 
BRANCH  20  21
ATOM     21  C   UNL     1      -7.738  -4.835   3.252  0.00  0.00    +0.195 C 
ATOM     22  N   UNL     1      -7.637  -5.891   4.267  0.00  0.00    -0.362 N 
ATOM     23  C   UNL     1      -8.784  -6.505   4.307  0.00  0.00    +0.060 A 
ATOM     24  C   UNL     1      -9.287  -7.630   5.108  0.00  0.00    +0.027 A 
ATOM     25  C   UNL     1     -10.552  -8.061   4.928  0.00  0.00    +0.002 A 
ATOM     26  C   UNL     1     -11.426  -7.477   3.994  0.00  0.00    +0.002 A 
ATOM     27  C   UNL     1     -11.066  -6.441   3.209  0.00  0.00    +0.027 A 
ATOM     28  C   UNL     1      -9.710  -5.886   3.319  0.00  0.00    +0.060 A 
ATOM     29  N   UNL     1      -9.099  -4.914   2.706  0.00  0.00    -0.362 N 
ATOM     30  H   UNL     1      -6.858  -6.095   4.807  0.00  0.00    +0.162 HD
ATOM     31  H   UNL     1      -9.474  -4.346   2.015  0.00  0.00    +0.162 HD
ENDBRANCH  20  21
BRANCH  20  32
ATOM     32  C   UNL     1      -6.907  -4.031   1.038  0.00  0.00    +0.007 C 
ATOM     33  C   UNL     1      -6.579  -2.640   1.584  0.00  0.00    +0.009 C 
ATOM     34  C   UNL     1      -5.976  -4.351  -0.134  0.00  0.00    +0.009 C 
ENDBRANCH  20  32
ENDBRANCH   3  20
TORSDOF 7
