REMARK  Name = ZINC11634544
REMARK  11 active torsions:
REMARK  status: ('A' for Active; 'I' for Inactive)
REMARK    1  A    between atoms: C_1  and  C_2
REMARK    2  A    between atoms: C_2  and  N_3
REMARK    3  A    between atoms: C_7  and  N_33
REMARK    4  A    between atoms: N_12  and  C_13
REMARK    5  A    between atoms: C_13  and  C_15
REMARK    6  A    between atoms: C_18  and  S_21
REMARK    7  A    between atoms: S_21  and  N_24
REMARK    8  A    between atoms: N_24  and  C_25
REMARK    9  A    between atoms: N_24  and  C_26
REMARK   10  A    between atoms: C_26  and  C_27
REMARK   11  A    between atoms: C_34  and  C_36
REMARK                            x       y       z     vdW  Elec       q    Type
REMARK                         _______ _______ _______ _____ _____    ______ ____
ROOT
ATOM      1  C   UNL     1      -8.706   1.909   0.924  0.00  0.00    +0.269 C 
ATOM      2  O   UNL     1      -8.194   0.822   0.723  0.00  0.00    -0.268 OA
ENDROOT
BRANCH   1  12
ATOM      3  N   UNL     1      -5.682   3.871   1.088  0.00  0.00    -0.321 N 
ATOM      4  C   UNL     1      -4.338   3.566   0.970  0.00  0.00    +0.058 A 
ATOM      5  C   UNL     1      -3.238   4.435   1.054  0.00  0.00    +0.029 A 
ATOM      6  C   UNL     1      -1.955   3.964   0.917  0.00  0.00    +0.025 A 
ATOM      7  C   UNL     1      -1.705   2.616   0.681  0.00  0.00    +0.035 A 
ATOM      8  C   UNL     1      -2.777   1.736   0.594  0.00  0.00    +0.040 A 
ATOM      9  C   UNL     1      -4.058   2.212   0.736  0.00  0.00    +0.041 A 
ATOM     10  S   UNL     1      -5.668   1.464   0.698  0.00  0.00    -0.052 S 
ATOM     11  C   UNL     1      -6.616   2.889   0.977  0.00  0.00    +0.167 A 
ATOM     12  N   UNL     1      -7.938   2.995   1.061  0.00  0.00    -0.152 NA
BRANCH   7  13
ATOM     13  N   UNL     1      -0.391   2.152   0.539  0.00  0.00    -0.286 N 
ATOM     14  C   UNL     1       0.542   2.936  -0.036  0.00  0.00    +0.214 C 
ATOM     15  O   UNL     1       0.227   4.010  -0.503  0.00  0.00    -0.276 OA
ATOM     16  C   UNL     1       1.976   2.477  -0.100  0.00  0.00    +0.109 C 
ATOM     17  H   UNL     1      -0.154   1.265   0.852  0.00  0.00    +0.155 HD
ENDBRANCH   7  13
BRANCH   3  19
ATOM     18  C   UNL     1      -7.396   5.537   0.570  0.00  0.00    +0.027 C 
ATOM     19  C   UNL     1      -6.101   5.253   1.333  0.00  0.00    +0.121 C 
ENDBRANCH   3  19
ENDBRANCH   1  12
BRANCH   1  20
ATOM     20  C   UNL     1     -10.179   2.028   1.019  0.00  0.00    +0.039 A 
ATOM     21  C   UNL     1     -10.768   3.270   1.255  0.00  0.00    +0.015 A 
ATOM     22  C   UNL     1     -12.142   3.375   1.336  0.00  0.00    +0.029 A 
ATOM     23  C   UNL     1     -12.934   2.249   1.194  0.00  0.00    +0.106 A 
ATOM     24  C   UNL     1     -12.355   1.014   0.965  0.00  0.00    +0.029 A 
ATOM     25  C   UNL     1     -10.983   0.897   0.877  0.00  0.00    +0.015 A 
BRANCH  23  26
ATOM     26  S   UNL     1     -14.687   2.390   1.306  0.00  0.00    +0.061 S 
ATOM     27  O   UNL     1     -15.017   3.700   0.867  0.00  0.00    -0.153 OA
ATOM     28  O   UNL     1     -15.227   1.224   0.700  0.00  0.00    -0.153 OA
BRANCH  26  29
ATOM     29  N   UNL     1     -15.082   2.316   2.912  0.00  0.00    -0.175 NA
ATOM     30  C   UNL     1     -15.252   3.550   3.683  0.00  0.00    +0.132 C 
BRANCH  29  31
ATOM     31  C   UNL     1     -15.262   1.016   3.563  0.00  0.00    +0.144 C 
BRANCH  31  32
ATOM     32  C   UNL     1     -16.730   0.682   3.622  0.00  0.00    -0.032 A 
ATOM     33  C   UNL     1     -17.503   1.147   4.669  0.00  0.00    +0.005 A 
ATOM     34  C   UNL     1     -18.851   0.845   4.721  0.00  0.00    +0.000 A 
ATOM     35  C   UNL     1     -19.424   0.070   3.730  0.00  0.00    +0.000 A 
ATOM     36  C   UNL     1     -18.650  -0.400   2.686  0.00  0.00    +0.000 A 
ATOM     37  C   UNL     1     -17.303  -0.093   2.631  0.00  0.00    +0.005 A 
ENDBRANCH  31  32
ENDBRANCH  29  31
ENDBRANCH  26  29
ENDBRANCH  23  26
ENDBRANCH   1  20
TORSDOF 8
