REMARK  Name = ZINC13500108
REMARK  11 active torsions:
REMARK  status: ('A' for Active; 'I' for Inactive)
REMARK    1  A    between atoms: C_1  and  C_2
REMARK    2  A    between atoms: C_2  and  C_3
REMARK    3  A    between atoms: C_3  and  C_4
REMARK    4  A    between atoms: C_4  and  C_6
REMARK    5  A    between atoms: C_4  and  N_66
REMARK    6  A    between atoms: N_10  and  C_11
REMARK    7  A    between atoms: C_11  and  C_12
REMARK    8  A    between atoms: C_17  and  C_18
REMARK    9  A    between atoms: C_17  and  N_66
REMARK   10  A    between atoms: C_24  and  C_30
REMARK   11  A    between atoms: C_31  and  N_66
REMARK                            x       y       z     vdW  Elec       q    Type
REMARK                         _______ _______ _______ _____ _____    ______ ____
ROOT
ATOM      1  N   UNL     1      -0.995   1.459   1.598  0.00  0.00    +0.391 N 
ATOM      2  H   UNL     1      -1.132   2.427   1.911  0.00  0.00    -0.080 HD
ENDROOT
BRANCH   1   3
ATOM      3  C   UNL     1       0.234   1.388   0.780  0.00  0.00    -0.067 C 
ATOM      4  C   UNL     1       0.213   2.498  -0.300  0.00  0.00    -0.015 C 
ATOM      5  C   UNL     1       1.718   2.701  -0.610  0.00  0.00    -0.002 C 
ATOM      6  C   UNL     1       2.409   2.559   0.762  0.00  0.00    -0.002 C 
ATOM      7  C   UNL     1       1.465   1.724   1.645  0.00  0.00    -0.015 C 
ENDBRANCH   1   3
BRANCH   1   8
ATOM      8  C   UNL     1      -2.163   1.045   0.792  0.00  0.00    +0.003 C 
BRANCH   8   9
ATOM      9  C   UNL     1      -1.796  -0.096  -0.121  0.00  0.00    +0.139 A 
ATOM     10  N   UNL     1      -0.880  -0.084  -1.058  0.00  0.00    -0.115 NA
ATOM     11  N   UNL     1      -0.866  -1.246  -1.616  0.00  0.00    -0.023 NA
ATOM     12  N   UNL     1      -1.749  -1.998  -1.058  0.00  0.00    -0.044 NA
ATOM     13  N   UNL     1      -2.340  -1.327  -0.128  0.00  0.00    -0.223 N 
BRANCH  13  14
ATOM     14  C   UNL     1      -3.405  -1.812   0.753  0.00  0.00    +0.221 C 
BRANCH  14  15
ATOM     15  C   UNL     1      -4.745  -1.543   0.117  0.00  0.00    +0.126 A 
ATOM     16  C   UNL     1      -5.404  -2.373  -0.711  0.00  0.00    +0.046 A 
ATOM     17  C   UNL     1      -6.610  -1.727  -1.064  0.00  0.00    +0.041 A 
ATOM     18  C   UNL     1      -6.612  -0.536  -0.438  0.00  0.00    +0.195 A 
ATOM     19  O   UNL     1      -5.480  -0.430   0.276  0.00  0.00    -0.466 OA
ENDBRANCH  14  15
ENDBRANCH  13  14
ENDBRANCH   8   9
BRANCH   8  20
ATOM     20  C   UNL     1      -2.627   2.239  -0.045  0.00  0.00    -0.008 C 
BRANCH  20  22
ATOM     21  C   UNL     1      -3.608   4.535   0.053  0.00  0.00    +0.004 C 
ATOM     22  C   UNL     1      -3.028   3.388   0.883  0.00  0.00    -0.005 C 
ENDBRANCH  20  22
ENDBRANCH   8  20
ENDBRANCH   1   8
BRANCH   1  23
ATOM     23  C   UNL     1      -0.864   0.585   2.783  0.00  0.00    -0.036 C 
BRANCH  23  24
ATOM     24  C   UNL     1      -1.913   0.978   3.791  0.00  0.00    +0.001 A 
ATOM     25  C   UNL     1      -3.068   0.272   3.875  0.00  0.00    +0.017 A 
ATOM     26  C   UNL     1      -4.066   0.679   4.865  0.00  0.00    -0.001 A 
ATOM     27  C   UNL     1      -5.276  -0.011   4.998  0.00  0.00    +0.010 A 
ATOM     28  C   UNL     1      -6.187   0.395   5.932  0.00  0.00    +0.001 A 
ATOM     29  C   UNL     1      -5.923   1.485   6.750  0.00  0.00    +0.005 A 
ATOM     30  C   UNL     1      -4.738   2.179   6.636  0.00  0.00    -0.026 A 
ATOM     31  C   UNL     1      -3.795   1.785   5.693  0.00  0.00    +0.052 A 
ATOM     32  N   UNL     1      -2.601   2.460   5.558  0.00  0.00    -0.322 N 
ATOM     33  H   UNL     1      -2.416   3.222   6.129  0.00  0.00    +0.169 HD
ATOM     34  C   UNL     1      -1.688   2.076   4.649  0.00  0.00    +0.251 A 
ATOM     35  O   UNL     1      -0.641   2.693   4.561  0.00  0.00    -0.268 OA
ATOM     36  C   UNL     1      -4.465   3.360   7.531  0.00  0.00    +0.046 C 
ENDBRANCH  23  24
ENDBRANCH   1  23
TORSDOF 9
