REMARK  Name = ZINC14746247
REMARK  13 active torsions:
REMARK  status: ('A' for Active; 'I' for Inactive)
REMARK    1  A    between atoms: C_1  and  C_2
REMARK    2  A    between atoms: C_2  and  C_3
REMARK    3  A    between atoms: C_2  and  C_4
REMARK    4  A    between atoms: C_4  and  C_5
REMARK    5  A    between atoms: C_5  and  N_6
REMARK    6  A    between atoms: N_9  and  C_29
REMARK    7  A    between atoms: C_17  and  C_18
REMARK    8  A    between atoms: C_17  and  N_80
REMARK    9  A    between atoms: C_26  and  C_27
REMARK   10  A    between atoms: C_26  and  C_28
REMARK   11  A    between atoms: C_29  and  C_30
REMARK   12  A    between atoms: C_30  and  C_31
REMARK   13  A    between atoms: C_31  and  C_32
REMARK                            x       y       z     vdW  Elec       q    Type
REMARK                         _______ _______ _______ _____ _____    ______ ____
ROOT
ATOM      1  N   UNL     1       1.129   1.351  -0.496  0.00  0.00    -0.271 N 
ATOM      2  C   UNL     1      -0.157   0.976  -0.634  0.00  0.00    +0.312 C 
ATOM      3  O   UNL     1      -1.101   1.717  -0.444  0.00  0.00    -0.252 OA
ATOM      4  N   UNL     1      -0.279  -0.303  -1.010  0.00  0.00    -0.224 N 
ATOM      5  C   UNL     1       0.925  -0.898  -1.146  0.00  0.00    +0.247 C 
ATOM      6  O   UNL     1       1.145  -2.045  -1.470  0.00  0.00    -0.273 OA
ATOM      7  C   UNL     1       1.941   0.170  -0.815  0.00  0.00    +0.112 C 
ATOM      8  C   UNL     1       2.837   0.446  -2.018  0.00  0.00    +0.017 C 
ATOM      9  C   UNL     1       3.873   1.511  -1.645  0.00  0.00    -0.076 C 
ATOM     10  C   UNL     1       3.817   0.842   0.685  0.00  0.00    -0.076 C 
ATOM     11  C   UNL     1       2.779  -0.245   0.391  0.00  0.00    +0.017 C 
ATOM     12  N   UNL     1       4.676   1.018  -0.505  0.00  0.00    +0.382 N 
ATOM     13  H   UNL     1       5.087   0.111  -0.755  0.00  0.00    -0.081 HD
ENDROOT
BRANCH   1  14
ATOM     14  C   UNL     1       1.620   2.674  -0.103  0.00  0.00    +0.110 C 
BRANCH  14  15
ATOM     15  C   UNL     1       1.231   2.953   1.350  0.00  0.00    +0.022 C 
BRANCH  15  17
ATOM     16  C   UNL     1       0.939   5.392   0.898  0.00  0.00    +0.007 C 
ATOM     17  C   UNL     1       1.690   4.359   1.740  0.00  0.00    -0.016 C 
ATOM     18  C   UNL     1       1.395   4.598   3.222  0.00  0.00    +0.007 C 
ENDBRANCH  15  17
ENDBRANCH  14  15
ENDBRANCH   1  14
BRANCH  12  19
ATOM     19  C   UNL     1       5.764   1.971  -0.205  0.00  0.00    -0.047 C 
BRANCH  19  20
ATOM     20  C   UNL     1       6.557   2.222  -1.462  0.00  0.00    -0.086 C 
ATOM     21  C   UNL     1       7.662   1.559  -1.715  0.00  0.00    -0.029 C 
ATOM     22  C   UNL     1       8.422   1.834  -2.990  0.00  0.00    +0.031 C 
ATOM     23  C   UNL     1       7.742   2.973  -3.762  0.00  0.00    -0.000 C 
ATOM     24  C   UNL     1       6.231   2.703  -3.919  0.00  0.00    +0.012 C 
ATOM     25  C   UNL     1       6.106   3.247  -2.488  0.00  0.00    +0.019 C 
ATOM     26  C   UNL     1       7.347   4.154  -2.859  0.00  0.00    -0.025 C 
ATOM     27  C   UNL     1       8.326   4.410  -1.711  0.00  0.00    +0.012 C 
ATOM     28  C   UNL     1       6.974   5.423  -3.627  0.00  0.00    +0.012 C 
ENDBRANCH  19  20
ENDBRANCH  12  19
BRANCH   4  29
ATOM     29  C   UNL     1      -1.560  -0.976  -1.241  0.00  0.00    +0.118 C 
BRANCH  29  30
ATOM     30  C   UNL     1      -2.046  -1.609   0.064  0.00  0.00    +0.024 C 
BRANCH  30  31
ATOM     31  C   UNL     1      -3.384  -2.311  -0.178  0.00  0.00    +0.037 C 
BRANCH  31  32
ATOM     32  C   UNL     1      -3.863  -2.934   1.108  0.00  0.00    -0.044 A 
ATOM     33  C   UNL     1      -3.517  -4.235   1.438  0.00  0.00    +0.023 A 
ATOM     34  C   UNL     1      -3.972  -4.772   2.627  0.00  0.00    +0.111 A 
ATOM     35  N   UNL     1      -4.734  -4.066   3.439  0.00  0.00    -0.263 NA
ATOM     36  C   UNL     1      -5.087  -2.827   3.155  0.00  0.00    +0.111 A 
ATOM     37  C   UNL     1      -4.666  -2.222   1.986  0.00  0.00    +0.023 A 
ENDBRANCH  31  32
ENDBRANCH  30  31
ENDBRANCH  29  30
ENDBRANCH   4  29
TORSDOF 9
