REMARK  Name = ZINC14742293
REMARK  7 active torsions:
REMARK  status: ('A' for Active; 'I' for Inactive)
REMARK    1  A    between atoms: C_4  and  C_7
REMARK    2  A    between atoms: C_7  and  C_8
REMARK    3  A    between atoms: C_8  and  N_9
REMARK    4  A    between atoms: N_12  and  C_31
REMARK    5  A    between atoms: C_20  and  C_21
REMARK    6  A    between atoms: C_20  and  N_69
REMARK    7  A    between atoms: C_31  and  C_32
REMARK                            x       y       z     vdW  Elec       q    Type
REMARK                         _______ _______ _______ _____ _____    ______ ____
ROOT
ATOM      1  N   UNL     1      -2.874  -0.679   3.466  0.00  0.00    -0.271 N 
ATOM      2  C   UNL     1      -2.514  -0.829   2.176  0.00  0.00    +0.312 C 
ATOM      3  O   UNL     1      -1.973  -1.824   1.737  0.00  0.00    -0.252 OA
ATOM      4  N   UNL     1      -2.816   0.244   1.434  0.00  0.00    -0.220 N 
ATOM      5  C   UNL     1      -3.416   1.203   2.169  0.00  0.00    +0.247 C 
ATOM      6  O   UNL     1      -3.810   2.284   1.785  0.00  0.00    -0.273 OA
ATOM      7  C   UNL     1      -3.493   0.648   3.572  0.00  0.00    +0.112 C 
ATOM      8  C   UNL     1      -4.947   0.526   4.019  0.00  0.00    +0.017 C 
ATOM      9  C   UNL     1      -4.993  -0.013   5.452  0.00  0.00    -0.076 C 
ATOM     10  C   UNL     1      -2.828   0.957   5.955  0.00  0.00    -0.076 C 
ATOM     11  C   UNL     1      -2.709   1.528   4.539  0.00  0.00    +0.017 C 
ATOM     12  N   UNL     1      -4.256   0.916   6.336  0.00  0.00    +0.383 N 
ATOM     13  H   UNL     1      -4.654   1.857   6.235  0.00  0.00    -0.081 HD
ENDROOT
BRANCH   1  14
ATOM     14  C   UNL     1      -2.691  -1.651   4.546  0.00  0.00    +0.115 C 
BRANCH  14  15
ATOM     15  C   UNL     1      -1.197  -1.822   4.831  0.00  0.00    +0.054 C 
BRANCH  15  19
ATOM     16  C   UNL     1      -0.644  -4.897   7.743  0.00  0.00    +0.000 A 
ATOM     17  C   UNL     1      -0.559  -5.197   6.397  0.00  0.00    +0.000 A 
ATOM     18  C   UNL     1      -0.738  -4.202   5.454  0.00  0.00    +0.004 A 
ATOM     19  C   UNL     1      -1.002  -2.907   5.858  0.00  0.00    -0.046 A 
ATOM     20  C   UNL     1      -1.081  -2.606   7.205  0.00  0.00    +0.004 A 
ATOM     21  C   UNL     1      -0.908  -3.602   8.148  0.00  0.00    +0.000 A 
ENDBRANCH  15  19
ENDBRANCH  14  15
ENDBRANCH   1  14
BRANCH  12  22
ATOM     22  C   UNL     1      -4.391   0.486   7.743  0.00  0.00    -0.025 C 
BRANCH  22  23
ATOM     23  C   UNL     1      -5.854   0.336   8.072  0.00  0.00    +0.000 A 
ATOM     24  C   UNL     1      -6.621   1.290   8.622  0.00  0.00    +0.029 A 
ATOM     25  C   UNL     1      -7.966   0.728   8.766  0.00  0.00    -0.000 A 
ATOM     26  C   UNL     1      -9.176   1.220   9.258  0.00  0.00    +0.010 A 
ATOM     27  C   UNL     1     -10.284   0.419   9.261  0.00  0.00    +0.001 A 
ATOM     28  C   UNL     1     -10.215  -0.880   8.777  0.00  0.00    +0.002 A 
ATOM     29  C   UNL     1      -9.031  -1.386   8.286  0.00  0.00    +0.026 A 
ATOM     30  C   UNL     1      -7.891  -0.588   8.274  0.00  0.00    +0.047 A 
ATOM     31  N   UNL     1      -6.594  -0.794   7.861  0.00  0.00    -0.360 N 
ATOM     32  H   UNL     1      -6.256  -1.619   7.477  0.00  0.00    +0.166 HD
ENDBRANCH  22  23
ENDBRANCH  12  22
BRANCH   4  33
ATOM     33  C   UNL     1      -2.534   0.359   0.001  0.00  0.00    +0.153 C 
BRANCH  33  34
ATOM     34  C   UNL     1      -1.169   0.967  -0.195  0.00  0.00    -0.030 A 
ATOM     35  C   UNL     1      -0.055   0.153  -0.278  0.00  0.00    +0.005 A 
ATOM     36  C   UNL     1       1.196   0.710  -0.463  0.00  0.00    +0.000 A 
ATOM     37  C   UNL     1       1.334   2.082  -0.562  0.00  0.00    +0.000 A 
ATOM     38  C   UNL     1       0.221   2.897  -0.474  0.00  0.00    +0.000 A 
ATOM     39  C   UNL     1      -1.030   2.339  -0.288  0.00  0.00    +0.005 A 
ENDBRANCH  33  34
ENDBRANCH   4  33
TORSDOF 7
