REMARK  Name = ZINC15955587
REMARK  4 active torsions:
REMARK  status: ('A' for Active; 'I' for Inactive)
REMARK    1  A    between atoms: C_1  and  C_2
REMARK    2  A    between atoms: C_6  and  C_8
REMARK    3  A    between atoms: N_26  and  C_29
REMARK    4  A    between atoms: C_34  and  C_35
REMARK                            x       y       z     vdW  Elec       q    Type
REMARK                         _______ _______ _______ _____ _____    ______ ____
ROOT
ATOM      1  C   UNL     1       1.748  -1.895  -0.006  0.00  0.00    +0.155 C 
ATOM      2  C   UNL     1       1.297  -0.448  -0.010  0.00  0.00    +0.046 A 
ATOM      3  C   UNL     1       2.148   0.600  -0.016  0.00  0.00    -0.015 A 
ATOM      4  C   UNL     1       1.331   1.800  -0.001  0.00  0.00    +0.003 A 
ATOM      5  C   UNL     1       1.653   3.161   0.003  0.00  0.00    +0.010 A 
ATOM      6  C   UNL     1       0.603   4.045   0.018  0.00  0.00    +0.001 A 
ATOM      7  C   UNL     1      -0.716   3.622   0.029  0.00  0.00    +0.002 A 
ATOM      8  C   UNL     1      -1.062   2.282   0.029  0.00  0.00    +0.026 A 
ATOM      9  C   UNL     1      -0.016   1.361   0.009  0.00  0.00    +0.047 A 
ATOM     10  N   UNL     1       0.002  -0.004   0.002  0.00  0.00    -0.356 N 
ATOM     11  H   UNL     1      -0.783  -0.573   0.004  0.00  0.00    +0.166 HD
ATOM     12  C   UNL     1       3.653   0.516  -0.044  0.00  0.00    +0.069 C 
ATOM     13  C   UNL     1       4.093  -0.876   0.426  0.00  0.00    +0.170 C 
ATOM     14  N   UNL     1       3.203  -1.874  -0.206  0.00  0.00    -0.260 N 
ATOM     15  C   UNL     1       3.968  -2.670  -0.955  0.00  0.00    +0.317 C 
ATOM     16  O   UNL     1       3.549  -3.630  -1.571  0.00  0.00    -0.252 OA
ATOM     17  N   UNL     1       5.253  -2.287  -0.950  0.00  0.00    -0.192 N 
ATOM     18  C   UNL     1       5.448  -1.208  -0.164  0.00  0.00    +0.248 C 
ATOM     19  O   UNL     1       6.493  -0.624   0.030  0.00  0.00    -0.273 OA
ENDROOT
BRANCH   1  25
ATOM     20  C   UNL     1      -1.828  -5.002  -1.619  0.00  0.00    +0.044 C 
ATOM     21  C   UNL     1      -0.629  -4.134  -1.900  0.00  0.00    -0.050 A 
ATOM     22  C   UNL     1      -0.139  -4.029  -3.189  0.00  0.00    +0.003 A 
ATOM     23  C   UNL     1       0.961  -3.232  -3.447  0.00  0.00    +0.001 A 
ATOM     24  C   UNL     1       1.569  -2.538  -2.418  0.00  0.00    +0.006 A 
ATOM     25  C   UNL     1       1.083  -2.648  -1.129  0.00  0.00    -0.021 A 
ATOM     26  C   UNL     1      -0.018  -3.444  -0.870  0.00  0.00    +0.009 A 
ENDBRANCH   1  25
BRANCH  17  27
ATOM     27  C   UNL     1       6.265  -2.926  -1.668  0.00  0.00    +0.060 A 
ATOM     28  C   UNL     1       6.984  -3.962  -1.088  0.00  0.00    +0.025 A 
ATOM     29  C   UNL     1       7.981  -4.597  -1.802  0.00  0.00    +0.002 A 
ATOM     30  C   UNL     1       8.279  -4.200  -3.096  0.00  0.00    +0.001 A 
ATOM     31  C   UNL     1       7.579  -3.170  -3.686  0.00  0.00    +0.017 A 
ATOM     32  C   UNL     1       6.564  -2.522  -2.978  0.00  0.00    +0.085 A 
BRANCH  32  33
ATOM     33  C   UNL     1       5.811  -1.419  -3.603  0.00  0.00    +0.388 C 
ATOM     34  O   UNL     1       4.929  -0.857  -2.983  0.00  0.00    -0.241 OA
ATOM     35  O   UNL     1       6.101  -1.033  -4.861  0.00  0.00    -0.241 OA
ENDBRANCH  32  33
ENDBRANCH  17  27
TORSDOF 3
