REMARK  Name = ZINC02181932
REMARK  11 active torsions:
REMARK  status: ('A' for Active; 'I' for Inactive)
REMARK    1  A    between atoms: C_1  and  C_2
REMARK    2  A    between atoms: C_2  and  C_3
REMARK    3  A    between atoms: C_2  and  C_4
REMARK    4  A    between atoms: C_2  and  C_5
REMARK    5  A    between atoms: C_5  and  C_7
REMARK    6  A    between atoms: C_5  and  N_17
REMARK    7  A    between atoms: C_8  and  C_9
REMARK    8  A    between atoms: C_18  and  C_22
REMARK    9  A    between atoms: C_22  and  N_57
REMARK   10  A    between atoms: C_27  and  N_57
REMARK   11  A    between atoms: C_28  and  N_57
REMARK                            x       y       z     vdW  Elec       q    Type
REMARK                         _______ _______ _______ _____ _____    ______ ____
ROOT
ATOM      1  C   UNL     1      -2.262   1.651  -4.016  0.00  0.00    +0.139 C 
ENDROOT
BRANCH   1   2
ATOM      2  N   UNL     1      -1.996   0.370  -3.356  0.00  0.00    -0.223 N 
ATOM      3  C   UNL     1      -1.580   0.195  -2.088  0.00  0.00    +0.142 A 
ATOM      4  N   UNL     1      -1.472  -1.098  -1.902  0.00  0.00    -0.115 NA
ATOM      5  N   UNL     1      -1.799  -1.686  -3.001  0.00  0.00    -0.023 NA
ATOM      6  N   UNL     1      -2.113  -0.802  -3.882  0.00  0.00    -0.043 NA
BRANCH   3   7
ATOM      7  C   UNL     1      -1.300   1.276  -1.076  0.00  0.00    -0.003 C 
ATOM      8  C   UNL     1      -0.103   2.128  -1.532  0.00  0.00    -0.004 C 
ATOM      9  C   UNL     1       0.981   1.986  -0.443  0.00  0.00    -0.001 C 
ATOM     10  C   UNL     1       0.190   1.592   0.830  0.00  0.00    -0.001 C 
ATOM     11  C   UNL     1      -0.903   0.645   0.275  0.00  0.00    -0.004 C 
BRANCH   7  14
ATOM     12  C   UNL     1      -3.672   1.318  -0.591  0.00  0.00    -0.095 C 
ATOM     13  C   UNL     1      -2.258   3.147   0.126  0.00  0.00    -0.095 C 
ATOM     14  N   UNL     1      -2.491   2.139  -0.930  0.00  0.00    +0.385 N 
ATOM     15  H   UNL     1      -2.664   2.622  -1.819  0.00  0.00    -0.081 HD
ENDBRANCH   7  14
ENDBRANCH   3   7
ENDBRANCH   1   2
BRANCH   1  17
ATOM     16  C   UNL     1      -1.965   0.686  -6.301  0.00  0.00    +0.013 C 
ATOM     17  C   UNL     1      -1.453   1.735  -5.312  0.00  0.00    -0.012 C 
ATOM     18  C   UNL     1      -1.609   3.130  -5.920  0.00  0.00    +0.013 C 
ATOM     19  C   UNL     1       0.023   1.472  -5.009  0.00  0.00    +0.013 C 
ENDBRANCH   1  17
BRANCH   1  20
ATOM     20  C   UNL     1      -3.732   1.756  -4.333  0.00  0.00    +0.001 C 
ATOM     21  C   UNL     1      -4.452   2.744  -3.819  0.00  0.00    +0.007 C 
BRANCH  21  22
ATOM     22  C   UNL     1      -5.893   2.847  -4.130  0.00  0.00    -0.007 A 
ATOM     23  C   UNL     1      -6.497   1.911  -4.970  0.00  0.00    +0.011 A 
ATOM     24  C   UNL     1      -7.844   2.009  -5.252  0.00  0.00    +0.020 A 
ATOM     25  C   UNL     1      -8.594   3.042  -4.714  0.00  0.00    +0.042 A 
ATOM     26  C   UNL     1      -8.000   3.977  -3.885  0.00  0.00    +0.040 A 
ATOM     27  C   UNL     1      -6.654   3.886  -3.590  0.00  0.00    +0.049 A 
ATOM     28 CL   UNL     1      -5.909   5.061  -2.551  0.00  0.00    -0.083 Cl
ATOM     29 CL   UNL     1     -10.287   3.162  -5.080  0.00  0.00    -0.083 Cl
ENDBRANCH  21  22
ENDBRANCH   1  20
TORSDOF 6
