REMARK  Name = ZINC15861721
REMARK  6 active torsions:
REMARK  status: ('A' for Active; 'I' for Inactive)
REMARK    1  A    between atoms: C_1  and  C_2
REMARK    2  A    between atoms: C_2  and  C_36
REMARK    3  A    between atoms: C_3  and  N_30
REMARK    4  A    between atoms: N_6  and  C_7
REMARK    5  A    between atoms: N_17  and  C_20
REMARK    6  A    between atoms: C_24  and  C_26
REMARK                            x       y       z     vdW  Elec       q    Type
REMARK                         _______ _______ _______ _____ _____    ______ ____
ROOT
ATOM      1  C   UNL     1      -1.492   4.540  -4.338  0.00  0.00    +0.020 C 
ATOM      2  C   UNL     1      -2.054   3.119  -4.264  0.00  0.00    +0.033 C 
ATOM      3  C   UNL     1      -1.815   2.374  -5.592  0.00  0.00    +0.131 C 
ATOM      4  C   UNL     1      -0.943   1.203  -5.196  0.00  0.00    +0.098 C 
ATOM      5  N   UNL     1      -0.490   0.297  -5.998  0.00  0.00    -0.369 N 
ATOM      6  N   UNL     1      -0.717   1.257  -3.846  0.00  0.00    -0.254 N 
ATOM      7  C   UNL     1      -1.297   2.302  -3.242  0.00  0.00    +0.069 C 
ATOM      8  S   UNL     1      -1.208   2.631  -1.680  0.00  0.00    -0.039 S 
ATOM      9  C   UNL     1      -3.547   3.152  -3.930  0.00  0.00    +0.020 C 
ATOM     10  H   UNL     1       0.460  -0.211  -5.775  0.00  0.00    +0.161 HD
ENDROOT
BRANCH   5  11
ATOM     11  C   UNL     1      -1.242  -0.055  -7.206  0.00  0.00    +0.040 C 
ATOM     12  C   UNL     1      -1.164   1.098  -8.208  0.00  0.00    +0.031 C 
ATOM     13  C   UNL     1      -1.949   0.732  -9.469  0.00  0.00    -0.008 C 
ATOM     14  C   UNL     1      -3.412   0.473  -9.102  0.00  0.00    +0.007 C 
ATOM     15  C   UNL     1      -3.490  -0.680  -8.099  0.00  0.00    -0.008 C 
ATOM     16  C   UNL     1      -2.705  -0.313  -6.838  0.00  0.00    +0.031 C 
ATOM     17  C   UNL     1      -2.890  -1.941  -8.725  0.00  0.00    +0.007 C 
ATOM     18  C   UNL     1      -1.428  -1.683  -9.092  0.00  0.00    -0.008 C 
ATOM     19  C   UNL     1      -1.350  -0.530 -10.095  0.00  0.00    +0.007 C 
ATOM     20  C   UNL     1      -0.642  -1.316  -7.831  0.00  0.00    +0.031 C 
ENDBRANCH   5  11
BRANCH   6  21
ATOM     21  C   UNL     1       0.053   0.309  -3.160  0.00  0.00    +0.041 A 
ATOM     22  C   UNL     1      -0.547  -0.540  -2.240  0.00  0.00    +0.024 A 
ATOM     23  C   UNL     1       0.214  -1.477  -1.569  0.00  0.00    +0.002 A 
ATOM     24  C   UNL     1       1.574  -1.563  -1.805  0.00  0.00    +0.012 A 
ATOM     25  C   UNL     1       2.175  -0.716  -2.717  0.00  0.00    +0.057 A 
ATOM     26  C   UNL     1       1.419   0.220  -3.396  0.00  0.00    +0.036 A 
BRANCH  25  27
ATOM     27  C   UNL     1       3.657  -0.813  -2.972  0.00  0.00    +0.417 C 
ATOM     28  F   UNL     1       4.338   0.033  -2.090  0.00  0.00    -0.166 F 
ATOM     29  F   UNL     1       4.079  -2.132  -2.773  0.00  0.00    -0.166 F 
ATOM     30  F   UNL     1       3.930  -0.430  -4.290  0.00  0.00    -0.166 F 
ENDBRANCH  25  27
ENDBRANCH   6  21
BRANCH   3  31
ATOM     31  N   UNL     1      -1.113   3.239  -6.550  0.00  0.00    -0.291 NA
ATOM     32  C   UNL     1       0.079   3.836  -5.943  0.00  0.00    +0.096 C 
ATOM     33  C   UNL     1       1.024   4.340  -7.040  0.00  0.00    +0.084 C 
ATOM     34  S   UNL     1       0.156   5.619  -8.000  0.00  0.00    -0.158 S 
ATOM     35  C   UNL     1      -1.424   4.812  -8.407  0.00  0.00    +0.084 C 
ATOM     36  C   UNL     1      -2.020   4.241  -7.115  0.00  0.00    +0.096 C 
ENDBRANCH   3  31
TORSDOF 4
