REMARK  Name = ZINC13216427
REMARK  8 active torsions:
REMARK  status: ('A' for Active; 'I' for Inactive)
REMARK    1  A    between atoms: C_1  and  C_2
REMARK    2  A    between atoms: C_5  and  C_35
REMARK    3  A    between atoms: C_7  and  N_8
REMARK    4  A    between atoms: C_9  and  C_27
REMARK    5  A    between atoms: C_11  and  C_16
REMARK    6  A    between atoms: C_16  and  C_18
REMARK    7  A    between atoms: C_21  and  O_25
REMARK    8  A    between atoms: O_25  and  C_26
REMARK                            x       y       z     vdW  Elec       q    Type
REMARK                         _______ _______ _______ _____ _____    ______ ____
ROOT
ATOM      1  N   UNL     1      -0.063  -0.251   2.582  0.00  0.00    -0.253 N 
ATOM      2  C   UNL     1      -1.212   0.322   3.294  0.00  0.00    +0.152 C 
ATOM      3  C   UNL     1      -0.638   1.236   4.352  0.00  0.00    +0.077 C 
ATOM      4  C   UNL     1       0.709   1.173   4.233  0.00  0.00    +0.250 C 
ATOM      5  C   UNL     1       1.057   0.246   3.138  0.00  0.00    +0.292 C 
ATOM      6  O   UNL     1       2.189  -0.027   2.788  0.00  0.00    -0.266 OA
ATOM      7  O   UNL     1       1.595   1.849   5.000  0.00  0.00    -0.282 OA
ENDROOT
BRANCH   2   8
ATOM      8  C   UNL     1      -2.021  -0.774   3.938  0.00  0.00    +0.013 A 
ATOM      9  C   UNL     1      -3.396  -0.794   3.795  0.00  0.00    +0.011 A 
ATOM     10  C   UNL     1      -4.139  -1.798   4.385  0.00  0.00    +0.039 A 
ATOM     11  C   UNL     1      -3.507  -2.787   5.120  0.00  0.00    +0.126 A 
ATOM     12  C   UNL     1      -2.131  -2.769   5.264  0.00  0.00    +0.077 A 
ATOM     13  C   UNL     1      -1.387  -1.765   4.668  0.00  0.00    +0.131 A 
ATOM     14  F   UNL     1      -0.042  -1.749   4.804  0.00  0.00    -0.205 F 
ATOM     15  F   UNL     1      -4.234  -3.769   5.698  0.00  0.00    -0.205 F 
ENDBRANCH   2   8
BRANCH   1  22
ATOM     16  C   UNL     1      -0.409   0.788  -0.040  0.00  0.00    +0.045 C 
ATOM     17  C   UNL     1      -0.291  -0.692   0.219  0.00  0.00    -0.029 A 
ATOM     18  C   UNL     1      -0.344  -1.583  -0.837  0.00  0.00    +0.006 A 
ATOM     19  C   UNL     1      -0.237  -2.939  -0.609  0.00  0.00    +0.015 A 
ATOM     20  C   UNL     1      -0.074  -3.417   0.694  0.00  0.00    +0.065 A 
ATOM     21  C   UNL     1      -0.019  -2.518   1.761  0.00  0.00    +0.039 A 
ATOM     22  C   UNL     1      -0.122  -1.156   1.519  0.00  0.00    +0.041 A 
BRANCH  20  23
ATOM     23  C   UNL     1       0.041  -4.867   0.942  0.00  0.00    +0.387 C 
ATOM     24  O   UNL     1      -0.007  -5.653   0.006  0.00  0.00    -0.241 OA
ATOM     25  O   UNL     1       0.184  -5.283   2.083  0.00  0.00    -0.241 OA
ENDBRANCH  20  23
ENDBRANCH   1  22
BRANCH   3  26
ATOM     26  C   UNL     1      -1.395   2.037   5.319  0.00  0.00    +0.198 C 
ATOM     27  O   UNL     1      -1.318   1.788   6.508  0.00  0.00    -0.287 OA
BRANCH  26  28
ATOM     28  C   UNL     1      -2.249   3.145   4.852  0.00  0.00    +0.057 A 
ATOM     29  C   UNL     1      -2.255   3.504   3.500  0.00  0.00    +0.018 A 
ATOM     30  C   UNL     1      -3.053   4.538   3.068  0.00  0.00    +0.046 A 
ATOM     31  C   UNL     1      -3.854   5.228   3.973  0.00  0.00    +0.123 A 
ATOM     32  C   UNL     1      -3.853   4.877   5.317  0.00  0.00    +0.084 A 
ATOM     33  C   UNL     1      -3.061   3.837   5.759  0.00  0.00    +0.138 A 
ATOM     34  F   UNL     1      -3.065   3.491   7.065  0.00  0.00    -0.205 F 
BRANCH  31  35
ATOM     35  O   UNL     1      -4.638   6.247   3.541  0.00  0.00    -0.495 OA
ATOM     36  C   UNL     1      -5.436   6.913   4.522  0.00  0.00    +0.277 C 
ENDBRANCH  31  35
ENDBRANCH  26  28
ENDBRANCH   3  26
TORSDOF 6
