REMARK  Name = ZINC13501198
REMARK  9 active torsions:
REMARK  status: ('A' for Active; 'I' for Inactive)
REMARK    1  A    between atoms: C_1  and  C_2
REMARK    2  A    between atoms: C_2  and  C_3
REMARK    3  A    between atoms: C_3  and  C_5
REMARK    4  A    between atoms: C_3  and  N_66
REMARK    5  A    between atoms: N_9  and  C_10
REMARK    6  A    between atoms: C_10  and  C_11
REMARK    7  A    between atoms: C_17  and  C_18
REMARK    8  A    between atoms: C_17  and  N_66
REMARK    9  A    between atoms: C_33  and  N_66
REMARK                            x       y       z     vdW  Elec       q    Type
REMARK                         _______ _______ _______ _____ _____    ______ ____
ROOT
ATOM      1  N   UNL     1      -1.135   0.730   2.279  0.00  0.00    +0.391 N 
ATOM      2  H   UNL     1      -1.156   1.412   3.046  0.00  0.00    -0.080 HD
ENDROOT
BRANCH   1   3
ATOM      3  C   UNL     1      -0.065   1.107   1.331  0.00  0.00    -0.067 C 
ATOM      4  C   UNL     1      -0.456   2.396   0.566  0.00  0.00    -0.015 C 
ATOM      5  C   UNL     1       0.918   2.977   0.150  0.00  0.00    -0.002 C 
ATOM      6  C   UNL     1       1.831   2.691   1.360  0.00  0.00    -0.002 C 
ATOM      7  C   UNL     1       1.206   1.502   2.111  0.00  0.00    -0.015 C 
ENDBRANCH   1   3
BRANCH   1   8
ATOM      8  C   UNL     1      -2.444   0.738   1.592  0.00  0.00    +0.003 C 
BRANCH   8   9
ATOM      9  C   UNL     1      -2.435  -0.216   0.426  0.00  0.00    +0.138 A 
ATOM     10  N   UNL     1      -1.654  -1.258   0.273  0.00  0.00    -0.115 NA
ATOM     11  N   UNL     1      -1.952  -1.817  -0.849  0.00  0.00    -0.023 NA
ATOM     12  N   UNL     1      -2.902  -1.159  -1.415  0.00  0.00    -0.044 NA
ATOM     13  N   UNL     1      -3.231  -0.168  -0.658  0.00  0.00    -0.226 N 
BRANCH  13  14
ATOM     14  C   UNL     1      -4.274   0.825  -0.928  0.00  0.00    +0.182 C 
BRANCH  14  15
ATOM     15  C   UNL     1      -3.713   1.915  -1.805  0.00  0.00    -0.026 A 
ATOM     16  C   UNL     1      -3.218   3.074  -1.236  0.00  0.00    +0.005 A 
ATOM     17  C   UNL     1      -2.700   4.072  -2.040  0.00  0.00    +0.000 A 
ATOM     18  C   UNL     1      -2.686   3.915  -3.414  0.00  0.00    +0.000 A 
ATOM     19  C   UNL     1      -3.186   2.759  -3.983  0.00  0.00    +0.000 A 
ATOM     20  C   UNL     1      -3.700   1.759  -3.179  0.00  0.00    +0.005 A 
ENDBRANCH  14  15
ENDBRANCH  13  14
ENDBRANCH   8   9
BRANCH   8  22
ATOM     21  C   UNL     1      -3.538   1.289   3.769  0.00  0.00    +0.002 C 
ATOM     22  C   UNL     1      -3.529   0.320   2.586  0.00  0.00    -0.011 C 
ENDBRANCH   8  22
ENDBRANCH   1   8
BRANCH   1  23
ATOM     23  C   UNL     1      -0.865  -0.612   2.837  0.00  0.00    -0.036 C 
BRANCH  23  24
ATOM     24  C   UNL     1       0.186  -0.486   3.909  0.00  0.00    +0.001 A 
ATOM     25  C   UNL     1      -0.142   0.027   5.122  0.00  0.00    +0.017 A 
ATOM     26  C   UNL     1       0.900   0.130   6.143  0.00  0.00    +0.002 A 
ATOM     27  C   UNL     1       0.617   0.648   7.413  0.00  0.00    +0.059 A 
ATOM     28  C   UNL     1       1.620   0.736   8.353  0.00  0.00    +0.167 A 
ATOM     29  C   UNL     1       2.918   0.310   8.043  0.00  0.00    +0.168 A 
ATOM     30  C   UNL     1       3.206  -0.200   6.790  0.00  0.00    +0.075 A 
ATOM     31  C   UNL     1       2.206  -0.295   5.831  0.00  0.00    +0.053 A 
ATOM     32  N   UNL     1       2.475  -0.802   4.576  0.00  0.00    -0.322 N 
ATOM     33  H   UNL     1       3.375  -1.094   4.361  0.00  0.00    +0.169 HD
ATOM     34  C   UNL     1       1.509  -0.897   3.646  0.00  0.00    +0.251 A 
ATOM     35  O   UNL     1       1.784  -1.349   2.547  0.00  0.00    -0.268 OA
ATOM     36  O   UNL     1       3.709   0.503   9.137  0.00  0.00    -0.453 OA
ATOM     37  C   UNL     1       2.804   0.663  10.245  0.00  0.00    +0.466 C 
ATOM     38  O   UNL     1       1.609   1.192   9.640  0.00  0.00    -0.453 OA
ENDBRANCH  23  24
ENDBRANCH   1  23
TORSDOF 8
