REMARK  Name = ZINC33067841
REMARK  9 active torsions:
REMARK  status: ('A' for Active; 'I' for Inactive)
REMARK    1  A    between atoms: C_1  and  C_2
REMARK    2  A    between atoms: C_7  and  O_8
REMARK    3  A    between atoms: O_8  and  C_9
REMARK    4  A    between atoms: C_9  and  C_10
REMARK    5  A    between atoms: N_12  and  C_13
REMARK    6  A    between atoms: C_18  and  O_19
REMARK    7  A    between atoms: O_19  and  C_20
REMARK    8  A    between atoms: C_20  and  C_21
REMARK    9  A    between atoms: C_29  and  C_32
REMARK                            x       y       z     vdW  Elec       q    Type
REMARK                         _______ _______ _______ _____ _____    ______ ____
ROOT
ATOM      1  C   UNL     1      -3.871  -4.665   0.103  0.00  0.00    +0.076 A 
ATOM      2  C   UNL     1      -5.018  -3.884   0.112  0.00  0.00    +0.027 A 
ATOM      3  C   UNL     1      -6.260  -4.481   0.209  0.00  0.00    +0.002 A 
ATOM      4  C   UNL     1      -6.364  -5.857   0.297  0.00  0.00    +0.004 A 
ATOM      5  C   UNL     1      -5.226  -6.643   0.288  0.00  0.00    +0.047 A 
ATOM      6  C   UNL     1      -3.977  -6.051   0.187  0.00  0.00    +0.142 A 
ENDROOT
BRANCH   1   9
ATOM      7  C   UNL     1      -2.388  -2.866   0.586  0.00  0.00    +0.255 C 
ATOM      8  O   UNL     1      -3.300  -2.275   1.125  0.00  0.00    -0.272 OA
ATOM      9  N   UNL     1      -2.610  -4.061   0.004  0.00  0.00    -0.280 N 
ATOM     10  H   UNL     1      -1.802  -4.563  -0.548  0.00  0.00    +0.155 HD
BRANCH   7  11
ATOM     11  C   UNL     1      -1.007  -2.263   0.566  0.00  0.00    +0.324 C 
BRANCH  11  12
ATOM     12  O   UNL     1      -1.027  -1.004   1.242  0.00  0.00    -0.483 OA
BRANCH  12  19
ATOM     13  C   UNL     1      -1.046   1.490   2.568  0.00  0.00    +0.047 C 
ATOM     14  C   UNL     1       0.201   0.904   1.955  0.00  0.00    -0.009 A 
ATOM     15  C   UNL     1       1.396   1.594   2.027  0.00  0.00    +0.007 A 
ATOM     16  C   UNL     1       2.538   1.060   1.460  0.00  0.00    +0.000 A 
ATOM     17  C   UNL     1       2.488  -0.165   0.820  0.00  0.00    +0.004 A 
ATOM     18  C   UNL     1       1.296  -0.858   0.746  0.00  0.00    +0.046 A 
ATOM     19  C   UNL     1       0.147  -0.324   1.314  0.00  0.00    +0.124 A 
ENDBRANCH  12  19
ENDBRANCH  11  12
ENDBRANCH   7  11
ENDBRANCH   1   9
BRANCH   6  20
ATOM     20  O   UNL     1      -2.857  -6.822   0.173  0.00  0.00    -0.484 OA
BRANCH  20  21
ATOM     21  C   UNL     1      -3.042  -8.236   0.262  0.00  0.00    +0.284 C 
BRANCH  21  22
ATOM     22  C   UNL     1      -1.700  -8.921   0.232  0.00  0.00    +0.086 A 
ATOM     23  C   UNL     1      -1.256  -9.619   1.338  0.00  0.00    +0.097 A 
ATOM     24  C   UNL     1      -0.009 -10.252   1.284  0.00  0.00    +0.259 A 
ATOM     25  O   UNL     1       0.410 -10.880   2.244  0.00  0.00    -0.267 OA
ATOM     26  N   UNL     1       0.727 -10.152   0.156  0.00  0.00    -0.268 N 
ATOM     27  C   UNL     1       1.945 -10.756   0.090  0.00  0.00    +0.096 A 
ATOM     28  C   UNL     1       2.700 -10.670  -1.028  0.00  0.00    +0.019 A 
ATOM     29  C   UNL     1       2.234  -9.953  -2.139  0.00  0.00    +0.008 A 
ATOM     30  C   UNL     1       1.016  -9.343  -2.083  0.00  0.00    -0.008 A 
ATOM     31  C   UNL     1       0.245  -9.444  -0.910  0.00  0.00    +0.144 A 
ATOM     32  N   UNL     1      -0.945  -8.850  -0.853  0.00  0.00    -0.230 NA
ATOM     33  C   UNL     1       0.499  -8.568  -3.267  0.00  0.00    +0.047 C 
ENDBRANCH  21  22
ENDBRANCH  20  21
ENDBRANCH   6  20
TORSDOF 7
