REMARK  Name = ZINC41585000
REMARK  8 active torsions:
REMARK  status: ('A' for Active; 'I' for Inactive)
REMARK    1  A    between atoms: C_1  and  C_2
REMARK    2  A    between atoms: C_7  and  C_8
REMARK    3  A    between atoms: C_13  and  C_37
REMARK    4  A    between atoms: C_15  and  O_36
REMARK    5  A    between atoms: C_16  and  C_19
REMARK    6  A    between atoms: C_19  and  N_20
REMARK    7  A    between atoms: N_23  and  C_26
REMARK    8  A    between atoms: C_26  and  C_27
REMARK                            x       y       z     vdW  Elec       q    Type
REMARK                         _______ _______ _______ _____ _____    ______ ____
ROOT
ATOM      1  C   UNL     1       0.026   0.010   2.489  0.00  0.00    +0.058 C 
ATOM      2  C   UNL     1      -0.056  -0.677   3.655  0.00  0.00    +0.176 C 
ATOM      3  C   UNL     1      -0.174  -0.095   5.002  0.00  0.00    +0.232 C 
ATOM      4  O   UNL     1      -0.218   1.085   5.303  0.00  0.00    -0.283 OA
ATOM      5  C   UNL     1      -0.227  -1.259   5.904  0.00  0.00    +0.071 A 
ATOM      6  C   UNL     1      -0.335  -1.389   7.290  0.00  0.00    -0.033 A 
ATOM      7  C   UNL     1      -0.359  -2.631   7.857  0.00  0.00    +0.050 A 
ATOM      8  C   UNL     1      -0.276  -3.768   7.057  0.00  0.00    +0.122 A 
ATOM      9  C   UNL     1      -0.168  -3.654   5.681  0.00  0.00    +0.020 A 
ATOM     10  C   UNL     1      -0.142  -2.398   5.087  0.00  0.00    +0.145 A 
ATOM     11  O   UNL     1      -0.050  -2.024   3.792  0.00  0.00    -0.451 OA
ATOM     12  C   UNL     1      -0.425  -0.160   8.158  0.00  0.00    +0.045 C 
ENDROOT
BRANCH   1  19
ATOM     13  C   UNL     1      -0.567   1.443   0.046  0.00  0.00    +0.044 C 
ATOM     14  C   UNL     1      -0.262  -0.033   0.019  0.00  0.00    -0.043 A 
ATOM     15  C   UNL     1      -0.258  -0.716  -1.179  0.00  0.00    +0.004 A 
ATOM     16  C   UNL     1       0.021  -2.071  -1.205  0.00  0.00    +0.000 A 
ATOM     17  C   UNL     1       0.298  -2.752  -0.032  0.00  0.00    +0.001 A 
ATOM     18  C   UNL     1       0.298  -2.084   1.174  0.00  0.00    +0.008 A 
ATOM     19  C   UNL     1       0.022  -0.712   1.209  0.00  0.00    -0.019 A 
ENDBRANCH   1  19
BRANCH   8  20
ATOM     20  O   UNL     1      -0.301  -4.997   7.631  0.00  0.00    -0.506 OA
ATOM     21  H   UNL     1      -1.189  -5.369   7.727  0.00  0.00    +0.292 HD
ENDBRANCH   8  20
BRANCH   9  22
ATOM     22  C   UNL     1      -0.077  -4.893   4.827  0.00  0.00    -0.035 C 
BRANCH  22  23
ATOM     23  N   UNL     1      -1.428  -5.319   4.439  0.00  0.00    +0.384 N 
ATOM     24  C   UNL     1      -2.036  -4.296   3.579  0.00  0.00    -0.063 C 
ATOM     25  C   UNL     1      -3.451  -4.731   3.189  0.00  0.00    +0.066 C 
ATOM     26  N   UNL     1      -3.387  -6.017   2.480  0.00  0.00    -0.302 NA
ATOM     27  C   UNL     1      -2.757  -7.046   3.321  0.00  0.00    +0.066 C 
ATOM     28  C   UNL     1      -1.349  -6.591   3.709  0.00  0.00    -0.063 C 
ATOM     29  H   UNL     1      -1.993  -5.441   5.266  0.00  0.00    -0.081 HD
BRANCH  26  30
ATOM     30  C   UNL     1      -4.722  -6.442   2.039  0.00  0.00    +0.119 C 
BRANCH  30  31
ATOM     31  C   UNL     1      -4.593  -7.624   1.113  0.00  0.00    -0.030 A 
ATOM     32  C   UNL     1      -4.455  -7.422  -0.247  0.00  0.00    +0.009 A 
ATOM     33  C   UNL     1      -4.335  -8.503  -1.101  0.00  0.00    +0.050 A 
ATOM     34  C   UNL     1      -4.354  -9.792  -0.594  0.00  0.00    +0.166 A 
ATOM     35  C   UNL     1      -4.493  -9.995   0.777  0.00  0.00    +0.167 A 
ATOM     36  C   UNL     1      -4.607  -8.907   1.627  0.00  0.00    +0.054 A 
ATOM     37  O   UNL     1      -4.484 -11.338   1.022  0.00  0.00    -0.453 OA
ATOM     38  C   UNL     1      -4.747 -11.963  -0.248  0.00  0.00    +0.466 C 
ATOM     39  O   UNL     1      -4.257 -11.008  -1.207  0.00  0.00    -0.453 OA
ENDBRANCH  30  31
ENDBRANCH  26  30
ENDBRANCH  22  23
ENDBRANCH   9  22
TORSDOF 6
