REMARK  Name = ZINC21983223
REMARK  7 active torsions:
REMARK  status: ('A' for Active; 'I' for Inactive)
REMARK    1  A    between atoms: C_1  and  C_2
REMARK    2  A    between atoms: C_2  and  C_3
REMARK    3  A    between atoms: C_2  and  C_4
REMARK    4  A    between atoms: C_2  and  C_5
REMARK    5  A    between atoms: C_7  and  O_22
REMARK    6  A    between atoms: C_9  and  N_12
REMARK    7  A    between atoms: C_10  and  O_11
REMARK                            x       y       z     vdW  Elec       q    Type
REMARK                         _______ _______ _______ _____ _____    ______ ____
ROOT
ATOM      1  C   UNL     1       0.000   1.080   2.488  0.00  0.00    +0.005 A 
ATOM      2  C   UNL     1       1.131   0.296   2.345  0.00  0.00    +0.053 A 
ATOM      3  C   UNL     1       1.807  -0.161   3.466  0.00  0.00    +0.119 A 
ATOM      4  C   UNL     1       1.344   0.158   4.734  0.00  0.00    +0.076 A 
ATOM      5  C   UNL     1       0.208   0.940   4.880  0.00  0.00    +0.122 A 
ATOM      6  C   UNL     1      -0.466   1.402   3.751  0.00  0.00    +0.145 A 
ENDROOT
BRANCH   5   7
ATOM      7  N   UNL     1      -0.262   1.263   6.158  0.00  0.00    -0.107 N 
ATOM      8  N   UNL     1      -0.141   1.181   7.551  0.00  0.00    -0.156 N 
ATOM      9  N   UNL     1      -1.193   1.910   6.981  0.00  0.00    -0.156 N 
ATOM     10  C   UNL     1      -0.817   3.031   7.723  0.00  0.00    +0.112 A 
ATOM     11  C   UNL     1       0.234   2.310   8.290  0.00  0.00    +0.111 A 
ATOM     12  C   UNL     1       1.075   2.923   9.205  0.00  0.00    +0.033 A 
ATOM     13  C   UNL     1       0.872   4.246   9.554  0.00  0.00    +0.022 A 
ATOM     14  C   UNL     1      -0.170   4.961   8.992  0.00  0.00    +0.043 A 
ATOM     15  C   UNL     1      -1.015   4.356   8.077  0.00  0.00    +0.051 A 
ATOM     16 CL   UNL     1      -0.419   6.621   9.434  0.00  0.00    -0.083 Cl
ENDBRANCH   5   7
BRANCH   1  18
ATOM     17  C   UNL     1      -0.013   1.086   0.008  0.00  0.00    +0.015 C 
ATOM     18  C   UNL     1      -0.729   1.579   1.267  0.00  0.00    -0.009 C 
ATOM     19  C   UNL     1      -0.750   3.109   1.275  0.00  0.00    +0.015 C 
ATOM     20  C   UNL     1      -2.164   1.050   1.278  0.00  0.00    +0.015 C 
ENDBRANCH   1  18
BRANCH   6  21
ATOM     21  O   UNL     1      -1.582   2.168   3.890  0.00  0.00    -0.504 OA
ATOM     22  H   UNL     1      -1.952   2.424   4.894  0.00  0.00    +0.292 HD
ENDBRANCH   6  21
BRANCH   3  23
ATOM     23  O   UNL     1       2.921  -0.927   3.322  0.00  0.00    -0.507 OA
ATOM     24  H   UNL     1       3.458  -1.289   4.211  0.00  0.00    +0.292 HD
ENDBRANCH   3  23
TORSDOF 4
