REMARK  Name = ZINC19863627
REMARK  9 active torsions:
REMARK  status: ('A' for Active; 'I' for Inactive)
REMARK    1  A    between atoms: C_1  and  C_2
REMARK    2  A    between atoms: C_7  and  C_8
REMARK    3  A    between atoms: N_9  and  N_10
REMARK    4  A    between atoms: C_11  and  C_13
REMARK    5  A    between atoms: C_13  and  O_14
REMARK    6  A    between atoms: O_14  and  C_15
REMARK    7  A    between atoms: C_17  and  C_33
REMARK    8  A    between atoms: C_20  and  C_21
REMARK    9  A    between atoms: N_25  and  C_26
REMARK                            x       y       z     vdW  Elec       q    Type
REMARK                         _______ _______ _______ _____ _____    ______ ____
ROOT
ATOM      1  C   UNL     1      -9.253   0.815  -1.537  0.00  0.00    +0.131 A 
ATOM      2  C   UNL     1      -9.306  -0.559  -1.704  0.00  0.00    +0.051 A 
ATOM      3  C   UNL     1     -10.525  -1.212  -1.694  0.00  0.00    -0.029 A 
ATOM      4  C   UNL     1     -11.699  -0.498  -1.516  0.00  0.00    +0.045 A 
ATOM      5  C   UNL     1     -11.661   0.872  -1.348  0.00  0.00    +0.034 A 
ATOM      6  C   UNL     1     -10.436   1.539  -1.352  0.00  0.00    +0.044 A 
ATOM      7 CL   UNL     1     -13.223  -1.329  -1.504  0.00  0.00    -0.083 Cl
ATOM      8  C   UNL     1     -10.577  -2.707  -1.876  0.00  0.00    +0.045 C 
ENDROOT
BRANCH   6   9
ATOM      9  C   UNL     1     -10.388   3.005  -1.166  0.00  0.00    +0.078 A 
ATOM     10  C   UNL     1      -9.566   3.688  -0.314  0.00  0.00    +0.050 A 
ATOM     11  C   UNL     1      -9.843   5.049  -0.451  0.00  0.00    +0.135 A 
ATOM     12  N   UNL     1     -10.790   5.196  -1.343  0.00  0.00    -0.174 NA
ATOM     13  N   UNL     1     -11.153   3.929  -1.819  0.00  0.00    -0.232 N 
BRANCH  13  14
ATOM     14  C   UNL     1     -12.128   3.659  -2.788  0.00  0.00    +0.066 A 
ATOM     15  C   UNL     1     -11.882   2.719  -3.780  0.00  0.00    +0.028 A 
ATOM     16  C   UNL     1     -12.847   2.451  -4.730  0.00  0.00    +0.002 A 
ATOM     17  C   UNL     1     -14.053   3.126  -4.702  0.00  0.00    +0.000 A 
ATOM     18  C   UNL     1     -14.300   4.067  -3.719  0.00  0.00    +0.002 A 
ATOM     19  C   UNL     1     -13.341   4.335  -2.763  0.00  0.00    +0.028 A 
ENDBRANCH  13  14
ENDBRANCH   6   9
BRANCH   1  20
ATOM     20  O   UNL     1      -8.055   1.456  -1.546  0.00  0.00    -0.482 OA
BRANCH  20  21
ATOM     21  C   UNL     1      -6.889   0.651  -1.734  0.00  0.00    +0.326 C 
BRANCH  21  23
ATOM     22  N   UNL     1      -4.442   0.983  -1.876  0.00  0.00    -0.204 N 
ATOM     23  C   UNL     1      -5.665   1.529  -1.717  0.00  0.00    +0.270 C 
ATOM     24  O   UNL     1      -5.779   2.726  -1.559  0.00  0.00    -0.270 OA
ATOM     25  H   UNL     1      -4.339  -0.102  -2.020  0.00  0.00    +0.177 HD
BRANCH  22  27
ATOM     26  C   UNL     1      -2.127   1.274  -2.014  0.00  0.00    +0.138 C 
ATOM     27  N   UNL     1      -3.304   1.799  -1.860  0.00  0.00    -0.188 NA
BRANCH  26  34
ATOM     28  C   UNL     1      -2.394   4.086  -1.388  0.00  0.00    +0.044 C 
ATOM     29  C   UNL     1      -1.043   3.492  -1.696  0.00  0.00    -0.042 A 
ATOM     30  C   UNL     1       0.082   4.291  -1.687  0.00  0.00    +0.004 A 
ATOM     31  C   UNL     1       1.322   3.748  -1.969  0.00  0.00    +0.000 A 
ATOM     32  C   UNL     1       1.444   2.400  -2.262  0.00  0.00    +0.001 A 
ATOM     33  C   UNL     1       0.329   1.590  -2.274  0.00  0.00    +0.010 A 
ATOM     34  C   UNL     1      -0.928   2.133  -1.996  0.00  0.00    -0.003 A 
ENDBRANCH  26  34
ENDBRANCH  22  27
ENDBRANCH  21  23
ENDBRANCH  20  21
ENDBRANCH   1  20
TORSDOF 7
