REMARK  Name = ZINC15103825
REMARK  10 active torsions:
REMARK  status: ('A' for Active; 'I' for Inactive)
REMARK    1  A    between atoms: C_1  and  C_2
REMARK    2  A    between atoms: C_3  and  N_14
REMARK    3  A    between atoms: C_4  and  C_13
REMARK    4  A    between atoms: N_5  and  C_7
REMARK    5  A    between atoms: C_15  and  C_17
REMARK    6  A    between atoms: C_17  and  N_65
REMARK    7  A    between atoms: C_18  and  N_65
REMARK    8  A    between atoms: C_19  and  C_20
REMARK    9  A    between atoms: C_19  and  N_65
REMARK   10  A    between atoms: C_25  and  N_26
REMARK                            x       y       z     vdW  Elec       q    Type
REMARK                         _______ _______ _______ _____ _____    ______ ____
ROOT
ATOM      1  N   UNL     1       2.032   6.894   0.752  0.00  0.00    -0.284 N 
ATOM      2  C   UNL     1       1.425   8.067   1.020  0.00  0.00    +0.201 C 
ATOM      3  O   UNL     1       0.215   8.125   1.077  0.00  0.00    -0.278 OA
ATOM      4  H   UNL     1       3.000   6.836   0.760  0.00  0.00    +0.155 HD
ENDROOT
BRANCH   1   7
ATOM      5  C   UNL     1      -0.686   6.943  -0.769  0.00  0.00    +0.069 C 
ATOM      6  C   UNL     1       0.034   5.738  -0.221  0.00  0.00    +0.082 A 
ATOM      7  C   UNL     1       1.261   5.754   0.461  0.00  0.00    +0.078 A 
ATOM      8  C   UNL     1       1.568   4.474   0.794  0.00  0.00    +0.063 A 
ATOM      9  N   UNL     1       0.568   3.678   0.328  0.00  0.00    -0.235 N 
ATOM     10  N   UNL     1      -0.378   4.498  -0.299  0.00  0.00    -0.170 NA
ATOM     11  C   UNL     1       2.794   4.019   1.543  0.00  0.00    +0.068 C 
BRANCH   9  12
ATOM     12  C   UNL     1       0.495   2.284   0.457  0.00  0.00    +0.066 A 
ATOM     13  C   UNL     1      -0.734   1.665   0.640  0.00  0.00    +0.028 A 
ATOM     14  C   UNL     1      -0.803   0.292   0.767  0.00  0.00    +0.002 A 
ATOM     15  C   UNL     1       0.351  -0.468   0.711  0.00  0.00    +0.000 A 
ATOM     16  C   UNL     1       1.578   0.145   0.529  0.00  0.00    +0.002 A 
ATOM     17  C   UNL     1       1.653   1.519   0.402  0.00  0.00    +0.028 A 
ENDBRANCH   9  12
ENDBRANCH   1   7
BRANCH   2  18
ATOM     18  C   UNL     1       2.251   9.307   1.249  0.00  0.00    +0.019 C 
BRANCH  18  20
ATOM     19  C   UNL     1       0.645  10.262   2.790  0.00  0.00    -0.095 C 
ATOM     20  N   UNL     1       1.342  10.446   1.500  0.00  0.00    +0.386 N 
ATOM     21  H   UNL     1       0.644  10.487   0.747  0.00  0.00    -0.081 HD
BRANCH  20  22
ATOM     22  C   UNL     1       2.107  11.710   1.514  0.00  0.00    -0.041 C 
BRANCH  22  23
ATOM     23  C   UNL     1       1.143  12.861   1.393  0.00  0.00    -0.043 A 
ATOM     24  C   UNL     1       0.857  13.643   2.495  0.00  0.00    +0.003 A 
ATOM     25  C   UNL     1      -0.024  14.703   2.383  0.00  0.00    +0.000 A 
ATOM     26  C   UNL     1      -0.631  14.977   1.171  0.00  0.00    +0.002 A 
ATOM     27  C   UNL     1      -0.354  14.196   0.066  0.00  0.00    +0.023 A 
ATOM     28  C   UNL     1       0.535  13.134   0.174  0.00  0.00    +0.031 A 
BRANCH  28  29
ATOM     29  N   UNL     1       0.818  12.342  -0.942  0.00  0.00    -0.330 N 
ATOM     30  C   UNL     1       1.513  13.118  -1.976  0.00  0.00    +0.105 C 
ATOM     31  C   UNL     1       1.934  12.188  -3.116  0.00  0.00    +0.019 C 
ATOM     32  C   UNL     1       0.691  11.516  -3.706  0.00  0.00    +0.003 C 
ATOM     33  C   UNL     1      -0.042  10.754  -2.598  0.00  0.00    +0.019 C 
ATOM     34  C   UNL     1      -0.405  11.725  -1.472  0.00  0.00    +0.105 C 
ENDBRANCH  28  29
ENDBRANCH  22  23
ENDBRANCH  20  22
ENDBRANCH  18  20
ENDBRANCH   2  18
TORSDOF 7
