REMARK  Name = ZINC35840879
REMARK  16 active torsions:
REMARK  status: ('A' for Active; 'I' for Inactive)
REMARK    1  A    between atoms: C_1  and  C_2
REMARK    2  A    between atoms: C_7  and  O_8
REMARK    3  A    between atoms: O_8  and  C_9
REMARK    4  A    between atoms: C_9  and  C_10
REMARK    5  A    between atoms: C_10  and  C_12
REMARK    6  A    between atoms: C_10  and  O_35
REMARK    7  A    between atoms: C_12  and  N_13
REMARK    8  A    between atoms: N_13  and  C_14
REMARK    9  A    between atoms: N_13  and  C_31
REMARK   10  A    between atoms: C_14  and  C_15
REMARK   11  A    between atoms: N_19  and  C_20
REMARK   12  A    between atoms: C_20  and  C_21
REMARK   13  A    between atoms: C_25  and  C_27
REMARK   14  A    between atoms: C_31  and  C_32
REMARK   15  A    between atoms: C_32  and  C_33
REMARK   16  A    between atoms: C_32  and  C_34
REMARK                            x       y       z     vdW  Elec       q    Type
REMARK                         _______ _______ _______ _____ _____    ______ ____
ROOT
ATOM      1  N   UNL     1      -0.351   0.800   8.314  0.00  0.00    +0.385 N 
ATOM      2  H   UNL     1       0.242   1.523   8.693  0.00  0.00    -0.081 HD
ENDROOT
BRANCH   1   3
ATOM      3  C   UNL     1      -0.265   0.814   6.848  0.00  0.00    -0.043 C 
BRANCH   3   4
ATOM      4  C   UNL     1      -0.374   2.255   6.344  0.00  0.00    +0.135 C 
BRANCH   4   5
ATOM      5  O   UNL     1      -1.690   2.750   6.600  0.00  0.00    -0.390 OA
ATOM      6  H   UNL     1      -2.392   2.243   6.169  0.00  0.00    +0.210 HD
ENDBRANCH   4   5
BRANCH   4   7
ATOM      7  C   UNL     1      -0.099   2.291   4.840  0.00  0.00    +0.258 C 
BRANCH   7   8
ATOM      8  O   UNL     1      -0.086   3.648   4.391  0.00  0.00    -0.489 OA
BRANCH   8  15
ATOM      9  C   UNL     1      -0.057   6.323   3.483  0.00  0.00    +0.047 C 
ATOM     10  C   UNL     1       0.173   5.150   2.565  0.00  0.00    -0.009 A 
ATOM     11  C   UNL     1       0.416   5.362   1.221  0.00  0.00    +0.007 A 
ATOM     12  C   UNL     1       0.627   4.286   0.378  0.00  0.00    +0.000 A 
ATOM     13  C   UNL     1       0.596   2.997   0.877  0.00  0.00    +0.004 A 
ATOM     14  C   UNL     1       0.353   2.780   2.220  0.00  0.00    +0.046 A 
ATOM     15  C   UNL     1       0.147   3.858   3.069  0.00  0.00    +0.124 A 
ENDBRANCH   8  15
ENDBRANCH   7   8
ENDBRANCH   4   7
ENDBRANCH   3   4
ENDBRANCH   1   3
BRANCH   1  16
ATOM     16  C   UNL     1       0.089  -0.508   8.818  0.00  0.00    -0.024 C 
BRANCH  16  17
ATOM     17  C   UNL     1       0.161  -0.469  10.323  0.00  0.00    +0.003 A 
ATOM     18  C   UNL     1      -0.820  -0.840  11.171  0.00  0.00    +0.021 A 
ATOM     19  C   UNL     1      -0.340  -0.645  12.481  0.00  0.00    +0.019 A 
ATOM     20  C   UNL     1       0.915  -0.161  12.384  0.00  0.00    +0.086 A 
ATOM     21  N   UNL     1       1.230  -0.057  11.062  0.00  0.00    -0.348 N 
BRANCH  21  22
ATOM     22  C   UNL     1       2.505   0.423  10.523  0.00  0.00    +0.156 C 
BRANCH  22  23
ATOM     23  C   UNL     1       2.430   1.912  10.305  0.00  0.00    -0.027 A 
ATOM     24  C   UNL     1       2.234   2.415   9.032  0.00  0.00    +0.005 A 
ATOM     25  C   UNL     1       2.165   3.781   8.832  0.00  0.00    +0.001 A 
ATOM     26  C   UNL     1       2.291   4.644   9.904  0.00  0.00    +0.012 A 
ATOM     27  C   UNL     1       2.486   4.142  11.177  0.00  0.00    +0.055 A 
ATOM     28  C   UNL     1       2.551   2.775  11.378  0.00  0.00    +0.017 A 
BRANCH  27  29
ATOM     29  C   UNL     1       2.625   5.083  12.346  0.00  0.00    +0.417 C 
ATOM     30  F   UNL     1       2.522   6.403  11.896  0.00  0.00    -0.166 F 
ATOM     31  F   UNL     1       1.610   4.826  13.274  0.00  0.00    -0.166 F 
ATOM     32  F   UNL     1       3.871   4.892  12.953  0.00  0.00    -0.166 F 
ENDBRANCH  27  29
ENDBRANCH  22  23
ENDBRANCH  21  22
ENDBRANCH  16  17
ENDBRANCH   1  16
BRANCH   1  33
ATOM     33  C   UNL     1      -1.740   1.041   8.726  0.00  0.00    -0.075 C 
BRANCH  33  34
ATOM     34  C   UNL     1      -1.754   1.783  10.064  0.00  0.00    -0.034 C 
ATOM     35  C   UNL     1      -1.172   3.185   9.876  0.00  0.00    +0.005 C 
ATOM     36  C   UNL     1      -3.194   1.893  10.570  0.00  0.00    +0.005 C 
ENDBRANCH  33  34
ENDBRANCH   1  33
TORSDOF 13
