REMARK  Name = ZINC01895916
REMARK  8 active torsions:
REMARK  status: ('A' for Active; 'I' for Inactive)
REMARK    1  A    between atoms: C_1  and  C_2
REMARK    2  A    between atoms: C_2  and  O_3
REMARK    3  A    between atoms: O_3  and  C_4
REMARK    4  A    between atoms: C_4  and  C_6
REMARK    5  A    between atoms: C_10  and  N_11
REMARK    6  A    between atoms: C_12  and  C_14
REMARK    7  A    between atoms: C_14  and  S_15
REMARK    8  A    between atoms: S_15  and  C_16
REMARK                            x       y       z     vdW  Elec       q    Type
REMARK                         _______ _______ _______ _____ _____    ______ ____
ROOT
ATOM      1  N   UNL     1      -0.288   1.272  -2.443  0.00  0.00    -0.279 N 
ATOM      2  C   UNL     1      -0.742   1.585  -1.213  0.00  0.00    +0.228 C 
ATOM      3  O   UNL     1      -1.736   2.268  -1.088  0.00  0.00    -0.275 OA
ATOM      4  H   UNL     1       0.507   0.726  -2.543  0.00  0.00    +0.155 HD
ENDROOT
BRANCH   1   9
ATOM      5  C   UNL     1      -0.648   1.523  -4.901  0.00  0.00    +0.091 A 
ATOM      6  C   UNL     1      -1.527   2.114  -5.902  0.00  0.00    -0.021 A 
ATOM      7  C   UNL     1      -2.558   2.829  -5.403  0.00  0.00    -0.004 A 
ATOM      8  S   UNL     1      -2.385   2.712  -3.643  0.00  0.00    -0.077 S 
ATOM      9  C   UNL     1      -0.959   1.732  -3.566  0.00  0.00    +0.086 A 
ATOM     10  C   UNL     1      -3.610   3.572  -6.165  0.00  0.00    +0.043 C 
ATOM     11  C   UNL     1      -4.187   2.658  -7.255  0.00  0.00    +0.005 C 
ATOM     12  C   UNL     1      -3.354   2.833  -8.521  0.00  0.00    +0.001 C 
ATOM     13  C   UNL     1      -1.898   3.117  -8.158  0.00  0.00    +0.005 C 
ATOM     14  C   UNL     1      -1.299   1.938  -7.398  0.00  0.00    +0.037 C 
BRANCH   5  15
ATOM     15  C   UNL     1       0.521   0.732  -5.292  0.00  0.00    +0.342 C 
ATOM     16  O   UNL     1       0.416  -0.468  -5.456  0.00  0.00    -0.245 OA
BRANCH  15  17
ATOM     17  O   UNL     1       1.715   1.336  -5.470  0.00  0.00    -0.461 OA
BRANCH  17  19
ATOM     18  C   UNL     1       4.089   1.345  -6.011  0.00  0.00    +0.048 C 
ATOM     19  C   UNL     1       2.830   0.490  -5.857  0.00  0.00    +0.229 C 
ENDBRANCH  17  19
ENDBRANCH  15  17
ENDBRANCH   5  15
ENDBRANCH   1   9
BRANCH   2  20
ATOM     20  C   UNL     1      -0.013   1.086   0.008  0.00  0.00    +0.172 C 
BRANCH  20  21
ATOM     21  S   UNL     1      -0.860   1.669   1.497  0.00  0.00    -0.096 S 
BRANCH  21  22
ATOM     22  C   UNL     1       0.174   0.961   2.735  0.00  0.00    +0.109 A 
ATOM     23  C   UNL     1      -0.113   1.159   4.115  0.00  0.00    +0.043 A 
ATOM     24  C   UNL     1      -1.209   1.914   4.724  0.00  0.00    -0.025 A 
ATOM     25  C   UNL     1      -1.255   1.947   6.072  0.00  0.00    -0.004 A 
ATOM     26  S   UNL     1       0.139   0.989   6.605  0.00  0.00    -0.073 S 
ATOM     27  C   UNL     1       0.783   0.545   5.013  0.00  0.00    +0.113 A 
ATOM     28  N   UNL     1       1.811  -0.162   4.587  0.00  0.00    -0.228 NA
ATOM     29  C   UNL     1       2.026  -0.311   3.294  0.00  0.00    +0.223 A 
ATOM     30  N   UNL     1       1.226   0.232   2.394  0.00  0.00    -0.229 NA
ATOM     31  C   UNL     1      -2.266   2.644   6.929  0.00  0.00    +0.043 C 
ATOM     32  C   UNL     1      -3.044   3.636   6.051  0.00  0.00    +0.005 C 
ATOM     33  C   UNL     1      -3.482   2.918   4.771  0.00  0.00    +0.005 C 
ATOM     34  C   UNL     1      -2.263   2.638   3.891  0.00  0.00    +0.037 C 
ENDBRANCH  21  22
ENDBRANCH  20  21
ENDBRANCH   2  20
TORSDOF 7
