REMARK  Name = ZINC24105489
REMARK  14 active torsions:
REMARK  status: ('A' for Active; 'I' for Inactive)
REMARK    1  A    between atoms: C_1  and  C_2
REMARK    2  A    between atoms: C_2  and  C_4
REMARK    3  A    between atoms: C_2  and  N_30
REMARK    4  A    between atoms: C_7  and  S_16
REMARK    5  A    between atoms: N_8  and  C_9
REMARK    6  A    between atoms: S_16  and  C_17
REMARK    7  A    between atoms: C_17  and  C_18
REMARK    8  A    between atoms: N_20  and  C_21
REMARK    9  A    between atoms: C_23  and  C_26
REMARK   10  A    between atoms: C_26  and  C_27
REMARK   11  A    between atoms: C_26  and  C_28
REMARK   12  A    between atoms: C_26  and  C_29
REMARK   13  A    between atoms: N_30  and  C_31
REMARK   14  A    between atoms: N_30  and  C_32
REMARK                            x       y       z     vdW  Elec       q    Type
REMARK                         _______ _______ _______ _____ _____    ______ ____
ROOT
ATOM      1  C   UNL     1      -6.081   2.682   0.044  0.00  0.00    +0.125 A 
ATOM      2  N   UNL     1      -5.205   3.647   0.045  0.00  0.00    -0.135 NA
ATOM      3  N   UNL     1      -4.014   3.163   0.038  0.00  0.00    -0.122 NA
ATOM      4  C   UNL     1      -4.064   1.851   0.031  0.00  0.00    +0.197 A 
ATOM      5  N   UNL     1      -5.387   1.501   0.030  0.00  0.00    -0.275 N 
ENDROOT
BRANCH   5   6
ATOM      6  C   UNL     1      -5.921   0.204   0.020  0.00  0.00    +0.050 A 
ATOM      7  C   UNL     1      -6.661  -0.234  -1.070  0.00  0.00    +0.028 A 
ATOM      8  C   UNL     1      -7.182  -1.513  -1.080  0.00  0.00    +0.022 A 
ATOM      9  C   UNL     1      -6.975  -2.354  -0.001  0.00  0.00    +0.041 A 
ATOM     10  C   UNL     1      -6.242  -1.918   1.089  0.00  0.00    +0.022 A 
ATOM     11  C   UNL     1      -5.715  -0.641   1.101  0.00  0.00    +0.028 A 
ATOM     12 CL   UNL     1      -7.636  -3.959  -0.014  0.00  0.00    -0.084 Cl
ENDBRANCH   5   6
BRANCH   1  14
ATOM     13  C   UNL     1      -8.056   3.268  -1.337  0.00  0.00    -0.005 C 
ATOM     14  C   UNL     1      -7.580   2.837   0.052  0.00  0.00    -0.003 C 
BRANCH  14  15
ATOM     15  N   UNL     1      -7.962   3.857   1.038  0.00  0.00    +0.382 N 
ATOM     16  C   UNL     1      -9.419   4.035   1.074  0.00  0.00    -0.096 C 
ATOM     17  C   UNL     1      -7.440   3.522   2.370  0.00  0.00    -0.096 C 
ATOM     18  H   UNL     1      -7.512   4.812   0.729  0.00  0.00    -0.082 HD
ENDBRANCH  14  15
ENDBRANCH   1  14
BRANCH   4  19
ATOM     19  S   UNL     1      -2.689   0.750   0.019  0.00  0.00    -0.076 S 
BRANCH  19  20
ATOM     20  C   UNL     1      -1.330   1.944   0.019  0.00  0.00    +0.173 C 
BRANCH  20  21
ATOM     21  C   UNL     1      -0.014   1.209   0.009  0.00  0.00    +0.230 C 
ATOM     22  O   UNL     1       0.002  -0.004   0.002  0.00  0.00    -0.274 OA
ATOM     23  N   UNL     1       1.143   1.898   0.001  0.00  0.00    -0.254 N 
ATOM     24  H   UNL     1       1.129   2.998   0.007  0.00  0.00    +0.158 HD
BRANCH  23  25
ATOM     25  C   UNL     1       2.354   1.221  -0.014  0.00  0.00    +0.224 A 
ATOM     26  C   UNL     1       3.602   1.774  -0.023  0.00  0.00    +0.092 A 
ATOM     27  C   UNL     1       4.467   0.661  -0.036  0.00  0.00    +0.091 A 
ATOM     28  N   UNL     1       3.707  -0.398  -0.034  0.00  0.00    -0.081 NA
ATOM     29  O   UNL     1       2.533  -0.109  -0.017  0.00  0.00    -0.339 OA
BRANCH  27  30
ATOM     30  C   UNL     1       5.973   0.689  -0.050  0.00  0.00    +0.008 C 
ATOM     31  C   UNL     1       6.489   1.065   1.341  0.00  0.00    +0.017 C 
ATOM     32  C   UNL     1       6.506  -0.692  -0.435  0.00  0.00    +0.017 C 
ATOM     33  C   UNL     1       6.455   1.724  -1.069  0.00  0.00    +0.017 C 
ENDBRANCH  27  30
ENDBRANCH  23  25
ENDBRANCH  20  21
ENDBRANCH  19  20
ENDBRANCH   4  19
TORSDOF 8
