REMARK  Name = ZINC12864561
REMARK  5 active torsions:
REMARK  status: ('A' for Active; 'I' for Inactive)
REMARK    1  A    between atoms: C_1  and  C_2
REMARK    2  A    between atoms: C_5  and  N_9
REMARK    3  A    between atoms: C_6  and  C_8
REMARK    4  A    between atoms: C_26  and  C_34
REMARK    5  A    between atoms: C_28  and  C_33
REMARK                            x       y       z     vdW  Elec       q    Type
REMARK                         _______ _______ _______ _____ _____    ______ ____
ROOT
ATOM      1  N   UNL     1      -1.655   2.227   1.054  0.00  0.00    -0.210 N 
ATOM      2  C   UNL     1      -0.909   1.297   1.694  0.00  0.00    +0.228 C 
ATOM      3  O   UNL     1      -0.984   1.008   2.869  0.00  0.00    -0.275 OA
ATOM      4  C   UNL     1       0.036   0.666   0.697  0.00  0.00    +0.074 C 
ATOM      5  C   UNL     1       1.484   1.057   1.047  0.00  0.00    -0.054 C 
ATOM      6  C   UNL     1       1.570   1.405   2.544  0.00  0.00    -0.016 C 
ATOM      7  C   UNL     1       1.314   2.949   2.599  0.00  0.00    -0.020 C 
ATOM      8  C   UNL     1       1.071   3.375   1.137  0.00  0.00    -0.076 C 
ATOM      9  C   UNL     1       1.010   2.174  -0.960  0.00  0.00    +0.053 C 
ATOM     10  C   UNL     1      -0.276   1.406  -0.632  0.00  0.00    +0.089 C 
ATOM     11  C   UNL     1      -1.377   2.367  -0.247  0.00  0.00    +0.229 C 
ATOM     12  O   UNL     1      -1.923   3.145  -1.000  0.00  0.00    -0.275 OA
ATOM     13  C   UNL     1       0.707   3.504  -1.592  0.00  0.00    -0.027 A 
ATOM     14  C   UNL     1      -0.003   4.609  -1.178  0.00  0.00    +0.008 A 
ATOM     15  C   UNL     1      -0.107   5.714  -2.004  0.00  0.00    -0.050 A 
ATOM     16  C   UNL     1       0.504   5.705  -3.245  0.00  0.00    +0.008 A 
ATOM     17  C   UNL     1       1.215   4.600  -3.663  0.00  0.00    -0.029 A 
ATOM     18  C   UNL     1       1.325   3.483  -2.838  0.00  0.00    +0.039 A 
ATOM     19  N   UNL     1       1.980   2.265  -3.033  0.00  0.00    -0.286 N 
ATOM     20  C   UNL     1       1.843   1.440  -1.976  0.00  0.00    +0.212 C 
ATOM     21  O   UNL     1       2.302   0.323  -1.865  0.00  0.00    -0.277 OA
ATOM     22  C   UNL     1       1.876   4.601  -5.018  0.00  0.00    +0.045 C 
ATOM     23  C   UNL     1      -0.884   6.924  -1.553  0.00  0.00    +0.044 C 
ATOM     24  H   UNL     1       2.475   2.038  -3.835  0.00  0.00    +0.155 HD
ATOM     25  N   UNL     1       1.686   2.298   0.334  0.00  0.00    +0.395 N 
ATOM     26  H   UNL     1       2.687   2.483   0.197  0.00  0.00    -0.079 HD
ENDROOT
BRANCH   1  31
ATOM     27  C   UNL     1      -5.618   5.310   3.699  0.00  0.00    +0.044 C 
ATOM     28  C   UNL     1      -4.566   4.491   2.997  0.00  0.00    -0.050 A 
ATOM     29  C   UNL     1      -3.275   4.976   2.885  0.00  0.00    +0.005 A 
ATOM     30  C   UNL     1      -2.309   4.228   2.242  0.00  0.00    +0.024 A 
ATOM     31  C   UNL     1      -2.634   2.988   1.708  0.00  0.00    +0.047 A 
ATOM     32  C   UNL     1      -3.931   2.507   1.816  0.00  0.00    -0.028 A 
ATOM     33  C   UNL     1      -4.893   3.258   2.465  0.00  0.00    +0.008 A 
ATOM     34  C   UNL     1      -4.290   1.165   1.231  0.00  0.00    +0.046 C 
ENDBRANCH   1  31
TORSDOF 1
