REMARK  Name = ZINC22204918
REMARK  8 active torsions:
REMARK  status: ('A' for Active; 'I' for Inactive)
REMARK    1  A    between atoms: C_1  and  N_2
REMARK    2  A    between atoms: C_18  and  C_23
REMARK    3  A    between atoms: C_25  and  O_33
REMARK    4  A    between atoms: C_26  and  O_31
REMARK    5  A    between atoms: C_27  and  O_29
REMARK    6  A    between atoms: O_29  and  C_30
REMARK    7  A    between atoms: O_31  and  C_32
REMARK    8  A    between atoms: O_33  and  C_34
REMARK                            x       y       z     vdW  Elec       q    Type
REMARK                         _______ _______ _______ _____ _____    ______ ____
ROOT
ATOM      1  C   UNL     1      -6.677   6.939  -1.192  0.00  0.00    +0.140 C 
ATOM      2  N   UNL     1      -5.811   5.937  -0.568  0.00  0.00    -0.255 N 
ATOM      3  C   UNL     1      -4.719   6.231   0.167  0.00  0.00    +0.242 C 
ATOM      4  O   UNL     1      -4.279   7.334   0.413  0.00  0.00    -0.273 OA
ATOM      5  C   UNL     1      -4.155   4.901   0.622  0.00  0.00    +0.167 C 
ATOM      6  C   UNL     1      -2.749   4.711   0.041  0.00  0.00    +0.069 C 
ATOM      7  C   UNL     1      -2.445   3.237  -0.054  0.00  0.00    -0.015 A 
ATOM      8  C   UNL     1      -1.141   2.612  -0.183  0.00  0.00    +0.003 A 
ATOM      9  C   UNL     1       0.155   3.132  -0.232  0.00  0.00    +0.010 A 
ATOM     10  C   UNL     1       1.181   2.229  -0.367  0.00  0.00    +0.001 A 
ATOM     11  C   UNL     1       0.954   0.865  -0.451  0.00  0.00    +0.002 A 
ATOM     12  C   UNL     1      -0.319   0.324  -0.404  0.00  0.00    +0.026 A 
ATOM     13  C   UNL     1      -1.380   1.217  -0.272  0.00  0.00    +0.047 A 
ATOM     14  N   UNL     1      -2.730   1.031  -0.199  0.00  0.00    -0.356 N 
ATOM     15  H   UNL     1      -3.148   0.015  -0.243  0.00  0.00    +0.166 HD
ATOM     16  C   UNL     1      -3.356   2.242  -0.073  0.00  0.00    +0.046 A 
ATOM     17  C   UNL     1      -4.850   2.469   0.049  0.00  0.00    +0.153 C 
ATOM     18  N   UNL     1      -5.053   3.921  -0.028  0.00  0.00    -0.288 N 
ATOM     19  C   UNL     1      -6.005   4.613  -0.657  0.00  0.00    +0.143 C 
ATOM     20  S   UNL     1      -7.321   3.894  -1.482  0.00  0.00    -0.018 S 
ENDROOT
BRANCH  17  21
ATOM     21  C   UNL     1      -5.347   1.946   1.372  0.00  0.00    -0.014 A 
ATOM     22  C   UNL     1      -4.925   2.537   2.549  0.00  0.00    +0.055 A 
ATOM     23  C   UNL     1      -5.384   2.062   3.768  0.00  0.00    +0.165 A 
ATOM     24  C   UNL     1      -6.260   0.985   3.807  0.00  0.00    +0.204 A 
ATOM     25  C   UNL     1      -6.678   0.390   2.622  0.00  0.00    +0.165 A 
ATOM     26  C   UNL     1      -6.218   0.874   1.406  0.00  0.00    +0.055 A 
BRANCH  25  27
ATOM     27  O   UNL     1      -7.535  -0.665   2.655  0.00  0.00    -0.491 OA
ATOM     28  C   UNL     1      -7.921  -1.227   1.399  0.00  0.00    +0.277 C 
ENDBRANCH  25  27
BRANCH  24  29
ATOM     29  O   UNL     1      -6.709   0.513   5.002  0.00  0.00    -0.488 OA
ATOM     30  C   UNL     1      -5.936  -0.514   5.626  0.00  0.00    +0.277 C 
ENDBRANCH  24  29
BRANCH  23  31
ATOM     31  O   UNL     1      -4.972   2.647   4.925  0.00  0.00    -0.491 OA
ATOM     32  C   UNL     1      -4.071   3.750   4.809  0.00  0.00    +0.277 C 
ENDBRANCH  23  31
ENDBRANCH  17  21
TORSDOF 4
