REMARK  Name = ZINC09116260
REMARK  11 active torsions:
REMARK  status: ('A' for Active; 'I' for Inactive)
REMARK    1  A    between atoms: C_1  and  C_2
REMARK    2  A    between atoms: C_5  and  C_8
REMARK    3  A    between atoms: C_12  and  S_14
REMARK    4  A    between atoms: S_14  and  C_15
REMARK    5  A    between atoms: C_15  and  C_16
REMARK    6  A    between atoms: N_18  and  C_19
REMARK    7  A    between atoms: C_21  and  C_26
REMARK    8  A    between atoms: C_23  and  C_25
REMARK    9  A    between atoms: C_29  and  C_36
REMARK   10  A    between atoms: C_32  and  C_35
REMARK   11  A    between atoms: C_36  and  O_37
REMARK                            x       y       z     vdW  Elec       q    Type
REMARK                         _______ _______ _______ _____ _____    ______ ____
ROOT
ATOM      1  C   UNL     1       6.113  -0.875   0.382  0.00  0.00    +0.165 A 
ATOM      2  N   UNL     1       7.343  -0.384   0.402  0.00  0.00    -0.193 NA
ATOM      3  C   UNL     1       7.556   0.928   0.326  0.00  0.00    +0.229 A 
ATOM      4  C   UNL     1       6.468   1.780   0.224  0.00  0.00    +0.051 A 
ATOM      5  C   UNL     1       5.187   1.231   0.206  0.00  0.00    +0.108 A 
ATOM      6  N   UNL     1       5.049  -0.090   0.291  0.00  0.00    -0.221 NA
ATOM      7  C   UNL     1       6.652   3.268   0.134  0.00  0.00    +0.082 C 
ATOM      8  C   UNL     1       8.040   3.650   0.563  0.00  0.00    +0.008 A 
ATOM      9  C   UNL     1       8.334   4.967   0.880  0.00  0.00    +0.003 A 
ATOM     10  C   UNL     1       9.619   5.293   1.272  0.00  0.00    +0.117 A 
ATOM     11  N   UNL     1      10.558   4.370   1.345  0.00  0.00    -0.256 NA
ATOM     12  C   UNL     1      10.317   3.108   1.050  0.00  0.00    +0.081 A 
ATOM     13  C   UNL     1       9.050   2.704   0.649  0.00  0.00    +0.155 A 
ATOM     14  O   UNL     1       8.819   1.404   0.348  0.00  0.00    -0.436 OA
ATOM     15  C   UNL     1      11.427   2.093   1.151  0.00  0.00    +0.069 C 
ENDROOT
BRANCH   1  20
ATOM     16  C   UNL     1       5.365  -6.575   0.722  0.00  0.00    +0.044 C 
ATOM     17  C   UNL     1       5.560  -5.084   0.632  0.00  0.00    -0.050 A 
ATOM     18  C   UNL     1       6.838  -4.554   0.651  0.00  0.00    +0.004 A 
ATOM     19  C   UNL     1       7.023  -3.189   0.570  0.00  0.00    +0.012 A 
ATOM     20  C   UNL     1       5.920  -2.343   0.468  0.00  0.00    +0.019 A 
ATOM     21  C   UNL     1       4.635  -2.882   0.455  0.00  0.00    +0.012 A 
ATOM     22  C   UNL     1       4.462  -4.249   0.531  0.00  0.00    +0.004 A 
ENDBRANCH   1  20
BRANCH   5  23
ATOM     23  S   UNL     1       3.770   2.272   0.081  0.00  0.00    -0.096 S 
BRANCH  23  24
ATOM     24  C   UNL     1       2.460   1.024   0.106  0.00  0.00    +0.171 C 
BRANCH  24  25
ATOM     25  C   UNL     1       1.118   1.702   0.007  0.00  0.00    +0.227 C 
ATOM     26  O   UNL     1       1.054   2.910  -0.073  0.00  0.00    -0.275 OA
ATOM     27  N   UNL     1      -0.011   0.966   0.007  0.00  0.00    -0.285 N 
ATOM     28  H   UNL     1       0.042  -0.003   0.004  0.00  0.00    +0.155 HD
BRANCH  27  29
ATOM     29  C   UNL     1      -1.259   1.599   0.007  0.00  0.00    +0.034 A 
ATOM     30  C   UNL     1      -1.433   2.793  -0.681  0.00  0.00    +0.026 A 
ATOM     31  C   UNL     1      -2.668   3.411  -0.685  0.00  0.00    -0.048 A 
ATOM     32  C   UNL     1      -3.727   2.850   0.005  0.00  0.00    +0.006 A 
ATOM     33  C   UNL     1      -3.555   1.664   0.695  0.00  0.00    -0.048 A 
ATOM     34  C   UNL     1      -2.325   1.037   0.698  0.00  0.00    +0.026 A 
ATOM     35  C   UNL     1      -4.712   1.055   1.445  0.00  0.00    +0.044 C 
ATOM     36  C   UNL     1      -2.860   4.704  -1.437  0.00  0.00    +0.044 C 
ENDBRANCH  27  29
ENDBRANCH  24  25
ENDBRANCH  23  24
ENDBRANCH   5  23
BRANCH   9  37
ATOM     37  C   UNL     1       7.267   6.028   0.801  0.00  0.00    +0.193 C 
BRANCH  37  38
ATOM     38  O   UNL     1       7.822   7.290   1.176  0.00  0.00    -0.390 OA
ATOM     39  H   UNL     1       7.189   8.022   1.147  0.00  0.00    +0.210 HD
ENDBRANCH  37  38
ENDBRANCH   9  37
TORSDOF 7
