REMARK  Name = ZINC34917595
REMARK  18 active torsions:
REMARK  status: ('A' for Active; 'I' for Inactive)
REMARK    1  A    between atoms: C_1  and  C_2
REMARK    2  A    between atoms: C_2  and  O_3
REMARK    3  A    between atoms: O_3  and  C_4
REMARK    4  A    between atoms: C_6  and  C_16
REMARK    5  A    between atoms: C_9  and  O_10
REMARK    6  A    between atoms: O_10  and  C_11
REMARK    7  A    between atoms: C_11  and  C_12
REMARK    8  A    between atoms: C_12  and  C_13
REMARK    9  A    between atoms: C_13  and  C_14
REMARK   10  A    between atoms: C_13  and  C_15
REMARK   11  A    between atoms: C_18  and  C_29
REMARK   12  A    between atoms: N_22  and  C_23
REMARK   13  A    between atoms: C_23  and  C_24
REMARK   14  A    between atoms: C_24  and  C_25
REMARK   15  A    between atoms: C_25  and  O_26
REMARK   16  A    between atoms: O_26  and  C_27
REMARK   17  A    between atoms: C_29  and  C_31
REMARK   18  A    between atoms: C_34  and  C_36
REMARK                            x       y       z     vdW  Elec       q    Type
REMARK                         _______ _______ _______ _____ _____    ______ ____
ROOT
ATOM      1  C   UNL     1      -0.149  -5.008   0.153  0.00  0.00    +0.145 C 
ATOM      2  C   UNL     1       0.686  -5.365   1.360  0.00  0.00    +0.079 C 
ATOM      3  C   UNL     1       0.680  -6.715   1.453  0.00  0.00    +0.249 C 
ATOM      4  C   UNL     1      -0.129  -7.274   0.351  0.00  0.00    +0.288 C 
ATOM      5  O   UNL     1      -0.326  -8.458   0.162  0.00  0.00    -0.266 OA
ATOM      6  N   UNL     1      -0.618  -6.278  -0.412  0.00  0.00    -0.283 N 
ATOM      7  O   UNL     1       1.316  -7.438   2.404  0.00  0.00    -0.282 OA
ENDROOT
BRANCH   1  10
ATOM      8  C   UNL     1       2.634  -4.156  -2.256  0.00  0.00    +0.162 A 
ATOM      9  C   UNL     1       1.861  -4.834  -1.327  0.00  0.00    +0.055 A 
ATOM     10  C   UNL     1       0.690  -4.269  -0.858  0.00  0.00    -0.019 A 
ATOM     11  C   UNL     1       0.287  -3.028  -1.314  0.00  0.00    +0.009 A 
ATOM     12  C   UNL     1       1.053  -2.346  -2.241  0.00  0.00    +0.050 A 
ATOM     13  C   UNL     1       2.231  -2.905  -2.711  0.00  0.00    +0.162 A 
BRANCH   8  14
ATOM     14  O   UNL     1       3.786  -4.711  -2.718  0.00  0.00    -0.489 OA
BRANCH  14  16
ATOM     15  C   UNL     1       5.342  -6.538  -3.005  0.00  0.00    +0.048 C 
ATOM     16  C   UNL     1       4.082  -6.043  -2.293  0.00  0.00    +0.226 C 
ENDBRANCH  14  16
ENDBRANCH   8  14
BRANCH  13  17
ATOM     17  O   UNL     1       2.989  -2.233  -3.619  0.00  0.00    -0.488 OA
BRANCH  17  18
ATOM     18  C   UNL     1       2.514  -0.953  -4.040  0.00  0.00    +0.229 C 
BRANCH  18  19
ATOM     19  C   UNL     1       3.491  -0.355  -5.055  0.00  0.00    +0.044 C 
BRANCH  19  20
ATOM     20  C   UNL     1       2.982   1.016  -5.506  0.00  0.00    -0.014 C 
ATOM     21  C   UNL     1       2.991   1.980  -4.318  0.00  0.00    +0.007 C 
ATOM     22  C   UNL     1       3.891   1.558  -6.611  0.00  0.00    +0.007 C 
ENDBRANCH  19  20
ENDBRANCH  18  19
ENDBRANCH  17  18
ENDBRANCH  13  17
ENDBRANCH   1  10
BRANCH   2  23
ATOM     23  C   UNL     1       1.372  -4.429   2.258  0.00  0.00    +0.230 C 
ATOM     24  O   UNL     1       2.118  -4.852   3.125  0.00  0.00    -0.283 OA
BRANCH  23  25
ATOM     25  C   UNL     1       1.161  -2.986   2.113  0.00  0.00    +0.175 A 
ATOM     26  C   UNL     1       1.829  -1.995   2.799  0.00  0.00    +0.053 A 
ATOM     27  C   UNL     1       1.309  -0.774   2.345  0.00  0.00    +0.045 A 
ATOM     28  C   UNL     1       0.365  -1.062   1.420  0.00  0.00    +0.103 A 
ATOM     29  O   UNL     1       0.282  -2.391   1.280  0.00  0.00    -0.457 OA
ATOM     30  C   UNL     1      -0.458  -0.050   0.665  0.00  0.00    +0.086 C 
ENDBRANCH  23  25
ENDBRANCH   2  23
BRANCH   6  31
ATOM     31  C   UNL     1      -1.466  -6.435  -1.597  0.00  0.00    +0.111 C 
BRANCH  31  32
ATOM     32  C   UNL     1      -0.585  -6.552  -2.842  0.00  0.00    +0.047 C 
BRANCH  32  33
ATOM     33  C   UNL     1      -1.470  -6.715  -4.080  0.00  0.00    +0.161 C 
BRANCH  33  34
ATOM     34  O   UNL     1      -0.648  -6.825  -5.243  0.00  0.00    -0.383 OA
ATOM     35  C   UNL     1      -1.381  -6.982  -6.460  0.00  0.00    +0.193 C 
ENDBRANCH  33  34
ENDBRANCH  32  33
ENDBRANCH  31  32
ENDBRANCH   6  31
TORSDOF 13
