REMARK  Name = ZINC59250471
REMARK  9 active torsions:
REMARK  status: ('A' for Active; 'I' for Inactive)
REMARK    1  A    between atoms: C_1  and  C_2
REMARK    2  A    between atoms: C_4  and  C_37
REMARK    3  A    between atoms: C_6  and  N_8
REMARK    4  A    between atoms: C_12  and  C_13
REMARK    5  A    between atoms: C_15  and  C_31
REMARK    6  A    between atoms: N_16  and  C_19
REMARK    7  A    between atoms: C_17  and  C_18
REMARK    8  A    between atoms: C_21  and  C_28
REMARK    9  A    between atoms: C_23  and  C_25
REMARK                            x       y       z     vdW  Elec       q    Type
REMARK                         _______ _______ _______ _____ _____    ______ ____
ROOT
ATOM      1  C   UNL     1       0.203  -0.873   6.041  0.00  0.00    -0.003 A 
ATOM      2  C   UNL     1      -0.018   0.083   4.945  0.00  0.00    +0.031 A 
ATOM      3  C   UNL     1       0.048   1.308   5.491  0.00  0.00    +0.022 A 
ATOM      4  N   UNL     1       0.292   1.192   6.833  0.00  0.00    -0.317 N 
ATOM      5  C   UNL     1       0.383  -0.104   7.184  0.00  0.00    +0.028 A 
ATOM      6  C   UNL     1       0.638  -0.629   8.573  0.00  0.00    +0.064 C 
ATOM      7  C   UNL     1      -0.119   2.606   4.744  0.00  0.00    +0.064 C 
ENDROOT
BRANCH   1  12
ATOM      8  N   UNL     1      -2.810  -2.952   3.944  0.00  0.00    -0.188 N 
ATOM      9  C   UNL     1      -1.915  -2.235   4.658  0.00  0.00    +0.264 C 
ATOM     10  O   UNL     1      -2.071  -1.042   4.845  0.00  0.00    -0.269 OA
ATOM     11  C   UNL     1      -0.745  -2.945   5.205  0.00  0.00    +0.102 C 
ATOM     12  C   UNL     1       0.223  -2.283   5.951  0.00  0.00    +0.028 C 
ATOM     13  C   UNL     1      -0.647  -4.385   4.926  0.00  0.00    +0.276 C 
ATOM     14  O   UNL     1       0.393  -5.109   5.390  0.00  0.00    -0.268 OA
ATOM     15  N   UNL     1      -1.602  -4.955   4.209  0.00  0.00    -0.123 NA
ATOM     16  C   UNL     1      -2.641  -4.267   3.743  0.00  0.00    +0.340 C 
ATOM     17  O   UNL     1      -3.482  -4.863   3.095  0.00  0.00    -0.250 OA
BRANCH   8  23
ATOM     18  C   UNL     1      -4.745   0.214   0.716  0.00  0.00    +0.044 C 
ATOM     19  C   UNL     1      -4.902  -0.773   1.844  0.00  0.00    -0.048 A 
ATOM     20  C   UNL     1      -6.158  -1.049   2.351  0.00  0.00    +0.006 A 
ATOM     21  C   UNL     1      -6.306  -1.954   3.386  0.00  0.00    -0.048 A 
ATOM     22  C   UNL     1      -5.198  -2.586   3.916  0.00  0.00    +0.027 A 
ATOM     23  C   UNL     1      -3.935  -2.312   3.408  0.00  0.00    +0.046 A 
ATOM     24  C   UNL     1      -3.791  -1.406   2.366  0.00  0.00    +0.027 A 
ATOM     25  C   UNL     1      -7.677  -2.250   3.937  0.00  0.00    +0.044 C 
ENDBRANCH   8  23
ENDBRANCH   1  12
BRANCH   4  26
ATOM     26  C   UNL     1       0.423   2.271   7.718  0.00  0.00    +0.048 A 
ATOM     27  C   UNL     1       1.639   2.510   8.341  0.00  0.00    +0.041 A 
ATOM     28  C   UNL     1       1.774   3.585   9.224  0.00  0.00    +0.066 A 
ATOM     29  C   UNL     1       0.684   4.417   9.478  0.00  0.00    +0.030 A 
ATOM     30  C   UNL     1      -0.536   4.173   8.849  0.00  0.00    +0.066 A 
ATOM     31  C   UNL     1      -0.661   3.099   7.964  0.00  0.00    +0.041 A 
BRANCH  30  32
ATOM     32  C   UNL     1      -1.693   5.051   9.114  0.00  0.00    +0.387 C 
ATOM     33  O   UNL     1      -1.581   5.992   9.886  0.00  0.00    -0.241 OA
ATOM     34  O   UNL     1      -2.763   4.836   8.563  0.00  0.00    -0.241 OA
ENDBRANCH  30  32
BRANCH  28  35
ATOM     35  C   UNL     1       3.068   3.838   9.887  0.00  0.00    +0.387 C 
ATOM     36  O   UNL     1       4.022   3.108   9.664  0.00  0.00    -0.241 OA
ATOM     37  O   UNL     1       3.185   4.779  10.659  0.00  0.00    -0.241 OA
ENDBRANCH  28  35
ENDBRANCH   4  26
TORSDOF 5
