REMARK  Name = ZINC11591350
REMARK  8 active torsions:
REMARK  status: ('A' for Active; 'I' for Inactive)
REMARK    1  A    between atoms: C_1  and  C_2
REMARK    2  A    between atoms: C_2  and  C_3
REMARK    3  A    between atoms: C_3  and  C_4
REMARK    4  A    between atoms: C_4  and  C_6
REMARK    5  A    between atoms: C_4  and  C_27
REMARK    6  A    between atoms: C_6  and  N_7
REMARK    7  A    between atoms: C_8  and  C_10
REMARK    8  A    between atoms: C_10  and  N_11
REMARK                            x       y       z     vdW  Elec       q    Type
REMARK                         _______ _______ _______ _____ _____    ______ ____
ROOT
ATOM      1  C   UNL     1      -1.856  -0.626   0.080  0.00  0.00    +0.213 C 
ENDROOT
BRANCH   1   2
ATOM      2  N   UNL     1      -1.682  -2.079   0.139  0.00  0.00    -0.215 N 
ATOM      3  C   UNL     1      -1.655  -2.795   1.282  0.00  0.00    +0.252 C 
ATOM      4  O   UNL     1      -1.765  -2.374   2.414  0.00  0.00    -0.272 OA
ATOM      5  C   UNL     1      -1.458  -4.231   0.855  0.00  0.00    +0.144 C 
ATOM      6  C   UNL     1      -2.644  -5.084   1.296  0.00  0.00    +0.081 C 
ATOM      7  C   UNL     1      -2.523  -5.334   2.805  0.00  0.00    +0.232 C 
ATOM      8  O   UNL     1      -1.337  -6.093   3.045  0.00  0.00    -0.492 OA
ATOM      9  C   UNL     1      -0.179  -5.667   2.477  0.00  0.00    +0.126 A 
ATOM     10  C   UNL     1      -0.175  -4.774   1.418  0.00  0.00    +0.027 A 
ATOM     11  C   UNL     1       1.028  -4.370   0.864  0.00  0.00    +0.010 A 
ATOM     12  C   UNL     1       2.223  -4.850   1.365  0.00  0.00    +0.001 A 
ATOM     13  C   UNL     1       2.221  -5.738   2.425  0.00  0.00    +0.004 A 
ATOM     14  C   UNL     1       1.025  -6.146   2.980  0.00  0.00    +0.046 A 
ATOM     15  N   UNL     1      -1.390  -4.162  -0.610  0.00  0.00    -0.281 N 
ATOM     16  C   UNL     1      -1.536  -2.863  -0.937  0.00  0.00    +0.310 C 
ATOM     17  O   UNL     1      -1.532  -2.449  -2.080  0.00  0.00    -0.252 OA
ATOM     18  H   UNL     1      -1.268  -4.905  -1.222  0.00  0.00    +0.152 HD
ENDBRANCH   1   2
BRANCH   1  20
ATOM     19  N   UNL     1      -0.421   1.389   0.095  0.00  0.00    -0.313 N 
ATOM     20  C   UNL     1      -0.508   0.044   0.134  0.00  0.00    +0.231 C 
ATOM     21  O   UNL     1       0.500  -0.626   0.213  0.00  0.00    -0.274 OA
ATOM     22  H   UNL     1      -1.227   1.925   0.027  0.00  0.00    +0.149 HD
BRANCH  19  23
ATOM     23  C   UNL     1       0.890   2.040   0.147  0.00  0.00    +0.112 C 
BRANCH  23  24
ATOM     24  C   UNL     1       0.715   3.552  -0.011  0.00  0.00    +0.038 C 
BRANCH  24  25
ATOM     25  C   UNL     1       2.045   4.234   0.180  0.00  0.00    -0.024 A 
ATOM     26  C   UNL     1       3.106   3.927  -0.651  0.00  0.00    +0.007 A 
ATOM     27  C   UNL     1       4.324   4.556  -0.479  0.00  0.00    +0.020 A 
ATOM     28  C   UNL     1       4.486   5.487   0.533  0.00  0.00    +0.042 A 
ATOM     29  C   UNL     1       3.426   5.790   1.369  0.00  0.00    +0.040 A 
ATOM     30  C   UNL     1       2.205   5.164   1.192  0.00  0.00    +0.046 A 
ATOM     31 CL   UNL     1       0.875   5.544   2.241  0.00  0.00    -0.083 Cl
ATOM     32 CL   UNL     1       6.018   6.272   0.753  0.00  0.00    -0.083 Cl
ENDBRANCH  24  25
BRANCH  24  33
ATOM     33  C   UNL     1       0.181   3.859  -1.412  0.00  0.00    +0.009 C 
BRANCH  33  35
ATOM     34  C   UNL     1      -0.768   5.643  -2.881  0.00  0.00    +0.004 C 
ATOM     35  C   UNL     1      -0.117   5.356  -1.527  0.00  0.00    -0.003 C 
ENDBRANCH  33  35
ENDBRANCH  24  33
ENDBRANCH  23  24
ENDBRANCH  19  23
ENDBRANCH   1  20
TORSDOF 7
