REMARK  Name = ZINC61293844
REMARK  10 active torsions:
REMARK  status: ('A' for Active; 'I' for Inactive)
REMARK    1  A    between atoms: C_1  and  C_2
REMARK    2  A    between atoms: C_2  and  N_3
REMARK    3  A    between atoms: N_3  and  C_4
REMARK    4  A    between atoms: C_4  and  C_5
REMARK    5  A    between atoms: C_4  and  C_6
REMARK    6  A    between atoms: C_4  and  C_7
REMARK    7  A    between atoms: N_9  and  C_10
REMARK    8  A    between atoms: C_11  and  C_18
REMARK    9  A    between atoms: C_18  and  O_20
REMARK   10  A    between atoms: O_20  and  C_21
REMARK                            x       y       z     vdW  Elec       q    Type
REMARK                         _______ _______ _______ _____ _____    ______ ____
ROOT
ATOM      1  C   UNL     1      -2.907  -1.986  -0.345  0.00  0.00    +0.206 C 
ATOM      2  O   UNL     1      -3.295  -2.563  -1.339  0.00  0.00    -0.277 OA
ATOM      3  N   UNL     1      -3.726  -1.849   0.717  0.00  0.00    -0.285 N 
ATOM      4  H   UNL     1      -3.392  -1.459   1.540  0.00  0.00    +0.155 HD
ENDROOT
BRANCH   3   5
ATOM      5  C   UNL     1      -5.052  -2.268   0.633  0.00  0.00    +0.062 A 
ATOM      6  C   UNL     1      -6.093  -1.383   0.955  0.00  0.00    +0.082 A 
ATOM      7  C   UNL     1      -7.418  -1.816   0.866  0.00  0.00    +0.032 A 
ATOM      8  C   UNL     1      -7.696  -3.105   0.464  0.00  0.00    +0.020 A 
ATOM      9  C   UNL     1      -6.666  -3.977   0.147  0.00  0.00    +0.032 A 
ATOM     10  C   UNL     1      -5.351  -3.561   0.224  0.00  0.00    +0.041 A 
ATOM     11 BR   UNL     1      -3.955  -4.758  -0.221  0.00  0.00    -0.048 Br
ATOM     12 BR   UNL     1      -9.491  -3.688   0.345  0.00  0.00    -0.050 Br
BRANCH   6  13
ATOM     13  C   UNL     1      -5.789  -0.007   1.385  0.00  0.00    +0.341 C 
ATOM     14  O   UNL     1      -4.643   0.397   1.365  0.00  0.00    -0.245 OA
BRANCH  13  15
ATOM     15  O   UNL     1      -6.782   0.804   1.799  0.00  0.00    -0.464 OA
ATOM     16  C   UNL     1      -6.415   2.126   2.201  0.00  0.00    +0.280 C 
ENDBRANCH  13  15
ENDBRANCH   6  13
ENDBRANCH   3   5
BRANCH   1  17
ATOM     17  C   UNL     1      -1.511  -1.421  -0.298  0.00  0.00    +0.004 C 
ATOM     18  C   UNL     1      -1.027  -1.138  -1.721  0.00  0.00    -0.001 C 
ATOM     19  C   UNL     1      -0.575  -2.431   0.368  0.00  0.00    -0.001 C 
BRANCH  17  20
ATOM     20  N   UNL     1      -1.514  -0.172   0.476  0.00  0.00    +0.388 N 
ATOM     21  H   UNL     1      -1.833  -0.359   1.414  0.00  0.00    -0.084 HD
ATOM     22  H   UNL     1      -2.131   0.494   0.036  0.00  0.00    -0.084 HD
BRANCH  20  24
ATOM     23  C   UNL     1      -0.155   1.679   1.328  0.00  0.00    -0.017 C 
ATOM     24  C   UNL     1      -0.153   0.379   0.522  0.00  0.00    -0.085 C 
ENDBRANCH  20  24
ENDBRANCH  17  20
ENDBRANCH   1  17
TORSDOF 6
