REMARK  Name = ZINC12490346
REMARK  13 active torsions:
REMARK  status: ('A' for Active; 'I' for Inactive)
REMARK    1  A    between atoms: C_1  and  C_2
REMARK    2  A    between atoms: C_2  and  O_3
REMARK    3  A    between atoms: O_3  and  C_4
REMARK    4  A    between atoms: C_6  and  C_16
REMARK    5  A    between atoms: C_8  and  O_13
REMARK    6  A    between atoms: C_9  and  O_10
REMARK    7  A    between atoms: O_10  and  C_11
REMARK    8  A    between atoms: C_11  and  C_12
REMARK    9  A    between atoms: O_13  and  C_14
REMARK   10  A    between atoms: C_14  and  C_15
REMARK   11  A    between atoms: C_16  and  O_18
REMARK   12  A    between atoms: O_18  and  C_19
REMARK   13  A    between atoms: C_19  and  C_20
REMARK                            x       y       z     vdW  Elec       q    Type
REMARK                         _______ _______ _______ _____ _____    ______ ____
ROOT
ATOM      1  C   UNL     1      -1.353   1.855   0.257  0.00  0.00    +0.328 C 
ENDROOT
BRANCH   1   2
ATOM      2  C   UNL     1      -0.014   1.209   0.009  0.00  0.00    +0.258 C 
ATOM      3  O   UNL     1       0.049   0.026  -0.251  0.00  0.00    -0.271 OA
ATOM      4  N   UNL     1       1.112   1.947   0.070  0.00  0.00    -0.252 N 
ATOM      5  C   UNL     1       1.067   3.351   0.039  0.00  0.00    +0.059 A 
ATOM      6  C   UNL     1       0.061   4.023  -0.625  0.00  0.00    +0.025 A 
ATOM      7  C   UNL     1       0.052   5.407  -0.640  0.00  0.00    +0.002 A 
ATOM      8  C   UNL     1       1.046   6.115   0.012  0.00  0.00    +0.002 A 
ATOM      9  C   UNL     1       2.052   5.449   0.687  0.00  0.00    +0.025 A 
ATOM     10  C   UNL     1       2.066   4.063   0.711  0.00  0.00    +0.055 A 
ATOM     11  N   UNL     1       3.068   3.370   1.399  0.00  0.00    -0.282 N 
ATOM     12  C   UNL     1       3.281   2.060   1.161  0.00  0.00    +0.241 C 
ATOM     13  O   UNL     1       4.164   1.477   1.754  0.00  0.00    -0.273 OA
ATOM     14  C   UNL     1       2.433   1.315   0.167  0.00  0.00    +0.118 C 
ATOM     15  C   UNL     1       3.114   1.316  -1.212  0.00  0.00    +0.036 C 
ATOM     16  C   UNL     1       3.865  -0.040  -1.262  0.00  0.00    +0.003 C 
ATOM     17  C   UNL     1       2.884  -1.002  -0.547  0.00  0.00    +0.003 C 
ATOM     18  C   UNL     1       2.283  -0.152   0.593  0.00  0.00    +0.036 C 
ATOM     19  H   UNL     1       3.614   3.835   2.052  0.00  0.00    +0.155 HD
ENDBRANCH   1   2
BRANCH   1  20
ATOM     20  O   UNL     1      -2.379   0.830   0.327  0.00  0.00    -0.452 OA
BRANCH  20  21
ATOM     21  C   UNL     1      -3.643   1.244   0.546  0.00  0.00    +0.340 C 
ATOM     22  O   UNL     1      -3.881   2.429   0.674  0.00  0.00    -0.245 OA
BRANCH  21  25
ATOM     23  C   UNL     1      -7.072  -0.238   0.934  0.00  0.00    +0.166 A 
ATOM     24  C   UNL     1      -6.048   0.687   0.857  0.00  0.00    +0.064 A 
ATOM     25  C   UNL     1      -4.737   0.259   0.630  0.00  0.00    +0.066 A 
ATOM     26  C   UNL     1      -4.466  -1.103   0.477  0.00  0.00    +0.064 A 
ATOM     27  C   UNL     1      -5.493  -2.025   0.561  0.00  0.00    +0.166 A 
ATOM     28  C   UNL     1      -6.798  -1.596   0.787  0.00  0.00    +0.204 A 
BRANCH  23  29
ATOM     29  O   UNL     1      -8.348   0.177   1.155  0.00  0.00    -0.488 OA
BRANCH  29  31
ATOM     30  C   UNL     1     -10.043   1.857   1.537  0.00  0.00    +0.048 C 
ATOM     31  C   UNL     1      -8.557   1.584   1.297  0.00  0.00    +0.226 C 
ENDBRANCH  29  31
ENDBRANCH  23  29
BRANCH  28  32
ATOM     32  O   UNL     1      -7.807  -2.503   0.864  0.00  0.00    -0.485 OA
BRANCH  32  33
ATOM     33  C   UNL     1      -8.473  -2.837  -0.355  0.00  0.00    +0.226 C 
ATOM     34  C   UNL     1      -9.570  -3.866  -0.071  0.00  0.00    +0.048 C 
ENDBRANCH  32  33
ENDBRANCH  28  32
BRANCH  27  35
ATOM     35  O   UNL     1      -5.229  -3.351   0.417  0.00  0.00    -0.488 OA
BRANCH  35  36
ATOM     36  C   UNL     1      -3.868  -3.721   0.187  0.00  0.00    +0.226 C 
ATOM     37  C   UNL     1      -3.768  -5.241   0.052  0.00  0.00    +0.048 C 
ENDBRANCH  35  36
ENDBRANCH  27  35
ENDBRANCH  21  25
ENDBRANCH  20  21
ENDBRANCH   1  20
TORSDOF 10
