REMARK  Name = ZINC54616694
REMARK  14 active torsions:
REMARK  status: ('A' for Active; 'I' for Inactive)
REMARK    1  A    between atoms: C_1  and  C_2
REMARK    2  A    between atoms: C_2  and  C_3
REMARK    3  A    between atoms: C_3  and  O_4
REMARK    4  A    between atoms: O_4  and  C_5
REMARK    5  A    between atoms: C_10  and  C_11
REMARK    6  A    between atoms: C_13  and  C_26
REMARK    7  A    between atoms: C_14  and  C_25
REMARK    8  A    between atoms: C_19  and  S_21
REMARK    9  A    between atoms: S_21  and  C_22
REMARK   10  A    between atoms: C_22  and  C_23
REMARK   11  A    between atoms: C_23  and  C_24
REMARK   12  A    between atoms: N_28  and  C_29
REMARK   13  A    between atoms: C_33  and  C_36
REMARK   14  A    between atoms: C_34  and  C_35
REMARK                            x       y       z     vdW  Elec       q    Type
REMARK                         _______ _______ _______ _____ _____    ______ ____
ROOT
ATOM      1  C   UNL     1       0.576  -5.090  -1.236  0.00  0.00    +0.181 C 
ATOM      2  C   UNL     1      -0.437  -5.905  -1.994  0.00  0.00    +0.060 C 
ATOM      3  C   UNL     1      -0.324  -7.229  -2.176  0.00  0.00    +0.018 C 
ATOM      4  N   UNL     1       0.731  -7.949  -1.671  0.00  0.00    -0.287 N 
ATOM      5  C   UNL     1       1.545  -7.320  -0.739  0.00  0.00    +0.219 A 
ATOM      6  N   UNL     1       1.482  -5.984  -0.520  0.00  0.00    -0.220 N 
ATOM      7  N   UNL     1       2.418  -5.696   0.472  0.00  0.00    -0.141 NA
ATOM      8  C   UNL     1       2.991  -6.836   0.794  0.00  0.00    +0.210 A 
ATOM      9  N   UNL     1       2.457  -7.818   0.052  0.00  0.00    -0.187 NA
ATOM     10  C   UNL     1      -1.388  -7.950  -2.963  0.00  0.00    +0.061 C 
ATOM     11  H   UNL     1       0.899  -8.861  -1.953  0.00  0.00    +0.155 HD
ENDROOT
BRANCH   1  17
ATOM     12  C   UNL     1       1.263  -2.861  -2.157  0.00  0.00    +0.126 A 
ATOM     13  C   UNL     1       1.995  -2.084  -3.044  0.00  0.00    +0.046 A 
ATOM     14  C   UNL     1       2.818  -2.690  -3.974  0.00  0.00    +0.004 A 
ATOM     15  C   UNL     1       2.913  -4.069  -4.020  0.00  0.00    +0.001 A 
ATOM     16  C   UNL     1       2.185  -4.845  -3.138  0.00  0.00    +0.009 A 
ATOM     17  C   UNL     1       1.365  -4.244  -2.202  0.00  0.00    +0.023 A 
BRANCH  12  18
ATOM     18  O   UNL     1       0.453  -2.267  -1.241  0.00  0.00    -0.492 OA
BRANCH  18  19
ATOM     19  C   UNL     1       0.314  -0.848  -1.322  0.00  0.00    +0.229 C 
BRANCH  19  21
ATOM     20  C   UNL     1      -0.634   1.172  -0.197  0.00  0.00    +0.007 C 
ATOM     21  C   UNL     1      -0.581  -0.357  -0.182  0.00  0.00    +0.038 C 
ENDBRANCH  19  21
ENDBRANCH  18  19
ENDBRANCH  12  18
ENDBRANCH   1  17
BRANCH   2  22
ATOM     22  C   UNL     1      -1.563  -5.243  -2.540  0.00  0.00    +0.248 C 
ATOM     23  O   UNL     1      -2.511  -4.967  -1.828  0.00  0.00    -0.270 OA
ATOM     24  N   UNL     1      -1.585  -4.919  -3.848  0.00  0.00    -0.281 N 
ATOM     25  H   UNL     1      -0.862  -5.201  -4.430  0.00  0.00    +0.155 HD
BRANCH  24  26
ATOM     26  C   UNL     1      -2.650  -4.176  -4.366  0.00  0.00    +0.037 A 
ATOM     27  C   UNL     1      -3.467  -3.443  -3.514  0.00  0.00    +0.023 A 
ATOM     28  C   UNL     1      -4.519  -2.711  -4.029  0.00  0.00    +0.002 A 
ATOM     29  C   UNL     1      -4.759  -2.706  -5.391  0.00  0.00    +0.004 A 
ATOM     30  C   UNL     1      -3.948  -3.434  -6.241  0.00  0.00    -0.046 A 
ATOM     31  C   UNL     1      -2.891  -4.164  -5.734  0.00  0.00    -0.026 A 
ATOM     32  C   UNL     1      -2.003  -4.952  -6.662  0.00  0.00    +0.046 C 
ATOM     33  C   UNL     1      -4.213  -3.426  -7.725  0.00  0.00    +0.044 C 
ENDBRANCH  24  26
ENDBRANCH   2  22
BRANCH   8  34
ATOM     34  S   UNL     1       4.256  -7.040   2.003  0.00  0.00    -0.084 S 
BRANCH  34  35
ATOM     35  C   UNL     1       4.611  -8.819   1.971  0.00  0.00    +0.077 C 
BRANCH  35  36
ATOM     36  C   UNL     1       5.708  -9.139   2.989  0.00  0.00    +0.008 C 
ATOM     37  C   UNL     1       6.007 -10.639   2.962  0.00  0.00    +0.004 C 
ENDBRANCH  35  36
ENDBRANCH  34  35
ENDBRANCH   8  34
TORSDOF 9
