REMARK  Name = ZINC39686862
REMARK  6 active torsions:
REMARK  status: ('A' for Active; 'I' for Inactive)
REMARK    1  A    between atoms: C_1  and  C_2
REMARK    2  A    between atoms: C_2  and  C_4
REMARK    3  A    between atoms: C_2  and  N_12
REMARK    4  A    between atoms: C_4  and  C_5
REMARK    5  A    between atoms: C_13  and  C_15
REMARK    6  A    between atoms: C_26  and  C_28
REMARK                            x       y       z     vdW  Elec       q    Type
REMARK                         _______ _______ _______ _____ _____    ______ ____
ROOT
ATOM      1  C   UNL     1      -3.225  -1.335  -1.177  0.00  0.00    +0.100 C 
ATOM      2  C   UNL     1      -3.357  -2.818  -0.763  0.00  0.00    +0.121 C 
ATOM      3  N   UNL     1      -4.482  -3.336  -1.577  0.00  0.00    -0.296 N 
ATOM      4  C   UNL     1      -4.301  -2.699  -2.903  0.00  0.00    +0.115 C 
ATOM      5  C   UNL     1      -3.845  -1.261  -2.582  0.00  0.00    -0.004 C 
ATOM      6  C   UNL     1      -5.043  -0.316  -2.583  0.00  0.00    -0.010 C 
ATOM      7  C   UNL     1      -5.608  -0.215  -4.002  0.00  0.00    -0.082 C 
ATOM      8  N   UNL     1      -4.567   0.282  -4.910  0.00  0.00    +0.379 N 
ATOM      9  C   UNL     1      -3.459  -0.679  -4.976  0.00  0.00    -0.082 C 
ATOM     10  C   UNL     1      -2.804  -0.800  -3.597  0.00  0.00    -0.010 C 
ATOM     11  C   UNL     1      -5.450  -4.192  -1.197  0.00  0.00    +0.247 C 
ATOM     12  O   UNL     1      -6.259  -4.595  -2.011  0.00  0.00    -0.270 OA
ATOM     13  H   UNL     1      -4.957   0.405  -5.832  0.00  0.00    -0.086 HD
ATOM     14  H   UNL     1      -4.222   1.168  -4.573  0.00  0.00    -0.086 HD
ENDROOT
BRANCH  11  15
ATOM     15  C   UNL     1      -5.529  -4.643   0.208  0.00  0.00    +0.045 A 
ATOM     16  C   UNL     1      -4.390  -5.140   0.851  0.00  0.00    +0.014 A 
ATOM     17  C   UNL     1      -4.460  -5.560   2.161  0.00  0.00    +0.001 A 
ATOM     18  C   UNL     1      -5.658  -5.496   2.856  0.00  0.00    +0.012 A 
ATOM     19  C   UNL     1      -6.801  -5.005   2.236  0.00  0.00    +0.031 A 
ATOM     20  C   UNL     1      -6.743  -4.568   0.903  0.00  0.00    +0.006 A 
ATOM     21  C   UNL     1      -8.089  -4.093   0.498  0.00  0.00    -0.006 A 
ATOM     22  C   UNL     1      -8.568  -3.572  -0.697  0.00  0.00    +0.009 A 
ATOM     23  C   UNL     1      -9.898  -3.199  -0.808  0.00  0.00    +0.001 A 
ATOM     24  C   UNL     1     -10.756  -3.340   0.265  0.00  0.00    +0.001 A 
ATOM     25  C   UNL     1     -10.294  -3.858   1.465  0.00  0.00    +0.012 A 
ATOM     26  C   UNL     1      -8.963  -4.236   1.589  0.00  0.00    +0.030 A 
ATOM     27  C   UNL     1      -8.193  -4.821   2.713  0.00  0.00    +0.194 C 
ATOM     28  O   UNL     1      -8.618  -5.086   3.819  0.00  0.00    -0.287 OA
ENDBRANCH  11  15
BRANCH   1  30
ATOM     29  N   UNL     1      -1.435   0.371  -1.115  0.00  0.00    -0.312 N 
ATOM     30  C   UNL     1      -1.775  -0.929  -1.222  0.00  0.00    +0.218 C 
ATOM     31  O   UNL     1      -0.913  -1.772  -1.353  0.00  0.00    -0.275 OA
ATOM     32  H   UNL     1      -2.124   1.045  -1.010  0.00  0.00    +0.149 HD
BRANCH  29  34
ATOM     33  C   UNL     1       0.417   0.921  -2.615  0.00  0.00    +0.028 C 
ATOM     34  C   UNL     1      -0.025   0.765  -1.158  0.00  0.00    +0.074 C 
BRANCH  34  35
ATOM     35  C   UNL     1       0.155   2.096  -0.426  0.00  0.00    +0.060 C 
BRANCH  35  36
ATOM     36  C   UNL     1      -0.163   1.913   1.036  0.00  0.00    -0.010 A 
ATOM     37  C   UNL     1      -1.430   2.196   1.508  0.00  0.00    +0.006 A 
ATOM     38  C   UNL     1      -1.722   2.027   2.849  0.00  0.00    +0.000 A 
ATOM     39  C   UNL     1      -0.747   1.575   3.718  0.00  0.00    +0.003 A 
ATOM     40  C   UNL     1       0.521   1.292   3.248  0.00  0.00    +0.038 A 
ATOM     41  C   UNL     1       0.813   1.455   1.904  0.00  0.00    +0.127 A 
ATOM     42  F   UNL     1       2.051   1.173   1.442  0.00  0.00    -0.205 F 
ENDBRANCH  35  36
ENDBRANCH  34  35
ENDBRANCH  29  34
ENDBRANCH   1  30
TORSDOF 5
