REMARK  Name = ZINC09798647
REMARK  7 active torsions:
REMARK  status: ('A' for Active; 'I' for Inactive)
REMARK    1  A    between atoms: C_1  and  C_2
REMARK    2  A    between atoms: C_3  and  C_12
REMARK    3  A    between atoms: C_12  and  C_14
REMARK    4  A    between atoms: C_14  and  C_16
REMARK    5  A    between atoms: C_14  and  S_17
REMARK    6  A    between atoms: S_17  and  C_18
REMARK    7  A    between atoms: C_21  and  C_23
REMARK                            x       y       z     vdW  Elec       q    Type
REMARK                         _______ _______ _______ _____ _____    ______ ____
ROOT
ATOM      1  C   UNL     1      -0.144   1.310   2.607  0.00  0.00    +0.124 C 
ATOM      2  C   UNL     1       1.192   2.014   2.356  0.00  0.00    +0.028 C 
ENDROOT
BRANCH   1   3
ATOM      3  C   UNL     1       0.024  -0.173   2.401  0.00  0.00    +0.178 C 
ATOM      4  O   UNL     1       0.277  -0.892   3.347  0.00  0.00    -0.291 OA
BRANCH   3   7
ATOM      5  C   UNL     1      -2.663  -0.991   1.090  0.00  0.00    +0.064 C 
ATOM      6  C   UNL     1      -1.287  -1.106   0.486  0.00  0.00    +0.024 A 
ATOM      7  C   UNL     1      -0.114  -0.729   1.105  0.00  0.00    +0.046 A 
ATOM      8  C   UNL     1       0.969  -1.022   0.146  0.00  0.00    +0.010 A 
ATOM      9  C   UNL     1       2.353  -0.872   0.175  0.00  0.00    +0.011 A 
ATOM     10  C   UNL     1       3.103  -1.254  -0.916  0.00  0.00    +0.001 A 
ATOM     11  C   UNL     1       2.485  -1.786  -2.038  0.00  0.00    +0.002 A 
ATOM     12  C   UNL     1       1.117  -1.940  -2.079  0.00  0.00    +0.026 A 
ATOM     13  C   UNL     1       0.342  -1.560  -0.988  0.00  0.00    +0.047 A 
ATOM     14  N   UNL     1      -1.015  -1.597  -0.738  0.00  0.00    -0.358 N 
ATOM     15  H   UNL     1      -1.682  -1.930  -1.359  0.00  0.00    +0.166 HD
ENDBRANCH   3   7
ENDBRANCH   1   3
BRANCH   1  16
ATOM     16  S   UNL     1      -0.682   1.627   4.306  0.00  0.00    -0.055 S 
BRANCH  16  17
ATOM     17  C   UNL     1      -0.940   3.368   4.225  0.00  0.00    +0.278 A 
ATOM     18  N   UNL     1      -0.761   4.133   3.172  0.00  0.00    -0.101 NA
ATOM     19  N   UNL     1      -1.044   5.351   3.474  0.00  0.00    -0.106 NA
ATOM     20  C   UNL     1      -1.414   5.413   4.730  0.00  0.00    +0.249 A 
ATOM     21  O   UNL     1      -1.361   4.159   5.230  0.00  0.00    -0.411 OA
BRANCH  20  22
ATOM     22  C   UNL     1      -1.820   6.631   5.462  0.00  0.00    +0.040 A 
ATOM     23  C   UNL     1      -2.198   6.549   6.804  0.00  0.00    +0.013 A 
ATOM     24  C   UNL     1      -2.571   7.689   7.484  0.00  0.00    +0.002 A 
ATOM     25  C   UNL     1      -2.582   8.912   6.836  0.00  0.00    +0.015 A 
ATOM     26  C   UNL     1      -2.213   9.001   5.505  0.00  0.00    +0.019 A 
ATOM     27  C   UNL     1      -1.833   7.867   4.814  0.00  0.00    +0.028 A 
ATOM     28 BR   UNL     1      -2.232  10.677   4.630  0.00  0.00    -0.050 Br
ENDBRANCH  20  22
ENDBRANCH  16  17
ENDBRANCH   1  16
TORSDOF 5
