REMARK  Name = ZINC39710672
REMARK  15 active torsions:
REMARK  status: ('A' for Active; 'I' for Inactive)
REMARK    1  A    between atoms: C_1  and  C_2
REMARK    2  A    between atoms: C_2  and  C_3
REMARK    3  A    between atoms: C_3  and  C_4
REMARK    4  A    between atoms: C_3  and  C_5
REMARK    5  A    between atoms: C_3  and  N_6
REMARK    6  A    between atoms: C_7  and  C_12
REMARK    7  A    between atoms: C_12  and  C_14
REMARK    8  A    between atoms: C_12  and  N_27
REMARK    9  A    between atoms: C_20  and  C_26
REMARK   10  A    between atoms: N_27  and  C_28
REMARK   11  A    between atoms: N_27  and  C_37
REMARK   12  A    between atoms: C_28  and  C_29
REMARK   13  A    between atoms: C_32  and  O_35
REMARK   14  A    between atoms: O_35  and  C_36
REMARK   15  A    between atoms: C_37  and  C_38
REMARK                            x       y       z     vdW  Elec       q    Type
REMARK                         _______ _______ _______ _____ _____    ______ ____
ROOT
ATOM      1  C   UNL     1       2.866  -3.521  -2.358  0.00  0.00    -0.009 C 
ENDROOT
BRANCH   1   2
ATOM      2  C   UNL     1       2.461  -4.818  -1.655  0.00  0.00    +0.088 C 
ATOM      3  C   UNL     1       1.806  -4.448  -0.339  0.00  0.00    -0.006 C 
ATOM      4  C   UNL     1       2.362  -4.952   0.800  0.00  0.00    -0.007 A 
ATOM      5  C   UNL     1       1.794  -4.645   2.113  0.00  0.00    +0.010 A 
ATOM      6  C   UNL     1       2.382  -5.168   3.219  0.00  0.00    +0.004 A 
ATOM      7  C   UNL     1       3.508  -5.986   3.126  0.00  0.00    -0.049 A 
ATOM      8  C   UNL     1       4.083  -6.308   1.938  0.00  0.00    +0.027 A 
ATOM      9  C   UNL     1       3.552  -5.819   0.730  0.00  0.00    +0.041 A 
ATOM     10  N   UNL     1       4.124  -6.142  -0.429  0.00  0.00    -0.285 N 
ATOM     11  C   UNL     1       3.677  -5.714  -1.598  0.00  0.00    +0.223 C 
ATOM     12  O   UNL     1       4.243  -6.043  -2.624  0.00  0.00    -0.275 OA
ATOM     13  C   UNL     1       4.112  -6.534   4.393  0.00  0.00    +0.044 C 
ATOM     14  H   UNL     1       4.905  -6.716  -0.415  0.00  0.00    +0.155 HD
ENDBRANCH   1   2
BRANCH   1  16
ATOM     15  N   UNL     1       1.050  -2.202  -1.327  0.00  0.00    -0.182 NA
ATOM     16  C   UNL     1       1.623  -2.666  -2.608  0.00  0.00    +0.205 C 
ATOM     17  N   UNL     1       0.557  -3.473  -3.217  0.00  0.00    -0.152 NA
ATOM     18  N   UNL     1      -0.419  -3.479  -2.463  0.00  0.00    -0.070 NA
ATOM     19  N   UNL     1      -0.211  -2.739  -1.300  0.00  0.00    -0.179 N 
ATOM     20  H   UNL     1      -0.856  -2.623  -0.586  0.00  0.00    +0.191 HD
BRANCH  15  21
ATOM     21  C   UNL     1       0.998  -0.735  -1.275  0.00  0.00    +0.037 C 
ATOM     22  C   UNL     1       0.218  -0.208  -2.481  0.00  0.00    +0.029 C 
ATOM     23  C   UNL     1       2.421  -0.173  -1.303  0.00  0.00    +0.029 C 
BRANCH  21  25
ATOM     24  C   UNL     1       0.248   1.233   0.069  0.00  0.00    +0.006 C 
ATOM     25  C   UNL     1       0.302  -0.295   0.015  0.00  0.00    +0.020 C 
ENDBRANCH  21  25
ENDBRANCH  15  21
ENDBRANCH   1  16
BRANCH   1  26
ATOM     26  N   UNL     1       3.508  -3.839  -3.641  0.00  0.00    +0.389 N 
ATOM     27  H   UNL     1       4.319  -4.417  -3.477  0.00  0.00    -0.081 HD
BRANCH  26  28
ATOM     28  C   UNL     1       2.557  -4.561  -4.498  0.00  0.00    -0.042 C 
BRANCH  28  29
ATOM     29  C   UNL     1       3.260  -5.026  -5.747  0.00  0.00    -0.064 A 
ATOM     30  C   UNL     1       3.298  -4.209  -6.862  0.00  0.00    +0.005 A 
ATOM     31  C   UNL     1       3.942  -4.633  -8.009  0.00  0.00    +0.046 A 
ATOM     32  C   UNL     1       4.550  -5.880  -8.041  0.00  0.00    +0.120 A 
ATOM     33  C   UNL     1       4.510  -6.697  -6.920  0.00  0.00    +0.046 A 
ATOM     34  C   UNL     1       3.870  -6.266  -5.775  0.00  0.00    +0.005 A 
BRANCH  32  35
ATOM     35  O   UNL     1       5.183  -6.300  -9.168  0.00  0.00    -0.495 OA
ATOM     36  C   UNL     1       5.787  -7.594  -9.128  0.00  0.00    +0.277 C 
ENDBRANCH  32  35
ENDBRANCH  28  29
ENDBRANCH  26  28
BRANCH  26  37
ATOM     37  C   UNL     1       3.919  -2.595  -4.305  0.00  0.00    -0.046 C 
BRANCH  37  38
ATOM     38  C   UNL     1       5.019  -1.919  -3.485  0.00  0.00    +0.102 C 
ATOM     39  C   UNL     1       5.391  -0.563  -4.123  0.00  0.00    +0.032 C 
ATOM     40  C   UNL     1       6.933  -0.528  -3.947  0.00  0.00    +0.030 C 
ATOM     41  C   UNL     1       7.282  -2.029  -4.107  0.00  0.00    +0.160 C 
ATOM     42  O   UNL     1       6.196  -2.736  -3.483  0.00  0.00    -0.378 OA
ENDBRANCH  37  38
ENDBRANCH  26  37
ENDBRANCH   1  26
TORSDOF 10
