REMARK  Name = ZINC48288437
REMARK  8 active torsions:
REMARK  status: ('A' for Active; 'I' for Inactive)
REMARK    1  A    between atoms: C_1  and  C_2
REMARK    2  A    between atoms: C_3  and  C_12
REMARK    3  A    between atoms: C_5  and  C_7
REMARK    4  A    between atoms: C_12  and  C_13
REMARK    5  A    between atoms: N_15  and  C_16
REMARK    6  A    between atoms: C_16  and  C_17
REMARK    7  A    between atoms: C_25  and  C_32
REMARK    8  A    between atoms: C_28  and  C_31
REMARK                            x       y       z     vdW  Elec       q    Type
REMARK                         _______ _______ _______ _____ _____    ______ ____
ROOT
ATOM      1  C   UNL     1      -2.990  -0.197  -1.410  0.00  0.00    +0.219 C 
ATOM      2  O   UNL     1      -2.245  -0.436  -2.337  0.00  0.00    -0.275 OA
ATOM      3  N   UNL     1      -4.261   0.184  -1.647  0.00  0.00    -0.311 N 
ATOM      4  H   UNL     1      -4.856   0.376  -0.906  0.00  0.00    +0.149 HD
ENDROOT
BRANCH   1   5
ATOM      5  C   UNL     1      -2.494  -0.324   0.007  0.00  0.00    +0.154 C 
BRANCH   5   8
ATOM      6  C   UNL     1       0.000   1.557  -0.043  0.00  0.00    +0.088 C 
ATOM      7  C   UNL     1       0.021   0.051  -0.025  0.00  0.00    +0.126 A 
ATOM      8  C   UNL     1      -1.051  -0.761  -0.003  0.00  0.00    +0.091 A 
ATOM      9  N   UNL     1      -0.609  -2.028   0.008  0.00  0.00    -0.213 NA
ATOM     10  C   UNL     1       0.706  -2.014  -0.006  0.00  0.00    +0.234 A 
ATOM     11  O   UNL     1       1.119  -0.734  -0.033  0.00  0.00    -0.440 OA
BRANCH  10  12
ATOM     12  C   UNL     1       1.577  -3.198  -0.001  0.00  0.00    +0.074 A 
ATOM     13  C   UNL     1       2.959  -3.264  -0.009  0.00  0.00    +0.021 A 
ATOM     14  C   UNL     1       3.555  -4.503  -0.002  0.00  0.00    +0.008 A 
ATOM     15  C   UNL     1       2.775  -5.616   0.014  0.00  0.00    +0.046 A 
ATOM     16  S   UNL     1       1.129  -4.926   0.026  0.00  0.00    -0.092 S 
ENDBRANCH  10  12
ENDBRANCH   5   8
ENDBRANCH   1   5
BRANCH   3  17
ATOM     17  C   UNL     1      -4.743   0.308  -3.025  0.00  0.00    +0.141 C 
BRANCH  17  18
ATOM     18  C   UNL     1      -6.185   0.745  -3.015  0.00  0.00    -0.014 A 
ATOM     19  C   UNL     1      -7.204  -0.199  -2.986  0.00  0.00    +0.010 A 
ATOM     20  C   UNL     1      -8.514   0.243  -2.978  0.00  0.00    +0.042 A 
ATOM     21  C   UNL     1      -8.766   1.611  -2.998  0.00  0.00    +0.099 A 
ATOM     22  N   UNL     1      -7.767   2.480  -3.025  0.00  0.00    -0.349 N 
ATOM     23  C   UNL     1      -6.508   2.087  -3.028  0.00  0.00    +0.089 A 
ATOM     24  N   UNL     1     -10.078   2.070  -2.990  0.00  0.00    -0.312 N 
ATOM     25  C   UNL     1     -11.209   1.134  -3.089  0.00  0.00    +0.137 C 
ATOM     26  C   UNL     1     -12.148   1.624  -4.197  0.00  0.00    +0.133 C 
ATOM     27  O   UNL     1     -12.478   2.995  -3.962  0.00  0.00    -0.371 OA
ATOM     28  C   UNL     1     -11.357   3.881  -4.001  0.00  0.00    +0.133 C 
ATOM     29  C   UNL     1     -10.378   3.507  -2.877  0.00  0.00    +0.137 C 
ATOM     30  C   UNL     1     -11.837   5.321  -3.801  0.00  0.00    +0.039 C 
ATOM     31  C   UNL     1     -13.425   0.782  -4.194  0.00  0.00    +0.039 C 
ATOM     32  H   UNL     1      -7.966   3.429  -3.039  0.00  0.00    +0.167 HD
ENDBRANCH  17  18
ENDBRANCH   3  17
TORSDOF 5
