REMARK  Name = ZINC02254184
REMARK  8 active torsions:
REMARK  status: ('A' for Active; 'I' for Inactive)
REMARK    1  A    between atoms: C_1  and  O_2
REMARK    2  A    between atoms: O_2  and  C_3
REMARK    3  A    between atoms: C_6  and  C_11
REMARK    4  A    between atoms: C_8  and  O_9
REMARK    5  A    between atoms: O_9  and  C_10
REMARK    6  A    between atoms: C_25  and  S_37
REMARK    7  A    between atoms: C_28  and  C_30
REMARK    8  A    between atoms: S_37  and  C_38
REMARK                            x       y       z     vdW  Elec       q    Type
REMARK                         _______ _______ _______ _____ _____    ______ ____
ROOT
ATOM      1  C   UNL     1       2.507  -2.501  -4.386  0.00  0.00    +0.234 C 
ATOM      2  C   UNL     1       1.515  -2.628  -5.520  0.00  0.00    +0.025 C 
ATOM      3  C   UNL     1       1.390  -1.624  -6.391  0.00  0.00    +0.050 C 
ATOM      4  C   UNL     1       2.249  -0.429  -6.218  0.00  0.00    +0.038 A 
ATOM      5  C   UNL     1       1.958   0.774  -6.849  0.00  0.00    +0.013 A 
ATOM      6  C   UNL     1       2.788   1.862  -6.659  0.00  0.00    +0.001 A 
ATOM      7  C   UNL     1       3.903   1.756  -5.846  0.00  0.00    +0.004 A 
ATOM      8  C   UNL     1       4.200   0.562  -5.213  0.00  0.00    +0.046 A 
ATOM      9  C   UNL     1       3.378  -0.534  -5.394  0.00  0.00    +0.131 A 
ATOM     10  O   UNL     1       3.633  -1.721  -4.790  0.00  0.00    -0.479 OA
ATOM     11  N   UNL     1       0.474  -1.664  -7.448  0.00  0.00    -0.283 N 
ATOM     12  C   UNL     1      -0.489  -2.660  -7.420  0.00  0.00    +0.220 A 
ATOM     13  N   UNL     1      -1.579  -2.802  -8.123  0.00  0.00    -0.187 NA
ATOM     14  C   UNL     1      -2.212  -3.924  -7.747  0.00  0.00    +0.210 A 
ATOM     15  N   UNL     1      -1.518  -4.507  -6.793  0.00  0.00    -0.141 NA
ATOM     16  N   UNL     1      -0.396  -3.710  -6.567  0.00  0.00    -0.220 N 
ATOM     17  C   UNL     1       0.704  -3.895  -5.628  0.00  0.00    +0.175 C 
ATOM     18  H   UNL     1       0.512  -1.020  -8.172  0.00  0.00    +0.155 HD
ENDROOT
BRANCH  17  19
ATOM     19  C   UNL     1       1.589  -5.015  -6.111  0.00  0.00    +0.016 A 
ATOM     20  C   UNL     1       2.227  -4.915  -7.333  0.00  0.00    +0.009 A 
ATOM     21  C   UNL     1       3.039  -5.942  -7.775  0.00  0.00    +0.001 A 
ATOM     22  C   UNL     1       3.215  -7.071  -6.997  0.00  0.00    +0.003 A 
ATOM     23  C   UNL     1       2.578  -7.174  -5.774  0.00  0.00    +0.039 A 
ATOM     24  C   UNL     1       1.769  -6.143  -5.327  0.00  0.00    +0.129 A 
ATOM     25  F   UNL     1       1.150  -6.240  -4.130  0.00  0.00    -0.205 F 
ENDBRANCH  17  19
BRANCH   1  29
ATOM     26  C   UNL     1       0.605  -0.608  -1.057  0.00  0.00    +0.162 A 
ATOM     27  C   UNL     1       1.005   0.144  -2.150  0.00  0.00    +0.050 A 
ATOM     28  C   UNL     1       1.620  -0.470  -3.224  0.00  0.00    +0.011 A 
ATOM     29  C   UNL     1       1.837  -1.836  -3.212  0.00  0.00    +0.001 A 
ATOM     30  C   UNL     1       1.441  -2.592  -2.125  0.00  0.00    +0.057 A 
ATOM     31  C   UNL     1       0.829  -1.981  -1.042  0.00  0.00    +0.162 A 
BRANCH  26  33
ATOM     32  C   UNL     1      -0.197   1.409  -0.083  0.00  0.00    +0.277 C 
ATOM     33  O   UNL     1       0.001  -0.004   0.001  0.00  0.00    -0.491 OA
ENDBRANCH  26  33
BRANCH  31  34
ATOM     34  O   UNL     1       0.444  -2.723   0.031  0.00  0.00    -0.491 OA
ATOM     35  C   UNL     1       0.706  -4.126  -0.023  0.00  0.00    +0.277 C 
ENDBRANCH  31  34
ENDBRANCH   1  29
BRANCH  14  36
ATOM     36  S   UNL     1      -3.728  -4.519  -8.419  0.00  0.00    -0.088 S 
ATOM     37  C   UNL     1      -4.166  -3.284  -9.674  0.00  0.00    +0.093 C 
ENDBRANCH  14  36
TORSDOF 5
