REMARK  Name = ZINC35172408
REMARK  10 active torsions:
REMARK  status: ('A' for Active; 'I' for Inactive)
REMARK    1  A    between atoms: C_1  and  C_2
REMARK    2  A    between atoms: C_2  and  C_3
REMARK    3  A    between atoms: C_2  and  C_4
REMARK    4  A    between atoms: C_2  and  C_5
REMARK    5  A    between atoms: C_5  and  C_6
REMARK    6  A    between atoms: C_6  and  C_7
REMARK    7  A    between atoms: C_6  and  C_8
REMARK    8  A    between atoms: C_6  and  N_9
REMARK    9  A    between atoms: N_9  and  C_10
REMARK   10  A    between atoms: C_11  and  C_19
REMARK                            x       y       z     vdW  Elec       q    Type
REMARK                         _______ _______ _______ _____ _____    ______ ____
ROOT
ATOM      1  C   UNL     1       4.924   0.318  -3.483  0.00  0.00    +0.134 A 
ATOM      2  C   UNL     1       5.789   0.359  -4.557  0.00  0.00    +0.129 A 
ATOM      3  N   UNL     1       6.932   0.946  -4.149  0.00  0.00    -0.207 NA
ATOM      4  C   UNL     1       6.824   1.274  -2.872  0.00  0.00    +0.237 A 
ATOM      5  N   UNL     1       5.575   0.898  -2.430  0.00  0.00    -0.272 N 
ATOM      6  C   UNL     1       5.208   1.133  -1.133  0.00  0.00    +0.097 A 
ATOM      7  C   UNL     1       6.087   1.740  -0.300  0.00  0.00    +0.038 A 
ATOM      8  C   UNL     1       7.350   2.113  -0.785  0.00  0.00    +0.116 A 
ATOM      9  N   UNL     1       7.683   1.871  -2.031  0.00  0.00    -0.220 NA
ENDROOT
BRANCH   2  10
ATOM     10  C   UNL     1       5.512  -0.150  -5.916  0.00  0.00    +0.068 A 
ATOM     11  C   UNL     1       6.376  -0.857  -6.699  0.00  0.00    +0.029 A 
ATOM     12  C   UNL     1       5.712  -1.141  -7.905  0.00  0.00    +0.019 A 
ATOM     13  C   UNL     1       4.474  -0.607  -7.828  0.00  0.00    +0.083 A 
ATOM     14  N   UNL     1       4.339  -0.001  -6.610  0.00  0.00    -0.359 N 
ATOM     15  H   UNL     1       3.547   0.459  -6.292  0.00  0.00    +0.165 HD
ENDBRANCH   2  10
BRANCH   1  16
ATOM     16  N   UNL     1       3.631  -0.208  -3.475  0.00  0.00    -0.323 N 
ATOM     17  H   UNL     1       3.266  -0.611  -4.279  0.00  0.00    +0.148 HD
BRANCH  16  18
ATOM     18  C   UNL     1       2.825  -0.152  -2.253  0.00  0.00    +0.028 C 
ATOM     19  C   UNL     1       2.685   1.303  -1.800  0.00  0.00    +0.031 C 
ATOM     20  C   UNL     1       3.510  -0.965  -1.153  0.00  0.00    +0.031 C 
BRANCH  18  21
ATOM     21  C   UNL     1       1.438  -0.736  -2.530  0.00  0.00    +0.031 C 
BRANCH  21  23
ATOM     22  C   UNL     1       1.500  -1.240  -4.976  0.00  0.00    +0.010 C 
ATOM     23  C   UNL     1       0.960  -0.283  -3.911  0.00  0.00    -0.036 C 
ATOM     24  C   UNL     1       1.473   1.131  -4.190  0.00  0.00    +0.010 C 
ATOM     25  C   UNL     1      -0.569  -0.287  -3.949  0.00  0.00    +0.010 C 
ENDBRANCH  21  23
ENDBRANCH  18  21
ENDBRANCH  16  18
ENDBRANCH   1  16
TORSDOF 5
