REMARK  Name = ZINC09127213
REMARK  12 active torsions:
REMARK  status: ('A' for Active; 'I' for Inactive)
REMARK    1  A    between atoms: C_1  and  C_2
REMARK    2  A    between atoms: C_2  and  C_4
REMARK    3  A    between atoms: C_2  and  N_60
REMARK    4  A    between atoms: C_7  and  S_16
REMARK    5  A    between atoms: N_8  and  C_9
REMARK    6  A    between atoms: S_16  and  C_17
REMARK    7  A    between atoms: C_17  and  C_19
REMARK    8  A    between atoms: C_17  and  C_20
REMARK    9  A    between atoms: N_22  and  C_23
REMARK   10  A    between atoms: C_23  and  C_29
REMARK   11  A    between atoms: C_31  and  N_60
REMARK   12  A    between atoms: C_32  and  N_60
REMARK                            x       y       z     vdW  Elec       q    Type
REMARK                         _______ _______ _______ _____ _____    ______ ____
ROOT
ATOM      1  C   UNL     1      -0.462  -0.833  -0.985  0.00  0.00    +0.125 A 
ATOM      2  N   UNL     1      -0.250  -2.058  -0.594  0.00  0.00    -0.135 NA
ATOM      3  N   UNL     1       0.304  -2.062   0.566  0.00  0.00    -0.122 NA
ATOM      4  C   UNL     1       0.483  -0.830   0.981  0.00  0.00    +0.197 A 
ATOM      5  N   UNL     1       0.002  -0.004   0.002  0.00  0.00    -0.275 N 
ENDROOT
BRANCH   5   6
ATOM      6  C   UNL     1      -0.017   1.399   0.010  0.00  0.00    +0.050 A 
ATOM      7  C   UNL     1      -1.228   2.077   0.019  0.00  0.00    +0.028 A 
ATOM      8  C   UNL     1      -1.244   3.458   0.033  0.00  0.00    +0.022 A 
ATOM      9  C   UNL     1      -0.054   4.165   0.025  0.00  0.00    +0.041 A 
ATOM     10  C   UNL     1       1.154   3.491   0.010  0.00  0.00    +0.022 A 
ATOM     11  C   UNL     1       1.175   2.110   0.002  0.00  0.00    +0.028 A 
ATOM     12 CL   UNL     1      -0.078   5.901   0.035  0.00  0.00    -0.084 Cl
ENDBRANCH   5   6
BRANCH   1  14
ATOM     13  C   UNL     1      -0.100  -0.601  -3.427  0.00  0.00    -0.005 C 
ATOM     14  C   UNL     1      -1.097  -0.407  -2.283  0.00  0.00    -0.003 C 
BRANCH  14  17
ATOM     15  C   UNL     1      -3.236  -1.134  -1.410  0.00  0.00    -0.096 C 
ATOM     16  C   UNL     1      -2.941  -0.834  -3.794  0.00  0.00    -0.096 C 
ATOM     17  N   UNL     1      -2.285  -1.249  -2.536  0.00  0.00    +0.382 N 
ATOM     18  H   UNL     1      -1.988  -2.228  -2.622  0.00  0.00    -0.082 HD
ENDBRANCH  14  17
ENDBRANCH   1  14
BRANCH   4  19
ATOM     19  S   UNL     1       1.206  -0.333   2.509  0.00  0.00    -0.073 S 
BRANCH  19  20
ATOM     20  C   UNL     1       1.573  -1.954   3.225  0.00  0.00    +0.137 C 
ATOM     21  C   UNL     1       0.265  -2.700   3.496  0.00  0.00    +0.029 C 
BRANCH  20  22
ATOM     22  C   UNL     1       2.325  -1.774   4.518  0.00  0.00    +0.227 C 
ATOM     23  O   UNL     1       2.207  -0.746   5.150  0.00  0.00    -0.275 OA
ATOM     24  N   UNL     1       3.130  -2.756   4.972  0.00  0.00    -0.296 N 
ATOM     25  H   UNL     1       3.224  -3.578   4.467  0.00  0.00    +0.150 HD
BRANCH  24  26
ATOM     26  C   UNL     1       3.861  -2.580   6.229  0.00  0.00    +0.121 C 
ATOM     27  C   UNL     1       4.786  -1.367   6.116  0.00  0.00    +0.041 C 
ATOM     28  C   UNL     1       5.550  -1.184   7.429  0.00  0.00    +0.003 C 
ATOM     29  C   UNL     1       6.383  -2.435   7.713  0.00  0.00    +0.000 C 
ATOM     30  C   UNL     1       5.458  -3.648   7.826  0.00  0.00    +0.003 C 
ATOM     31  C   UNL     1       4.694  -3.832   6.514  0.00  0.00    +0.041 C 
BRANCH  26  32
ATOM     32  C   UNL     1       2.905  -2.367   7.328  0.00  0.00    +0.088 C 
ATOM     33  N   UNL     1       2.167  -2.203   8.176  0.00  0.00    -0.194 NA
ENDBRANCH  26  32
ENDBRANCH  24  26
ENDBRANCH  20  22
ENDBRANCH  19  20
ENDBRANCH   4  19
TORSDOF 8
