REMARK  Name = ZINC13223177
REMARK  11 active torsions:
REMARK  status: ('A' for Active; 'I' for Inactive)
REMARK    1  A    between atoms: C_1  and  N_2
REMARK    2  A    between atoms: N_2  and  C_3
REMARK    3  A    between atoms: C_3  and  C_4
REMARK    4  A    between atoms: N_6  and  C_7
REMARK    5  A    between atoms: C_12  and  S_13
REMARK    6  A    between atoms: S_13  and  C_14
REMARK    7  A    between atoms: C_15  and  C_17
REMARK    8  A    between atoms: C_17  and  S_18
REMARK    9  A    between atoms: S_18  and  C_19
REMARK   10  A    between atoms: N_29  and  C_30
REMARK   11  A    between atoms: C_30  and  C_31
REMARK                            x       y       z     vdW  Elec       q    Type
REMARK                         _______ _______ _______ _____ _____    ______ ____
ROOT
ATOM      1  C   UNL     1      -6.001   0.330   0.070  0.00  0.00    +0.132 C 
ATOM      2  N   UNL     1      -6.255  -1.112   0.056  0.00  0.00    -0.295 N 
ATOM      3  C   UNL     1      -5.223  -1.979   0.034  0.00  0.00    +0.226 C 
ATOM      4  O   UNL     1      -5.434  -3.173   0.023  0.00  0.00    -0.275 OA
ENDROOT
BRANCH   2   5
ATOM      5  C   UNL     1      -7.632  -1.613   0.066  0.00  0.00    +0.203 C 
BRANCH   5   6
ATOM      6  C   UNL     1      -8.088  -1.802   1.490  0.00  0.00    +0.235 C 
ATOM      7  O   UNL     1      -7.337  -1.543   2.407  0.00  0.00    -0.274 OA
ATOM      8  N   UNL     1      -9.331  -2.257   1.745  0.00  0.00    -0.283 N 
ATOM      9  H   UNL     1      -9.953  -2.402   1.016  0.00  0.00    +0.155 HD
BRANCH   8  10
ATOM     10  C   UNL     1      -9.723  -2.522   3.064  0.00  0.00    +0.047 A 
ATOM     11  C   UNL     1      -9.249  -1.733   4.102  0.00  0.00    +0.024 A 
ATOM     12  C   UNL     1      -9.642  -1.993   5.402  0.00  0.00    +0.002 A 
ATOM     13  C   UNL     1     -10.498  -3.044   5.674  0.00  0.00    +0.001 A 
ATOM     14  C   UNL     1     -10.971  -3.839   4.647  0.00  0.00    +0.016 A 
ATOM     15  C   UNL     1     -10.586  -3.583   3.338  0.00  0.00    +0.029 A 
BRANCH  15  16
ATOM     16  S   UNL     1     -11.186  -4.595   2.026  0.00  0.00    -0.127 S 
ATOM     17  C   UNL     1     -12.247  -5.808   2.859  0.00  0.00    +0.090 C 
ENDBRANCH  15  16
ENDBRANCH   8  10
ENDBRANCH   5   6
ENDBRANCH   2   5
BRANCH   3  18
ATOM     18  C   UNL     1      -3.807  -1.463   0.024  0.00  0.00    +0.173 C 
BRANCH  18  19
ATOM     19  S   UNL     1      -2.657  -2.861  -0.005  0.00  0.00    -0.078 S 
BRANCH  19  20
ATOM     20  C   UNL     1      -1.123  -1.994  -0.013  0.00  0.00    +0.173 A 
ATOM     21  N   UNL     1      -1.145  -0.684   0.004  0.00  0.00    -0.223 NA
ATOM     22  C   UNL     1      -0.010   0.042  -0.001  0.00  0.00    +0.079 A 
ATOM     23  C   UNL     1      -0.034   1.440   0.016  0.00  0.00    +0.028 A 
ATOM     24  C   UNL     1       1.141   2.137   0.011  0.00  0.00    +0.002 A 
ATOM     25  C   UNL     1       2.364   1.477  -0.011  0.00  0.00    +0.001 A 
ATOM     26  C   UNL     1       2.420   0.110  -0.028  0.00  0.00    +0.015 A 
ATOM     27  C   UNL     1       1.236  -0.626  -0.024  0.00  0.00    +0.065 A 
ATOM     28  C   UNL     1       1.235  -2.095  -0.041  0.00  0.00    +0.263 A 
ATOM     29  O   UNL     1       2.275  -2.727  -0.060  0.00  0.00    -0.267 OA
ATOM     30  N   UNL     1       0.034  -2.719  -0.034  0.00  0.00    -0.276 N 
BRANCH  30  31
ATOM     31  C   UNL     1      -0.025  -4.183  -0.051  0.00  0.00    +0.252 C 
BRANCH  31  32
ATOM     32  C   UNL     1      -0.028  -4.702   1.364  0.00  0.00    +0.375 C 
ATOM     33  O   UNL     1       0.014  -3.928   2.291  0.00  0.00    -0.244 OA
ATOM     34  O   UNL     1      -0.078  -6.023   1.594  0.00  0.00    -0.244 OA
ENDBRANCH  31  32
ENDBRANCH  30  31
ENDBRANCH  19  20
ENDBRANCH  18  19
ENDBRANCH   3  18
TORSDOF 9
