REMARK  Name = ZINC40035913
REMARK  8 active torsions:
REMARK  status: ('A' for Active; 'I' for Inactive)
REMARK    1  A    between atoms: C_1  and  C_2
REMARK    2  A    between atoms: C_2  and  C_3
REMARK    3  A    between atoms: C_3  and  C_4
REMARK    4  A    between atoms: C_4  and  C_31
REMARK    5  A    between atoms: N_16  and  C_28
REMARK    6  A    between atoms: N_19  and  N_20
REMARK    7  A    between atoms: C_21  and  C_22
REMARK    8  A    between atoms: C_28  and  C_29
REMARK                            x       y       z     vdW  Elec       q    Type
REMARK                         _______ _______ _______ _____ _____    ______ ____
ROOT
ATOM      1  C   UNL     1      -1.413  -2.063   0.004  0.00  0.00    +0.004 C 
ATOM      2  C   UNL     1      -2.878  -2.485  -0.071  0.00  0.00    +0.047 C 
ATOM      3  C   UNL     1      -3.575  -2.212   1.235  0.00  0.00    -0.037 A 
ATOM      4  C   UNL     1      -4.893  -1.805   1.252  0.00  0.00    +0.004 A 
ATOM      5  C   UNL     1      -5.527  -1.560   2.457  0.00  0.00    +0.000 A 
ATOM      6  C   UNL     1      -4.848  -1.720   3.651  0.00  0.00    +0.001 A 
ATOM      7  C   UNL     1      -3.528  -2.126   3.648  0.00  0.00    +0.010 A 
ATOM      8  C   UNL     1      -2.885  -2.371   2.438  0.00  0.00    +0.004 A 
ATOM      9  C   UNL     1      -1.468  -2.796   2.401  0.00  0.00    +0.084 A 
ATOM     10  C   UNL     1      -0.755  -2.652   1.220  0.00  0.00    +0.049 A 
ATOM     11  C   UNL     1       0.584  -3.063   1.186  0.00  0.00    +0.260 A 
ATOM     12  O   UNL     1       1.244  -2.953   0.165  0.00  0.00    -0.267 OA
ATOM     13  N   UNL     1       1.130  -3.583   2.307  0.00  0.00    -0.276 N 
ATOM     14  C   UNL     1       0.387  -3.697   3.442  0.00  0.00    +0.219 A 
ATOM     15  N   UNL     1      -0.873  -3.314   3.481  0.00  0.00    -0.214 NA
ATOM     16  N   UNL     1       0.962  -4.223   4.569  0.00  0.00    -0.206 N 
ATOM     17  C   UNL     1      -0.683  -2.551  -1.249  0.00  0.00    +0.017 C 
ATOM     18  H   UNL     1       1.889  -4.510   4.552  0.00  0.00    +0.177 HD
ENDROOT
BRANCH  16  19
ATOM     19  N   UNL     1       0.212  -4.348   5.746  0.00  0.00    -0.188 NA
ATOM     20  C   UNL     1       0.757  -4.846   6.813  0.00  0.00    +0.138 C 
BRANCH  20  21
ATOM     21  C   UNL     1      -0.033  -4.978   8.052  0.00  0.00    -0.005 A 
ATOM     22  C   UNL     1      -1.369  -4.572   8.078  0.00  0.00    +0.009 A 
ATOM     23  C   UNL     1      -2.101  -4.697   9.240  0.00  0.00    +0.001 A 
ATOM     24  C   UNL     1      -1.516  -5.224  10.378  0.00  0.00    +0.000 A 
ATOM     25  C   UNL     1      -0.192  -5.628  10.359  0.00  0.00    +0.001 A 
ATOM     26  C   UNL     1       0.551  -5.514   9.203  0.00  0.00    +0.009 A 
ENDBRANCH  20  21
ENDBRANCH  16  19
BRANCH   1  27
ATOM     27  C   UNL     1      -1.329  -0.537   0.075  0.00  0.00    +0.011 C 
BRANCH  27  29
ATOM     28  C   UNL     1       0.222   1.418   0.192  0.00  0.00    +0.004 C 
ATOM     29  C   UNL     1       0.138  -0.108   0.122  0.00  0.00    -0.003 C 
ENDBRANCH  27  29
ENDBRANCH   1  27
BRANCH  13  30
ATOM     30  C   UNL     1       2.526  -4.025   2.301  0.00  0.00    +0.155 C 
BRANCH  30  31
ATOM     31  C   UNL     1       3.418  -2.878   2.700  0.00  0.00    -0.013 C 
ATOM     32  C   UNL     1       4.252  -3.014   3.702  0.00  0.00    +0.005 C 
ENDBRANCH  30  31
ENDBRANCH  13  30
TORSDOF 6
