REMARK  Name = ZINC09410234
REMARK  10 active torsions:
REMARK  status: ('A' for Active; 'I' for Inactive)
REMARK    1  A    between atoms: C_1  and  C_2
REMARK    2  A    between atoms: C_2  and  C_3
REMARK    3  A    between atoms: C_5  and  C_21
REMARK    4  A    between atoms: C_6  and  O_20
REMARK    5  A    between atoms: C_8  and  O_9
REMARK    6  A    between atoms: O_9  and  C_10
REMARK    7  A    between atoms: C_10  and  C_11
REMARK    8  A    between atoms: C_14  and  N_17
REMARK    9  A    between atoms: C_22  and  C_28
REMARK   10  A    between atoms: C_23  and  C_27
REMARK                            x       y       z     vdW  Elec       q    Type
REMARK                         _______ _______ _______ _____ _____    ______ ____
ROOT
ATOM      1  C   UNL     1      -1.214  -0.240   0.342  0.00  0.00    -0.005 A 
ATOM      2  C   UNL     1      -1.879  -0.697   1.460  0.00  0.00    +0.021 A 
ATOM      3  C   UNL     1      -3.204  -1.116   1.360  0.00  0.00    +0.045 A 
ATOM      4  C   UNL     1      -3.856  -1.070   0.123  0.00  0.00    +0.130 A 
ATOM      5  C   UNL     1      -3.181  -0.609  -0.994  0.00  0.00    +0.092 A 
ATOM      6  C   UNL     1      -1.863  -0.189  -0.885  0.00  0.00    +0.128 A 
ENDROOT
BRANCH   3   7
ATOM      7  C   UNL     1      -3.921  -1.609   2.560  0.00  0.00    +0.104 A 
ATOM      8  C   UNL     1      -3.425  -2.544   3.504  0.00  0.00    +0.030 A 
ATOM      9  C   UNL     1      -4.390  -2.723   4.449  0.00  0.00    +0.041 A 
ATOM     10  N   UNL     1      -5.440  -1.943   4.120  0.00  0.00    -0.281 N 
ATOM     11  H   UNL     1      -6.270  -1.870   4.617  0.00  0.00    +0.189 HD
ATOM     12  N   UNL     1      -5.127  -1.252   2.943  0.00  0.00    -0.173 NA
ATOM     13  C   UNL     1      -4.300  -3.632   5.647  0.00  0.00    +0.065 C 
BRANCH   8  14
ATOM     14  C   UNL     1      -2.098  -3.206   3.468  0.00  0.00    -0.010 A 
ATOM     15  C   UNL     1      -1.794  -4.108   2.450  0.00  0.00    +0.012 A 
ATOM     16  C   UNL     1      -0.560  -4.724   2.420  0.00  0.00    +0.050 A 
ATOM     17  C   UNL     1       0.383  -4.449   3.400  0.00  0.00    +0.162 A 
ATOM     18  C   UNL     1       0.086  -3.548   4.417  0.00  0.00    +0.163 A 
ATOM     19  C   UNL     1      -1.150  -2.924   4.449  0.00  0.00    +0.058 A 
ATOM     20  O   UNL     1       1.002  -3.260   5.383  0.00  0.00    -0.485 OA
ATOM     21  C   UNL     1       2.093  -4.176   5.528  0.00  0.00    +0.270 C 
ATOM     22  C   UNL     1       2.646  -4.491   4.132  0.00  0.00    +0.270 C 
ATOM     23  O   UNL     1       1.593  -5.071   3.353  0.00  0.00    -0.485 OA
ENDBRANCH   8  14
ENDBRANCH   3   7
BRANCH   1  25
ATOM     24  C   UNL     1       0.261   1.729   0.656  0.00  0.00    +0.009 C 
ATOM     25  C   UNL     1       0.219   0.213   0.452  0.00  0.00    +0.035 C 
ENDBRANCH   1  25
BRANCH   4  26
ATOM     26  O   UNL     1      -5.148  -1.476   0.019  0.00  0.00    -0.506 OA
ATOM     27  H   UNL     1      -5.793  -0.759   0.086  0.00  0.00    +0.292 HD
ENDBRANCH   4  26
BRANCH   6  28
ATOM     28  O   UNL     1      -1.205   0.268  -1.982  0.00  0.00    -0.487 OA
BRANCH  28  29
ATOM     29  C   UNL     1      -1.932   0.293  -3.212  0.00  0.00    +0.264 C 
BRANCH  29  30
ATOM     30  C   UNL     1      -1.046   0.825  -4.309  0.00  0.00    -0.010 A 
ATOM     31  C   UNL     1      -1.005   2.183  -4.566  0.00  0.00    +0.009 A 
ATOM     32  C   UNL     1      -0.193   2.671  -5.572  0.00  0.00    +0.033 A 
ATOM     33  C   UNL     1       0.579   1.802  -6.320  0.00  0.00    +0.126 A 
ATOM     34  C   UNL     1       0.539   0.444  -6.062  0.00  0.00    +0.033 A 
ATOM     35  C   UNL     1      -0.271  -0.043  -5.053  0.00  0.00    +0.009 A 
BRANCH  33  36
ATOM     36  N   UNL     1       1.448   2.324  -7.398  0.00  0.00    +0.056 N 
ATOM     37  O   UNL     1       1.484   3.511  -7.625  0.00  0.00    -0.126 OA
ATOM     38  O   UNL     1       2.124   1.564  -8.053  0.00  0.00    -0.126 OA
ENDBRANCH  33  36
ENDBRANCH  29  30
ENDBRANCH  28  29
ENDBRANCH   6  28
TORSDOF 8
