REMARK  Name = ZINC64945977
REMARK  9 active torsions:
REMARK  status: ('A' for Active; 'I' for Inactive)
REMARK    1  A    between atoms: C_1  and  C_2
REMARK    2  A    between atoms: C_5  and  N_9
REMARK    3  A    between atoms: C_6  and  C_8
REMARK    4  A    between atoms: C_10  and  C_12
REMARK    5  A    between atoms: C_12  and  N_13
REMARK    6  A    between atoms: C_27  and  C_31
REMARK    7  A    between atoms: C_31  and  C_32
REMARK    8  A    between atoms: C_31  and  C_33
REMARK    9  A    between atoms: C_31  and  C_34
REMARK                            x       y       z     vdW  Elec       q    Type
REMARK                         _______ _______ _______ _____ _____    ______ ____
ROOT
ATOM      1  N   UNL     1      -0.232  -6.826  -2.567  0.00  0.00    -0.203 N 
ATOM      2  C   UNL     1       0.800  -7.161  -3.369  0.00  0.00    +0.353 A 
ATOM      3  O   UNL     1       1.982  -7.117  -3.076  0.00  0.00    -0.244 OA
ATOM      4  N   UNL     1       0.290  -7.555  -4.555  0.00  0.00    -0.233 N 
ATOM      5  C   UNL     1       0.886  -7.991  -5.710  0.00  0.00    +0.211 A 
ATOM      6  N   UNL     1       0.186  -8.325  -6.753  0.00  0.00    -0.229 NA
ATOM      7  C   UNL     1      -1.145  -8.268  -6.771  0.00  0.00    +0.114 A 
ATOM      8  C   UNL     1      -1.892  -7.841  -5.666  0.00  0.00    +0.056 A 
ATOM      9  C   UNL     1      -1.087  -7.459  -4.477  0.00  0.00    +0.173 A 
ATOM     10  N   UNL     1      -1.416  -7.029  -3.292  0.00  0.00    -0.148 NA
ATOM     11  C   UNL     1      -3.301  -7.826  -5.813  0.00  0.00    -0.024 A 
ATOM     12  C   UNL     1      -3.812  -8.222  -7.003  0.00  0.00    -0.004 A 
ATOM     13  S   UNL     1      -2.392  -8.635  -7.981  0.00  0.00    -0.073 S 
ATOM     14  C   UNL     1      -5.254  -8.292  -7.397  0.00  0.00    +0.046 C 
ATOM     15  C   UNL     1      -6.075  -7.498  -6.371  0.00  0.00    -0.000 C 
ATOM     16  C   UNL     1      -5.635  -7.911  -4.963  0.00  0.00    +0.009 C 
ATOM     17  C   UNL     1      -4.227  -7.383  -4.683  0.00  0.00    +0.037 C 
ENDROOT
BRANCH  15  18
ATOM     18  C   UNL     1      -7.563  -7.804  -6.557  0.00  0.00    -0.035 C 
ATOM     19  C   UNL     1      -7.805  -9.301  -6.353  0.00  0.00    +0.011 C 
ATOM     20  C   UNL     1      -8.378  -7.011  -5.533  0.00  0.00    +0.011 C 
ATOM     21  C   UNL     1      -7.993  -7.405  -7.970  0.00  0.00    +0.011 C 
ENDBRANCH  15  18
BRANCH   1  22
ATOM     22  C   UNL     1      -0.134  -6.343  -1.187  0.00  0.00    +0.244 C 
BRANCH  22  24
ATOM     23  N   UNL     1       0.059  -4.170  -0.021  0.00  0.00    -0.284 N 
ATOM     24  C   UNL     1      -0.040  -4.839  -1.187  0.00  0.00    +0.239 C 
ATOM     25  O   UNL     1      -0.054  -4.230  -2.236  0.00  0.00    -0.273 OA
ATOM     26  H   UNL     1       0.135  -4.658   0.814  0.00  0.00    +0.155 HD
BRANCH  23  31
ATOM     27  C   UNL     1       0.025   1.503   0.005  0.00  0.00    +0.044 C 
ATOM     28  C   UNL     1       0.034  -0.004  -0.002  0.00  0.00    -0.050 A 
ATOM     29  C   UNL     1       0.632  -0.685  -1.046  0.00  0.00    +0.005 A 
ATOM     30  C   UNL     1       0.641  -2.066  -1.055  0.00  0.00    +0.024 A 
ATOM     31  C   UNL     1       0.051  -2.771  -0.014  0.00  0.00    +0.036 A 
ATOM     32  C   UNL     1      -0.548  -2.083   1.033  0.00  0.00    -0.029 A 
ATOM     33  C   UNL     1      -0.550  -0.702   1.039  0.00  0.00    +0.008 A 
ATOM     34  C   UNL     1      -1.190  -2.843   2.165  0.00  0.00    +0.045 C 
ENDBRANCH  23  31
ENDBRANCH  22  24
ENDBRANCH   1  22
TORSDOF 4
