REMARK  Name = ZINC36346599
REMARK  18 active torsions:
REMARK  status: ('A' for Active; 'I' for Inactive)
REMARK    1  A    between atoms: C_1  and  C_2
REMARK    2  A    between atoms: C_2  and  C_3
REMARK    3  A    between atoms: C_3  and  N_4
REMARK    4  A    between atoms: N_4  and  C_5
REMARK    5  A    between atoms: N_4  and  C_27
REMARK    6  A    between atoms: C_5  and  C_6
REMARK    7  A    between atoms: C_7  and  C_26
REMARK    8  A    between atoms: N_9  and  C_19
REMARK    9  A    between atoms: C_10  and  O_11
REMARK   10  A    between atoms: O_11  and  C_12
REMARK   11  A    between atoms: C_27  and  C_28
REMARK   12  A    between atoms: C_28  and  C_30
REMARK   13  A    between atoms: C_28  and  O_36
REMARK   14  A    between atoms: C_30  and  O_31
REMARK   15  A    between atoms: O_31  and  C_32
REMARK   16  A    between atoms: C_32  and  C_33
REMARK   17  A    between atoms: C_33  and  C_34
REMARK   18  A    between atoms: C_33  and  C_35
REMARK                            x       y       z     vdW  Elec       q    Type
REMARK                         _______ _______ _______ _____ _____    ______ ____
ROOT
ATOM      1  C   UNL     1      -0.606  -4.395   1.446  0.00  0.00    +0.021 A 
ATOM      2  C   UNL     1      -1.626  -5.350   1.413  0.00  0.00    +0.065 A 
ATOM      3  N   UNL     1      -1.098  -6.511   1.122  0.00  0.00    -0.168 NA
ATOM      4  N   UNL     1       0.283  -6.340   0.958  0.00  0.00    -0.200 N 
ATOM      5  C   UNL     1       0.565  -5.024   1.158  0.00  0.00    +0.225 A 
ATOM      6  C   UNL     1      -3.088  -5.087   1.669  0.00  0.00    +0.068 C 
ENDROOT
BRANCH   4   7
ATOM      7  C   UNL     1       1.208  -7.344   0.640  0.00  0.00    +0.069 A 
ATOM      8  C   UNL     1       2.256  -7.074  -0.230  0.00  0.00    +0.031 A 
ATOM      9  C   UNL     1       3.166  -8.065  -0.542  0.00  0.00    +0.040 A 
ATOM     10  C   UNL     1       3.035  -9.327   0.012  0.00  0.00    +0.124 A 
ATOM     11  C   UNL     1       1.991  -9.598   0.881  0.00  0.00    +0.040 A 
ATOM     12  C   UNL     1       1.082  -8.608   1.200  0.00  0.00    +0.031 A 
ATOM     13  F   UNL     1       3.926 -10.294  -0.294  0.00  0.00    -0.205 F 
ENDBRANCH   4   7
BRANCH   1  14
ATOM     14  C   UNL     1      -0.774  -2.927   1.744  0.00  0.00    -0.036 C 
BRANCH  14  15
ATOM     15  N   UNL     1      -0.883  -2.182   0.483  0.00  0.00    +0.384 N 
ATOM     16  H   UNL     1      -0.098  -2.407  -0.110  0.00  0.00    -0.081 HD
BRANCH  15  17
ATOM     17  C   UNL     1      -0.885  -0.740   0.765  0.00  0.00    -0.079 C 
BRANCH  17  19
ATOM     18  C   UNL     1      -2.082   1.095   1.967  0.00  0.00    +0.002 C 
ATOM     19  C   UNL     1      -2.144  -0.377   1.556  0.00  0.00    -0.022 C 
ENDBRANCH  17  19
ENDBRANCH  15  17
BRANCH  15  20
ATOM     20  C   UNL     1      -2.132  -2.550  -0.197  0.00  0.00    -0.044 C 
BRANCH  20  21
ATOM     21  C   UNL     1      -2.165  -1.907  -1.585  0.00  0.00    +0.124 C 
BRANCH  21  22
ATOM     22  O   UNL     1      -2.251  -0.487  -1.451  0.00  0.00    -0.391 OA
ATOM     23  H   UNL     1      -3.037  -0.183  -0.977  0.00  0.00    +0.210 HD
ENDBRANCH  21  22
BRANCH  21  24
ATOM     24  C   UNL     1      -3.383  -2.421  -2.356  0.00  0.00    +0.189 C 
BRANCH  24  25
ATOM     25  O   UNL     1      -3.351  -1.912  -3.691  0.00  0.00    -0.377 OA
BRANCH  25  26
ATOM     26  C   UNL     1      -4.451  -2.334  -4.500  0.00  0.00    +0.163 C 
BRANCH  26  27
ATOM     27  C   UNL     1      -4.314  -1.733  -5.900  0.00  0.00    +0.009 C 
ATOM     28  C   UNL     1      -5.421  -2.283  -6.802  0.00  0.00    +0.009 C 
ATOM     29  C   UNL     1      -4.435  -0.210  -5.815  0.00  0.00    +0.009 C 
ENDBRANCH  26  27
ENDBRANCH  25  26
ENDBRANCH  24  25
ENDBRANCH  21  24
ENDBRANCH  20  21
ENDBRANCH  15  20
ENDBRANCH  14  15
ENDBRANCH   1  14
BRANCH   5  30
ATOM     30  O   UNL     1       1.790  -4.446   1.085  0.00  0.00    -0.435 OA
BRANCH  30  31
ATOM     31  C   UNL     1       2.578  -4.477   2.192  0.00  0.00    +0.165 A 
ATOM     32  C   UNL     1       2.168  -5.178   3.317  0.00  0.00    +0.049 A 
ATOM     33  C   UNL     1       2.970  -5.208   4.441  0.00  0.00    +0.004 A 
ATOM     34  C   UNL     1       4.181  -4.541   4.448  0.00  0.00    +0.003 A 
ATOM     35  C   UNL     1       4.594  -3.841   3.329  0.00  0.00    +0.042 A 
ATOM     36  C   UNL     1       3.798  -3.812   2.198  0.00  0.00    +0.165 A 
ATOM     37  F   UNL     1       4.203  -3.133   1.103  0.00  0.00    -0.202 F 
ENDBRANCH  30  31
ENDBRANCH   5  30
TORSDOF 14
