REMARK  Name = ZINC63376318
REMARK  8 active torsions:
REMARK  status: ('A' for Active; 'I' for Inactive)
REMARK    1  A    between atoms: C_6  and  N_7
REMARK    2  A    between atoms: C_8  and  C_10
REMARK    3  A    between atoms: C_10  and  C_11
REMARK    4  A    between atoms: C_11  and  C_12
REMARK    5  A    between atoms: N_16  and  C_20
REMARK    6  A    between atoms: C_17  and  O_19
REMARK    7  A    between atoms: C_20  and  C_21
REMARK    8  A    between atoms: C_21  and  C_22
REMARK                            x       y       z     vdW  Elec       q    Type
REMARK                         _______ _______ _______ _____ _____    ______ ____
ROOT
ATOM      1  C   UNL     1      -6.141  -0.659   0.479  0.00  0.00    +0.197 C 
ATOM      2  C   UNL     1      -7.329   0.282   0.522  0.00  0.00    +0.248 C 
ATOM      3  O   UNL     1      -7.680   1.066  -0.334  0.00  0.00    -0.273 OA
ATOM      4  N   UNL     1      -7.911   0.058   1.719  0.00  0.00    -0.224 N 
ATOM      5  C   UNL     1      -7.227  -0.905   2.416  0.00  0.00    +0.285 C 
ATOM      6  N   UNL     1      -6.200  -1.365   1.769  0.00  0.00    -0.224 NA
ENDROOT
BRANCH   5   7
ATOM      7  O   UNL     1      -7.584  -1.331   3.647  0.00  0.00    -0.481 OA
ATOM      8  H   UNL     1      -7.005  -2.014   4.011  0.00  0.00    +0.295 HD
ENDBRANCH   5   7
BRANCH   1   9
ATOM      9  C   UNL     1      -4.835   0.129   0.358  0.00  0.00    +0.045 C 
BRANCH   9  10
ATOM     10  C   UNL     1      -3.661  -0.845   0.242  0.00  0.00    +0.098 C 
BRANCH  10  12
ATOM     11  N   UNL     1      -1.201  -0.721   0.008  0.00  0.00    -0.285 N 
ATOM     12  C   UNL     1      -2.375  -0.068   0.122  0.00  0.00    +0.217 C 
ATOM     13  O   UNL     1      -2.396   1.145   0.129  0.00  0.00    -0.275 OA
ATOM     14  H   UNL     1      -1.190  -1.688  -0.075  0.00  0.00    +0.155 HD
BRANCH  11  20
ATOM     15  C   UNL     1       0.120   1.155   0.762  0.00  0.00    +0.027 A 
ATOM     16  C   UNL     1       1.307   1.863   0.761  0.00  0.00    +0.051 A 
ATOM     17  C   UNL     1       2.383   1.419   0.007  0.00  0.00    +0.162 A 
ATOM     18  C   UNL     1       2.268   0.257  -0.747  0.00  0.00    +0.164 A 
ATOM     19  C   UNL     1       1.077  -0.453  -0.747  0.00  0.00    +0.072 A 
ATOM     20  C   UNL     1       0.002  -0.004   0.008  0.00  0.00    +0.037 A 
ATOM     21  O   UNL     1       3.316  -0.199  -1.487  0.00  0.00    -0.485 OA
ATOM     22  C   UNL     1       4.367   0.734  -1.758  0.00  0.00    +0.270 C 
ATOM     23  C   UNL     1       4.716   1.458  -0.451  0.00  0.00    +0.270 C 
ATOM     24  O   UNL     1       3.542   2.132   0.016  0.00  0.00    -0.485 OA
ENDBRANCH  11  20
ENDBRANCH  10  12
ENDBRANCH   9  10
ENDBRANCH   1   9
BRANCH   4  25
ATOM     25  C   UNL     1      -9.107   0.748   2.206  0.00  0.00    +0.122 C 
BRANCH  25  26
ATOM     26  C   UNL     1     -10.354  -0.031   1.782  0.00  0.00    +0.052 C 
BRANCH  26  27
ATOM     27  C   UNL     1     -11.585   0.679   2.283  0.00  0.00    -0.040 C 
ATOM     28  C   UNL     1     -12.351   1.560   1.600  0.00  0.00    +0.000 A 
ATOM     29  C   UNL     1     -12.269   2.101   0.238  0.00  0.00    +0.030 A 
ATOM     30  C   UNL     1     -13.203   2.990  -0.173  0.00  0.00    +0.042 A 
ATOM     31  C   UNL     1     -14.245   3.406   0.670  0.00  0.00    +0.022 A 
ATOM     32  C   UNL     1     -14.385   2.954   1.933  0.00  0.00    +0.027 A 
ATOM     33  C   UNL     1     -13.459   2.015   2.469  0.00  0.00    +0.043 A 
ATOM     34  N   UNL     1     -13.382   1.439   3.643  0.00  0.00    -0.380 N 
ATOM     35  C   UNL     1     -12.218   0.546   3.650  0.00  0.00    +0.144 C 
ATOM     36 CL   UNL     1     -13.110   3.631  -1.783  0.00  0.00    -0.084 Cl
ATOM     37  H   UNL     1     -13.995   1.576   4.383  0.00  0.00    +0.160 HD
ENDBRANCH  26  27
ENDBRANCH  25  26
ENDBRANCH   4  25
TORSDOF 8
