REMARK  Name = ZINC43135829
REMARK  6 active torsions:
REMARK  status: ('A' for Active; 'I' for Inactive)
REMARK    1  A    between atoms: C_1  and  N_2
REMARK    2  A    between atoms: N_2  and  C_3
REMARK    3  A    between atoms: N_15  and  C_16
REMARK    4  A    between atoms: C_16  and  C_17
REMARK    5  A    between atoms: C_17  and  C_19
REMARK    6  A    between atoms: C_17  and  N_24
REMARK                            x       y       z     vdW  Elec       q    Type
REMARK                         _______ _______ _______ _____ _____    ______ ____
ROOT
ATOM      1  C   UNL     1      -0.777   1.450  -0.011  0.00  0.00    +0.134 C 
ATOM      2  N   UNL     1      -0.753  -0.014  -0.069  0.00  0.00    -0.282 N 
ATOM      3  C   UNL     1      -0.662  -0.640  -1.259  0.00  0.00    +0.302 C 
ATOM      4  O   UNL     1      -0.641  -1.854  -1.308  0.00  0.00    -0.253 OA
ATOM      5  N   UNL     1      -0.593   0.081  -2.396  0.00  0.00    -0.300 N 
ATOM      6  H   UNL     1      -0.610   1.050  -2.357  0.00  0.00    +0.150 HD
ENDROOT
BRANCH   2   7
ATOM      7  C   UNL     1      -0.827  -0.798   1.167  0.00  0.00    +0.108 C 
ATOM      8  C   UNL     1      -2.142  -0.493   1.916  0.00  0.00    +0.032 C 
ATOM      9  C   UNL     1      -1.723   0.642   2.873  0.00  0.00    +0.037 C 
ATOM     10  C   UNL     1      -0.239   0.443   3.098  0.00  0.00    -0.042 A 
ATOM     11  C   UNL     1       0.277  -0.386   2.117  0.00  0.00    -0.024 A 
ATOM     12  C   UNL     1       1.623  -0.710   2.123  0.00  0.00    +0.006 A 
ATOM     13  C   UNL     1       2.455  -0.209   3.105  0.00  0.00    +0.000 A 
ATOM     14  C   UNL     1       1.942   0.619   4.086  0.00  0.00    +0.000 A 
ATOM     15  C   UNL     1       0.594   0.946   4.083  0.00  0.00    +0.004 A 
ENDBRANCH   2   7
BRANCH   5  16
ATOM     16  C   UNL     1      -0.494  -0.599  -3.690  0.00  0.00    +0.098 C 
BRANCH  16  17
ATOM     17  C   UNL     1      -0.324   0.440  -4.800  0.00  0.00    +0.016 C 
BRANCH  17  18
ATOM     18  N   UNL     1      -1.411   1.425  -4.721  0.00  0.00    +0.387 N 
ATOM     19  C   UNL     1      -2.702   0.728  -4.731  0.00  0.00    -0.078 C 
ATOM     20  C   UNL     1      -3.836   1.743  -4.566  0.00  0.00    -0.019 C 
ATOM     21  C   UNL     1      -3.786   2.746  -5.723  0.00  0.00    -0.004 C 
ATOM     22  C   UNL     1      -2.408   3.413  -5.748  0.00  0.00    -0.019 C 
ATOM     23  C   UNL     1      -1.328   2.336  -5.868  0.00  0.00    -0.078 C 
ATOM     24  H   UNL     1      -1.323   1.953  -3.866  0.00  0.00    -0.081 HD
ENDBRANCH  17  18
BRANCH  17  25
ATOM     25  C   UNL     1      -0.365  -0.246  -6.141  0.00  0.00    +0.093 A 
ATOM     26  C   UNL     1       0.702  -0.553  -6.901  0.00  0.00    +0.043 A 
ATOM     27  C   UNL     1       0.208  -1.184  -8.065  0.00  0.00    +0.041 A 
ATOM     28  C   UNL     1      -1.132  -1.226  -7.947  0.00  0.00    +0.195 A 
ATOM     29  O   UNL     1      -1.472  -0.661  -6.777  0.00  0.00    -0.469 OA
ENDBRANCH  17  25
ENDBRANCH  16  17
ENDBRANCH   5  16
TORSDOF 5
