REMARK  Name = ZINC31156899
REMARK  18 active torsions:
REMARK  status: ('A' for Active; 'I' for Inactive)
REMARK    1  A    between atoms: C_1  and  C_2
REMARK    2  A    between atoms: C_2  and  C_3
REMARK    3  A    between atoms: C_3  and  C_4
REMARK    4  A    between atoms: C_4  and  O_6
REMARK    5  A    between atoms: O_6  and  C_7
REMARK    6  A    between atoms: C_10  and  C_36
REMARK    7  A    between atoms: C_10  and  O_37
REMARK    8  A    between atoms: C_14  and  O_29
REMARK    9  A    between atoms: C_16  and  C_28
REMARK   10  A    between atoms: C_20  and  O_27
REMARK   11  A    between atoms: C_21  and  C_25
REMARK   12  A    between atoms: C_21  and  O_26
REMARK   13  A    between atoms: O_29  and  C_30
REMARK   14  A    between atoms: C_30  and  C_32
REMARK   15  A    between atoms: C_32  and  C_35
REMARK   16  A    between atoms: C_33  and  C_34
REMARK   17  A    between atoms: O_37  and  C_38
REMARK   18  A    between atoms: C_38  and  C_40
REMARK                            x       y       z     vdW  Elec       q    Type
REMARK                         _______ _______ _______ _____ _____    ______ ____
ROOT
ATOM      1  C   UNL     1       1.344  -4.101   2.159  0.00  0.00    +0.219 C 
ATOM      2  C   UNL     1       0.092  -4.733   2.748  0.00  0.00    +0.096 C 
ATOM      3  C   UNL     1      -0.305  -4.310   4.156  0.00  0.00    +0.121 C 
ATOM      4  C   UNL     1       0.314  -5.218   5.220  0.00  0.00    +0.066 C 
ATOM      5  C   UNL     1      -0.411  -6.558   5.373  0.00  0.00    +0.061 C 
ATOM      6  C   UNL     1       0.770  -7.432   5.870  0.00  0.00    +0.203 C 
ATOM      7  C   UNL     1       1.986  -6.803   5.219  0.00  0.00    -0.029 C 
ATOM      8  C   UNL     1       1.744  -5.562   4.855  0.00  0.00    -0.017 C 
ATOM      9  C   UNL     1       2.704  -4.625   4.222  0.00  0.00    +0.242 C 
ATOM     10  C   UNL     1       2.603  -4.728   2.695  0.00  0.00    +0.182 C 
ATOM     11  C   UNL     1       3.929  -4.085   2.263  0.00  0.00    +0.195 C 
ATOM     12  C   UNL     1       4.786  -4.174   3.524  0.00  0.00    +0.343 C 
ATOM     13  O   UNL     1       5.898  -3.720   3.649  0.00  0.00    -0.247 OA
ATOM     14  O   UNL     1       4.091  -4.845   4.476  0.00  0.00    -0.452 OA
ATOM     15  C   UNL     1       4.573  -4.899   1.133  0.00  0.00    +0.057 C 
ATOM     16  C   UNL     1       3.287  -7.540   5.035  0.00  0.00    +0.043 C 
ATOM     17  C   UNL     1      -0.043  -2.846   4.492  0.00  0.00    +0.056 C 
ENDROOT
BRANCH  11  18
ATOM     18  O   UNL     1       3.777  -2.725   1.863  0.00  0.00    -0.375 OA
ATOM     19  H   UNL     1       4.601  -2.302   1.587  0.00  0.00    +0.211 HD
ENDBRANCH  11  18
BRANCH  10  20
ATOM     20  O   UNL     1       2.624  -6.114   2.311  0.00  0.00    -0.378 OA
ATOM     21  H   UNL     1       2.598  -6.258   1.355  0.00  0.00    +0.211 HD
ENDBRANCH  10  20
BRANCH   1  22
ATOM     22  O   UNL     1       1.362  -2.686   2.231  0.00  0.00    -0.458 OA
BRANCH  22  23
ATOM     23  C   UNL     1       0.762  -2.018   1.233  0.00  0.00    +0.307 C 
ATOM     24  O   UNL     1       0.239  -2.624   0.329  0.00  0.00    -0.251 OA
BRANCH  23  25
ATOM     25  C   UNL     1       0.742  -0.511   1.242  0.00  0.00    +0.120 C 
BRANCH  25  27
ATOM     26  C   UNL     1      -0.019   1.526   0.010  0.00  0.00    +0.004 C 
ATOM     27  C   UNL     1       0.002  -0.004   0.002  0.00  0.00    +0.008 C 
ENDBRANCH  25  27
ENDBRANCH  23  25
ENDBRANCH  22  23
ENDBRANCH   1  22
BRANCH   6  28
ATOM     28  O   UNL     1       0.880  -7.371   7.293  0.00  0.00    -0.454 OA
BRANCH  28  29
ATOM     29  C   UNL     1       1.374  -8.459   7.916  0.00  0.00    +0.335 C 
ATOM     30  O   UNL     1       1.702  -9.434   7.268  0.00  0.00    -0.245 OA
BRANCH  29  31
ATOM     31  C   UNL     1       1.515  -8.468   9.379  0.00  0.00    +0.029 C 
ATOM     32  C   UNL     1       2.003  -9.542   9.994  0.00  0.00    -0.020 C 
ATOM     33  C   UNL     1       2.148  -9.551  11.494  0.00  0.00    +0.036 C 
ATOM     34  C   UNL     1       1.108  -7.259  10.182  0.00  0.00    +0.051 C 
ENDBRANCH  29  31
ENDBRANCH  28  29
ENDBRANCH   6  28
BRANCH   3  35
ATOM     35  O   UNL     1      -1.747  -4.491   4.258  0.00  0.00    -0.458 OA
BRANCH  35  36
ATOM     36  C   UNL     1      -2.511  -3.793   3.404  0.00  0.00    +0.304 C 
ATOM     37  O   UNL     1      -1.996  -3.055   2.597  0.00  0.00    -0.251 OA
ATOM     38  C   UNL     1      -4.011  -3.929   3.451  0.00  0.00    +0.136 C 
ENDBRANCH  35  36
ENDBRANCH   3  35
TORSDOF 11
