REMARK  Name = ZINC14607320
REMARK  4 active torsions:
REMARK  status: ('A' for Active; 'I' for Inactive)
REMARK    1  A    between atoms: C_4  and  C_7
REMARK    2  A    between atoms: C_12  and  C_18
REMARK    3  A    between atoms: N_20  and  C_21
REMARK    4  A    between atoms: C_26  and  C_27
REMARK                            x       y       z     vdW  Elec       q    Type
REMARK                         _______ _______ _______ _____ _____    ______ ____
ROOT
ATOM      1  C   UNL     1       3.689  -0.710  -0.065  0.00  0.00    +0.183 A 
ATOM      2  N   UNL     1       4.903  -0.130  -0.071  0.00  0.00    -0.193 NA
ATOM      3  C   UNL     1       5.825  -1.050  -0.080  0.00  0.00    +0.221 A 
ATOM      4  N   UNL     1       5.212  -2.262  -0.080  0.00  0.00    -0.220 N 
ATOM      5  N   UNL     1       3.841  -2.019  -0.063  0.00  0.00    -0.148 NA
ATOM      6  C   UNL     1       5.944  -3.528  -0.092  0.00  0.00    +0.205 C 
ATOM      7  C   UNL     1       7.278  -3.316  -0.814  0.00  0.00    +0.132 C 
ATOM      8  C   UNL     1       7.934  -2.035  -0.379  0.00  0.00    +0.222 C 
ATOM      9  O   UNL     1       9.142  -1.991  -0.289  0.00  0.00    -0.275 OA
ATOM     10  N   UNL     1       7.210  -0.932  -0.086  0.00  0.00    -0.255 N 
ATOM     11  H   UNL     1       7.642  -0.086   0.112  0.00  0.00    +0.158 HD
ENDROOT
BRANCH   1  15
ATOM     12  C   UNL     1      -0.032   1.348  -0.035  0.00  0.00    +0.000 A 
ATOM     13  C   UNL     1       1.151   2.064  -0.047  0.00  0.00    +0.001 A 
ATOM     14  C   UNL     1       2.362   1.401  -0.057  0.00  0.00    +0.011 A 
ATOM     15  C   UNL     1       2.391   0.008  -0.054  0.00  0.00    +0.021 A 
ATOM     16  C   UNL     1       1.196  -0.708  -0.042  0.00  0.00    +0.011 A 
ATOM     17  C   UNL     1      -0.009  -0.035  -0.032  0.00  0.00    +0.001 A 
ENDBRANCH   1  15
BRANCH   6  18
ATOM     18  C   UNL     1       6.197  -3.979   1.323  0.00  0.00    +0.242 C 
ATOM     19  O   UNL     1       7.334  -4.132   1.717  0.00  0.00    -0.273 OA
ATOM     20  N   UNL     1       5.160  -4.213   2.152  0.00  0.00    -0.283 N 
ATOM     21  H   UNL     1       4.255  -4.014   1.864  0.00  0.00    +0.155 HD
BRANCH  20  22
ATOM     22  C   UNL     1       5.389  -4.741   3.427  0.00  0.00    +0.045 A 
ATOM     23  C   UNL     1       6.532  -5.491   3.675  0.00  0.00    +0.024 A 
ATOM     24  C   UNL     1       6.754  -6.012   4.934  0.00  0.00    +0.002 A 
ATOM     25  C   UNL     1       5.841  -5.787   5.948  0.00  0.00    +0.001 A 
ATOM     26  C   UNL     1       4.702  -5.042   5.705  0.00  0.00    +0.014 A 
ATOM     27  C   UNL     1       4.477  -4.513   4.449  0.00  0.00    +0.076 A 
BRANCH  27  28
ATOM     28  C   UNL     1       3.240  -3.694   4.186  0.00  0.00    +0.419 C 
ATOM     29  F   UNL     1       2.482  -3.604   5.359  0.00  0.00    -0.166 F 
ATOM     30  F   UNL     1       3.609  -2.410   3.770  0.00  0.00    -0.166 F 
ATOM     31  F   UNL     1       2.478  -4.307   3.185  0.00  0.00    -0.166 F 
ENDBRANCH  27  28
ENDBRANCH  20  22
ENDBRANCH   6  18
TORSDOF 4
