REMARK  Name = ZINC40987491
REMARK  9 active torsions:
REMARK  status: ('A' for Active; 'I' for Inactive)
REMARK    1  A    between atoms: C_1  and  N_2
REMARK    2  A    between atoms: N_2  and  C_3
REMARK    3  A    between atoms: N_2  and  C_4
REMARK    4  A    between atoms: C_4  and  C_6
REMARK    5  A    between atoms: C_4  and  C_23
REMARK    6  A    between atoms: C_6  and  N_7
REMARK    7  A    between atoms: C_8  and  C_10
REMARK    8  A    between atoms: C_12  and  C_15
REMARK    9  A    between atoms: C_26  and  C_29
REMARK                            x       y       z     vdW  Elec       q    Type
REMARK                         _______ _______ _______ _____ _____    ______ ____
ROOT
ATOM      1  N   UNL     1      -3.599  -0.407  -0.868  0.00  0.00    -0.311 N 
ATOM      2  C   UNL     1      -4.521  -0.044  -1.782  0.00  0.00    +0.266 C 
ATOM      3  O   UNL     1      -4.177   0.528  -2.797  0.00  0.00    -0.268 OA
ATOM      4  H   UNL     1      -3.873  -0.864  -0.057  0.00  0.00    +0.149 HD
ENDROOT
BRANCH   2   5
ATOM      5  C   UNL     1      -5.955  -0.342  -1.547  0.00  0.00    +0.168 A 
ATOM      6  C   UNL     1      -7.021  -0.026  -2.416  0.00  0.00    +0.086 A 
ATOM      7  C   UNL     1      -8.173  -0.465  -1.842  0.00  0.00    +0.168 A 
ATOM      8  O   UNL     1      -7.858  -1.034  -0.663  0.00  0.00    -0.354 OA
ATOM      9  N   UNL     1      -6.454  -0.951  -0.497  0.00  0.00    -0.073 NA
BRANCH   7  10
ATOM     10  C   UNL     1      -9.531  -0.340  -2.411  0.00  0.00    +0.023 A 
ATOM     11  C   UNL     1      -9.716   0.271  -3.653  0.00  0.00    +0.014 A 
ATOM     12  C   UNL     1     -10.985   0.386  -4.181  0.00  0.00    +0.042 A 
ATOM     13  C   UNL     1     -12.076  -0.103  -3.481  0.00  0.00    +0.158 A 
ATOM     14  C   UNL     1     -11.899  -0.712  -2.247  0.00  0.00    +0.159 A 
ATOM     15  C   UNL     1     -10.632  -0.837  -1.712  0.00  0.00    +0.053 A 
ATOM     16  F   UNL     1     -12.967  -1.187  -1.569  0.00  0.00    -0.202 F 
ATOM     17  F   UNL     1     -13.317   0.012  -4.003  0.00  0.00    -0.202 F 
ENDBRANCH   7  10
ENDBRANCH   2   5
BRANCH   1  18
ATOM     18  C   UNL     1      -2.182  -0.113  -1.100  0.00  0.00    +0.094 C 
BRANCH  18  19
ATOM     19  C   UNL     1      -1.368  -0.524   0.128  0.00  0.00    -0.021 C 
BRANCH  19  20
ATOM     20  C   UNL     1      -1.453  -2.018   0.310  0.00  0.00    -0.059 A 
ATOM     21  C   UNL     1      -0.655  -2.853  -0.450  0.00  0.00    +0.002 A 
ATOM     22  C   UNL     1      -0.734  -4.223  -0.283  0.00  0.00    +0.012 A 
ATOM     23  C   UNL     1      -1.609  -4.758   0.643  0.00  0.00    +0.055 A 
ATOM     24  C   UNL     1      -2.406  -3.923   1.403  0.00  0.00    +0.012 A 
ATOM     25  C   UNL     1      -2.325  -2.553   1.240  0.00  0.00    +0.002 A 
BRANCH  23  26
ATOM     26  C   UNL     1      -1.695  -6.252   0.824  0.00  0.00    +0.417 C 
ATOM     27  F   UNL     1      -0.781  -6.656   1.803  0.00  0.00    -0.166 F 
ATOM     28  F   UNL     1      -2.990  -6.599   1.223  0.00  0.00    -0.166 F 
ATOM     29  F   UNL     1      -1.394  -6.886  -0.386  0.00  0.00    -0.166 F 
ENDBRANCH  23  26
ENDBRANCH  19  20
BRANCH  19  31
ATOM     30  C   UNL     1       0.118   1.323  -0.236  0.00  0.00    -0.096 C 
ATOM     31  N   UNL     1       0.035  -0.133  -0.061  0.00  0.00    +0.382 N 
ATOM     32  C   UNL     1       0.817  -0.530   1.118  0.00  0.00    -0.096 C 
ATOM     33  H   UNL     1       0.405  -0.593  -0.880  0.00  0.00    -0.082 HD
ENDBRANCH  19  31
ENDBRANCH  18  19
ENDBRANCH   1  18
TORSDOF 7
