REMARK  Name = ZINC36206539
REMARK  15 active torsions:
REMARK  status: ('A' for Active; 'I' for Inactive)
REMARK    1  A    between atoms: C_1  and  C_2
REMARK    2  A    between atoms: C_2  and  C_3
REMARK    3  A    between atoms: C_2  and  O_4
REMARK    4  A    between atoms: O_4  and  C_5
REMARK    5  A    between atoms: C_5  and  C_6
REMARK    6  A    between atoms: C_6  and  C_8
REMARK    7  A    between atoms: C_6  and  O_36
REMARK    8  A    between atoms: C_8  and  N_9
REMARK    9  A    between atoms: N_9  and  C_10
REMARK   10  A    between atoms: N_9  and  C_16
REMARK   11  A    between atoms: C_10  and  C_11
REMARK   12  A    between atoms: C_16  and  C_17
REMARK   13  A    between atoms: C_23  and  C_28
REMARK   14  A    between atoms: C_33  and  O_34
REMARK   15  A    between atoms: O_34  and  C_35
REMARK                            x       y       z     vdW  Elec       q    Type
REMARK                         _______ _______ _______ _____ _____    ______ ____
ROOT
ATOM      1  C   UNL     1       5.800  -3.748  -2.151  0.00  0.00    +0.094 A 
ATOM      2  N   UNL     1       6.908  -4.452  -1.807  0.00  0.00    -0.312 N 
ATOM      3  H   UNL     1       7.748  -4.266  -2.256  0.00  0.00    +0.170 HD
ATOM      4  C   UNL     1       6.865  -5.402  -0.854  0.00  0.00    +0.260 A 
ATOM      5  O   UNL     1       7.870  -6.025  -0.556  0.00  0.00    -0.267 OA
ATOM      6  C   UNL     1       5.622  -5.669  -0.197  0.00  0.00    +0.080 A 
ATOM      7  C   UNL     1       5.323  -6.636   0.853  0.00  0.00    +0.007 A 
ATOM      8  C   UNL     1       4.057  -6.710   1.329  0.00  0.00    +0.056 A 
ATOM      9  S   UNL     1       3.188  -5.474   0.383  0.00  0.00    -0.076 S 
ATOM     10  C   UNL     1       4.531  -4.892  -0.619  0.00  0.00    +0.116 A 
ATOM     11  N   UNL     1       4.653  -3.965  -1.566  0.00  0.00    -0.229 NA
ENDROOT
BRANCH   7  12
ATOM     12  C   UNL     1       6.385  -7.520   1.390  0.00  0.00    +0.025 A 
ATOM     13  C   UNL     1       6.311  -8.898   1.198  0.00  0.00    +0.012 A 
ATOM     14  C   UNL     1       7.302  -9.717   1.700  0.00  0.00    +0.001 A 
ATOM     15  C   UNL     1       8.369  -9.175   2.394  0.00  0.00    +0.004 A 
ATOM     16  C   UNL     1       8.452  -7.809   2.590  0.00  0.00    +0.046 A 
ATOM     17  C   UNL     1       7.468  -6.975   2.087  0.00  0.00    +0.128 A 
BRANCH  17  18
ATOM     18  O   UNL     1       7.551  -5.631   2.274  0.00  0.00    -0.495 OA
ATOM     19  C   UNL     1       8.686  -5.146   2.995  0.00  0.00    +0.277 C 
ENDBRANCH  17  18
ENDBRANCH   7  12
BRANCH   1  20
ATOM     20  C   UNL     1       5.896  -2.693  -3.223  0.00  0.00    -0.003 C 
BRANCH  20  21
ATOM     21  N   UNL     1       4.620  -1.970  -3.315  0.00  0.00    +0.391 N 
ATOM     22  H   UNL     1       3.867  -2.631  -3.437  0.00  0.00    -0.080 HD
BRANCH  21  23
ATOM     23  C   UNL     1       4.402  -1.203  -2.082  0.00  0.00    -0.044 C 
BRANCH  23  24
ATOM     24  C   UNL     1       2.995  -0.601  -2.097  0.00  0.00    +0.124 C 
BRANCH  24  25
ATOM     25  O   UNL     1       2.920   0.406  -3.108  0.00  0.00    -0.391 OA
ATOM     26  H   UNL     1       3.541   1.136  -2.983  0.00  0.00    +0.210 HD
ENDBRANCH  24  25
BRANCH  24  27
ATOM     27  C   UNL     1       2.692   0.022  -0.733  0.00  0.00    +0.189 C 
BRANCH  27  28
ATOM     28  O   UNL     1       1.339   0.480  -0.709  0.00  0.00    -0.375 OA
BRANCH  28  30
ATOM     29  C   UNL     1       1.239   2.584   0.476  0.00  0.00    +0.037 C 
ATOM     30  C   UNL     1       0.951   1.082   0.527  0.00  0.00    +0.112 C 
ATOM     31  C   UNL     1      -0.545   0.858   0.756  0.00  0.00    +0.037 C 
ENDBRANCH  28  30
ENDBRANCH  27  28
ENDBRANCH  24  27
ENDBRANCH  23  24
ENDBRANCH  21  23
BRANCH  21  32
ATOM     32  C   UNL     1       4.658  -1.054  -4.462  0.00  0.00    -0.002 C 
BRANCH  32  33
ATOM     33  C   UNL     1       4.827  -1.846  -5.733  0.00  0.00    +0.089 A 
ATOM     34  C   UNL     1       3.834  -2.259  -6.540  0.00  0.00    +0.042 A 
ATOM     35  C   UNL     1       4.439  -2.962  -7.607  0.00  0.00    +0.041 A 
ATOM     36  C   UNL     1       5.766  -2.936  -7.388  0.00  0.00    +0.195 A 
ATOM     37  O   UNL     1       5.996  -2.253  -6.254  0.00  0.00    -0.470 OA
ENDBRANCH  32  33
ENDBRANCH  21  32
ENDBRANCH  20  21
ENDBRANCH   1  20
TORSDOF 12
