REMARK  Name = ZINC35007181
REMARK  9 active torsions:
REMARK  status: ('A' for Active; 'I' for Inactive)
REMARK    1  A    between atoms: C_1  and  C_2
REMARK    2  A    between atoms: C_2  and  O_3
REMARK    3  A    between atoms: O_3  and  C_4
REMARK    4  A    between atoms: C_9  and  N_10
REMARK    5  A    between atoms: C_20  and  C_21
REMARK    6  A    between atoms: C_21  and  C_23
REMARK    7  A    between atoms: C_21  and  N_24
REMARK    8  A    between atoms: N_24  and  C_25
REMARK    9  A    between atoms: C_25  and  C_26
REMARK                            x       y       z     vdW  Elec       q    Type
REMARK                         _______ _______ _______ _____ _____    ______ ____
ROOT
ATOM      1  N   UNL     1       1.979  -1.463   3.299  0.00  0.00    -0.262 N 
ATOM      2  C   UNL     1       1.183  -1.002   4.291  0.00  0.00    +0.266 A 
ATOM      3  O   UNL     1      -0.005  -1.263   4.321  0.00  0.00    -0.267 OA
ATOM      4  C   UNL     1       1.810  -0.175   5.332  0.00  0.00    +0.065 A 
ATOM      5  C   UNL     1       1.079   0.348   6.398  0.00  0.00    +0.015 A 
ATOM      6  C   UNL     1       1.716   1.117   7.346  0.00  0.00    +0.001 A 
ATOM      7  C   UNL     1       3.078   1.373   7.249  0.00  0.00    +0.002 A 
ATOM      8  C   UNL     1       3.818   0.867   6.204  0.00  0.00    +0.028 A 
ATOM      9  C   UNL     1       3.195   0.084   5.230  0.00  0.00    +0.078 A 
ATOM     10  N   UNL     1       3.886  -0.435   4.185  0.00  0.00    -0.235 NA
ATOM     11  C   UNL     1       3.307  -1.167   3.282  0.00  0.00    +0.103 A 
ENDROOT
BRANCH   1  17
ATOM     12  C   UNL     1       0.840  -1.658   1.171  0.00  0.00    +0.144 A 
ATOM     13  C   UNL     1       0.305  -2.448   0.166  0.00  0.00    +0.048 A 
ATOM     14  C   UNL     1       0.355  -3.826   0.268  0.00  0.00    +0.004 A 
ATOM     15  C   UNL     1       0.938  -4.420   1.372  0.00  0.00    +0.002 A 
ATOM     16  C   UNL     1       1.474  -3.640   2.379  0.00  0.00    +0.030 A 
ATOM     17  C   UNL     1       1.432  -2.256   2.281  0.00  0.00    +0.093 A 
BRANCH  12  18
ATOM     18  O   UNL     1       0.791  -0.303   1.072  0.00  0.00    -0.490 OA
BRANCH  18  20
ATOM     19  C   UNL     1       0.209   1.768  -0.029  0.00  0.00    +0.048 C 
ATOM     20  C   UNL     1       0.168   0.240  -0.094  0.00  0.00    +0.226 C 
ENDBRANCH  18  20
ENDBRANCH  12  18
ENDBRANCH   1  17
BRANCH  11  21
ATOM     21  C   UNL     1       4.147  -1.712   2.156  0.00  0.00    -0.006 C 
ATOM     22  C   UNL     1       4.274  -0.655   1.057  0.00  0.00    -0.006 C 
BRANCH  21  23
ATOM     23  N   UNL     1       5.483  -2.054   2.663  0.00  0.00    +0.388 N 
ATOM     24  H   UNL     1       5.953  -1.214   2.965  0.00  0.00    -0.084 HD
ATOM     25  H   UNL     1       5.395  -2.689   3.442  0.00  0.00    -0.084 HD
BRANCH  23  26
ATOM     26  C   UNL     1       6.262  -2.695   1.595  0.00  0.00    -0.046 C 
BRANCH  26  27
ATOM     27  C   UNL     1       7.633  -3.046   2.115  0.00  0.00    -0.064 A 
ATOM     28  C   UNL     1       8.666  -2.133   2.012  0.00  0.00    +0.002 A 
ATOM     29  C   UNL     1       9.923  -2.455   2.489  0.00  0.00    +0.000 A 
ATOM     30  C   UNL     1      10.146  -3.690   3.069  0.00  0.00    +0.000 A 
ATOM     31  C   UNL     1       9.113  -4.602   3.173  0.00  0.00    +0.000 A 
ATOM     32  C   UNL     1       7.855  -4.278   2.700  0.00  0.00    +0.002 A 
ENDBRANCH  26  27
ENDBRANCH  23  26
ENDBRANCH  21  23
ENDBRANCH  11  21
TORSDOF 7
