REMARK  Name = ZINC15747923
REMARK  18 active torsions:
REMARK  status: ('A' for Active; 'I' for Inactive)
REMARK    1  A    between atoms: C_1  and  C_2
REMARK    2  A    between atoms: C_3  and  C_34
REMARK    3  A    between atoms: C_4  and  C_33
REMARK    4  A    between atoms: C_7  and  C_8
REMARK    5  A    between atoms: C_8  and  C_10
REMARK    6  A    between atoms: C_10  and  C_12
REMARK    7  A    between atoms: C_10  and  S_13
REMARK    8  A    between atoms: S_13  and  C_14
REMARK    9  A    between atoms: N_24  and  C_25
REMARK   10  A    between atoms: C_25  and  C_26
REMARK   11  A    between atoms: C_26  and  N_71
REMARK   12  A    between atoms: C_27  and  C_28
REMARK   13  A    between atoms: C_27  and  C_29
REMARK   14  A    between atoms: C_27  and  N_71
REMARK   15  A    between atoms: C_30  and  C_31
REMARK   16  A    between atoms: C_30  and  C_32
REMARK   17  A    between atoms: C_30  and  N_71
REMARK   18  A    between atoms: C_34  and  C_36
REMARK                            x       y       z     vdW  Elec       q    Type
REMARK                         _______ _______ _______ _____ _____    ______ ____
ROOT
ATOM      1  C   UNL     1     -10.571   3.102   2.199  0.00  0.00    +0.173 A 
ATOM      2  N   UNL     1     -10.652   2.004   1.489  0.00  0.00    -0.223 NA
ATOM      3  C   UNL     1     -11.576   1.857   0.518  0.00  0.00    +0.079 A 
ATOM      4  C   UNL     1     -11.666   0.684  -0.237  0.00  0.00    +0.028 A 
ATOM      5  C   UNL     1     -12.614   0.580  -1.215  0.00  0.00    +0.002 A 
ATOM      6  C   UNL     1     -13.492   1.624  -1.474  0.00  0.00    +0.001 A 
ATOM      7  C   UNL     1     -13.429   2.785  -0.753  0.00  0.00    +0.015 A 
ATOM      8  C   UNL     1     -12.471   2.918   0.252  0.00  0.00    +0.065 A 
ATOM      9  C   UNL     1     -12.357   4.141   1.058  0.00  0.00    +0.262 A 
ATOM     10  O   UNL     1     -13.099   5.089   0.876  0.00  0.00    -0.267 OA
ATOM     11  N   UNL     1     -11.395   4.175   2.009  0.00  0.00    -0.289 N 
ENDROOT
BRANCH   1  12
ATOM     12  S   UNL     1      -9.336   3.203   3.452  0.00  0.00    -0.076 S 
BRANCH  12  13
ATOM     13  C   UNL     1      -8.570   1.573   3.269  0.00  0.00    +0.124 C 
ATOM     14  C   UNL     1      -9.584   0.488   3.636  0.00  0.00    +0.028 C 
BRANCH  13  15
ATOM     15  C   UNL     1      -7.376   1.474   4.183  0.00  0.00    +0.192 C 
ATOM     16  O   UNL     1      -7.316   2.164   5.181  0.00  0.00    -0.289 OA
BRANCH  15  23
ATOM     17  C   UNL     1      -4.818   1.093   5.907  0.00  0.00    +0.047 C 
ATOM     18  C   UNL     1      -5.181   0.389   4.625  0.00  0.00    -0.012 A 
ATOM     19  C   UNL     1      -4.414  -0.592   3.955  0.00  0.00    +0.041 A 
ATOM     20  C   UNL     1      -5.121  -0.959   2.820  0.00  0.00    +0.024 A 
ATOM     21  N   UNL     1      -6.264  -0.260   2.783  0.00  0.00    -0.355 N 
ATOM     22  H   UNL     1      -6.942  -0.329   2.093  0.00  0.00    +0.166 HD
ATOM     23  C   UNL     1      -6.323   0.577   3.879  0.00  0.00    +0.087 A 
ATOM     24  C   UNL     1      -4.680  -1.977   1.800  0.00  0.00    +0.064 C 
BRANCH  19  25
ATOM     25  C   UNL     1      -3.111  -1.118   4.378  0.00  0.00    +0.162 C 
ATOM     26  O   UNL     1      -2.093  -0.532   4.074  0.00  0.00    -0.292 OA
ATOM     27  C   UNL     1      -3.038  -2.385   5.191  0.00  0.00    +0.091 C 
ENDBRANCH  19  25
ENDBRANCH  15  23
ENDBRANCH  13  15
ENDBRANCH  12  13
ENDBRANCH   1  12
BRANCH  11  28
ATOM     28  C   UNL     1     -11.236   5.370   2.841  0.00  0.00    +0.109 C 
BRANCH  28  29
ATOM     29  C   UNL     1     -10.251   6.331   2.171  0.00  0.00    -0.056 C 
BRANCH  29  30
ATOM     30  N   UNL     1     -10.086   7.521   3.032  0.00  0.00    +0.384 N 
ATOM     31  H   UNL     1      -9.856   7.214   3.985  0.00  0.00    -0.081 HD
BRANCH  30  32
ATOM     32  C   UNL     1      -8.985   8.364   2.522  0.00  0.00    -0.074 C 
ATOM     33  C   UNL     1      -7.661   7.821   3.064  0.00  0.00    -0.014 C 
ATOM     34  C   UNL     1      -8.957   8.339   0.992  0.00  0.00    -0.014 C 
ENDBRANCH  30  32
BRANCH  30  35
ATOM     35  C   UNL     1     -11.342   8.298   3.068  0.00  0.00    -0.074 C 
ATOM     36  C   UNL     1     -11.225   9.378   4.144  0.00  0.00    -0.014 C 
ATOM     37  C   UNL     1     -11.604   8.955   1.711  0.00  0.00    -0.014 C 
ENDBRANCH  30  35
ENDBRANCH  29  30
ENDBRANCH  28  29
ENDBRANCH  11  28
TORSDOF 10
