REMARK  Name = ZINC02658475
REMARK  6 active torsions:
REMARK  status: ('A' for Active; 'I' for Inactive)
REMARK    1  A    between atoms: C_4  and  N_7
REMARK    2  A    between atoms: C_11  and  C_32
REMARK    3  A    between atoms: C_16  and  S_17
REMARK    4  A    between atoms: S_17  and  C_18
REMARK    5  A    between atoms: C_18  and  C_19
REMARK    6  A    between atoms: C_19  and  C_21
REMARK                            x       y       z     vdW  Elec       q    Type
REMARK                         _______ _______ _______ _____ _____    ______ ____
ROOT
ATOM      1  N   UNL     1       3.585   2.124  -0.021  0.00  0.00    -0.255 N 
ATOM      2  C   UNL     1       3.556   3.466  -0.121  0.00  0.00    +0.268 A 
ATOM      3  O   UNL     1       2.492   4.056  -0.205  0.00  0.00    -0.267 OA
ATOM      4  C   UNL     1       4.787   4.191  -0.123  0.00  0.00    +0.083 A 
ATOM      5  C   UNL     1       5.007   5.633  -0.216  0.00  0.00    +0.039 A 
ATOM      6  C   UNL     1       6.280   6.099  -0.204  0.00  0.00    +0.059 A 
ATOM      7  S   UNL     1       7.262   4.617  -0.066  0.00  0.00    -0.076 S 
ATOM      8  C   UNL     1       5.956   3.417  -0.028  0.00  0.00    +0.117 A 
ATOM      9  N   UNL     1       5.918   2.092   0.063  0.00  0.00    -0.215 NA
ATOM     10  C   UNL     1       4.769   1.447   0.068  0.00  0.00    +0.178 A 
ENDROOT
BRANCH   1  14
ATOM     11  C   UNL     1       0.002  -0.004   0.002  0.00  0.00    +0.000 A 
ATOM     12  C   UNL     1       0.638   0.263  -1.197  0.00  0.00    +0.002 A 
ATOM     13  C   UNL     1       1.826   0.969  -1.208  0.00  0.00    +0.026 A 
ATOM     14  C   UNL     1       2.381   1.409  -0.013  0.00  0.00    +0.052 A 
ATOM     15  C   UNL     1       1.740   1.139   1.188  0.00  0.00    +0.026 A 
ATOM     16  C   UNL     1       0.552   0.434   1.192  0.00  0.00    +0.002 A 
ENDBRANCH   1  14
BRANCH   5  17
ATOM     17  C   UNL     1       3.865   6.563  -0.321  0.00  0.00    +0.136 A 
ATOM     18  C   UNL     1       3.664   7.670   0.445  0.00  0.00    +0.050 A 
ATOM     19  C   UNL     1       2.461   8.256   0.003  0.00  0.00    +0.042 A 
ATOM     20  C   UNL     1       1.988   7.484  -0.994  0.00  0.00    +0.196 A 
ATOM     21  O   UNL     1       2.839   6.461  -1.187  0.00  0.00    -0.463 OA
ENDBRANCH   5  17
BRANCH  10  22
ATOM     22  S   UNL     1       4.759  -0.311   0.189  0.00  0.00    -0.079 S 
BRANCH  22  23
ATOM     23  C   UNL     1       6.538  -0.630   0.275  0.00  0.00    +0.157 C 
BRANCH  23  24
ATOM     24  C   UNL     1       6.777  -2.114   0.386  0.00  0.00    +0.173 C 
ATOM     25  O   UNL     1       5.837  -2.880   0.406  0.00  0.00    -0.291 OA
BRANCH  24  26
ATOM     26  C   UNL     1       8.149  -2.632   0.470  0.00  0.00    +0.020 A 
ATOM     27  C   UNL     1       9.236  -1.750   0.442  0.00  0.00    +0.015 A 
ATOM     28  C   UNL     1      10.522  -2.236   0.526  0.00  0.00    +0.048 A 
ATOM     29  C   UNL     1      10.745  -3.602   0.629  0.00  0.00    +0.142 A 
ATOM     30  C   UNL     1       9.665  -4.489   0.652  0.00  0.00    +0.076 A 
ATOM     31  C   UNL     1       8.373  -4.011   0.574  0.00  0.00    +0.038 A 
ATOM     32  N   UNL     1       9.912  -5.866   0.756  0.00  0.00    -0.280 N 
ATOM     33  C   UNL     1      11.137  -6.283   1.146  0.00  0.00    +0.255 C 
ATOM     34  O   UNL     1      11.383  -7.469   1.214  0.00  0.00    -0.272 OA
ATOM     35  C   UNL     1      12.196  -5.269   1.495  0.00  0.00    +0.325 C 
ATOM     36  O   UNL     1      12.010  -4.090   0.709  0.00  0.00    -0.481 OA
ATOM     37  H   UNL     1       9.215  -6.509   0.551  0.00  0.00    +0.155 HD
ENDBRANCH  24  26
ENDBRANCH  23  24
ENDBRANCH  22  23
ENDBRANCH  10  22
TORSDOF 6
