REMARK  Name = ZINC39657026
REMARK  8 active torsions:
REMARK  status: ('A' for Active; 'I' for Inactive)
REMARK    1  A    between atoms: C_1  and  C_2
REMARK    2  A    between atoms: C_2  and  C_4
REMARK    3  A    between atoms: C_2  and  N_11
REMARK    4  A    between atoms: C_12  and  C_14
REMARK    5  A    between atoms: C_25  and  C_27
REMARK    6  A    between atoms: C_31  and  N_33
REMARK    7  A    between atoms: N_33  and  C_34
REMARK    8  A    between atoms: N_33  and  C_35
REMARK                            x       y       z     vdW  Elec       q    Type
REMARK                         _______ _______ _______ _____ _____    ______ ____
ROOT
ATOM      1  C   UNL     1       0.502  -0.427  -3.548  0.00  0.00    +0.100 C 
ATOM      2  C   UNL     1       1.747   0.307  -4.093  0.00  0.00    +0.121 C 
ATOM      3  N   UNL     1       1.645   0.176  -5.565  0.00  0.00    -0.296 N 
ATOM      4  C   UNL     1       0.200   0.347  -5.851  0.00  0.00    +0.115 C 
ATOM      5  C   UNL     1      -0.511  -0.398  -4.704  0.00  0.00    -0.004 C 
ATOM      6  C   UNL     1      -0.862  -1.819  -5.136  0.00  0.00    -0.010 C 
ATOM      7  C   UNL     1      -1.913  -1.765  -6.248  0.00  0.00    -0.082 C 
ATOM      8  N   UNL     1      -3.111  -1.072  -5.759  0.00  0.00    +0.379 N 
ATOM      9  C   UNL     1      -2.784   0.322  -5.433  0.00  0.00    -0.082 C 
ATOM     10  C   UNL     1      -1.770   0.356  -4.287  0.00  0.00    -0.010 C 
ATOM     11  C   UNL     1       2.640  -0.049  -6.446  0.00  0.00    +0.247 C 
ATOM     12  O   UNL     1       3.761  -0.297  -6.046  0.00  0.00    -0.270 OA
ATOM     13  H   UNL     1      -3.824  -1.091  -6.472  0.00  0.00    -0.086 HD
ATOM     14  H   UNL     1      -3.453  -1.537  -4.932  0.00  0.00    -0.086 HD
ENDROOT
BRANCH  11  15
ATOM     15  C   UNL     1       2.369   0.007  -7.898  0.00  0.00    +0.039 A 
ATOM     16  C   UNL     1       1.244   0.683  -8.375  0.00  0.00    +0.013 A 
ATOM     17  C   UNL     1       0.993   0.734  -9.731  0.00  0.00    +0.003 A 
ATOM     18  C   UNL     1       1.851   0.116 -10.622  0.00  0.00    +0.023 A 
ATOM     19  C   UNL     1       2.973  -0.560 -10.157  0.00  0.00    +0.030 A 
ATOM     20  C   UNL     1       3.238  -0.612  -8.797  0.00  0.00    +0.036 A 
BRANCH  19  21
ATOM     21  N   UNL     1       3.837  -1.184 -11.061  0.00  0.00    -0.336 N 
ATOM     22  C   UNL     1       3.488  -1.247 -12.482  0.00  0.00    +0.129 C 
ATOM     23  C   UNL     1       5.091  -1.774 -10.587  0.00  0.00    +0.129 C 
ENDBRANCH  19  21
ENDBRANCH  11  15
BRANCH   1  25
ATOM     24  N   UNL     1      -0.818  -0.361  -1.457  0.00  0.00    -0.308 N 
ATOM     25  C   UNL     1      -0.051   0.298  -2.348  0.00  0.00    +0.219 C 
ATOM     26  O   UNL     1       0.194   1.474  -2.183  0.00  0.00    -0.275 OA
ATOM     27  H   UNL     1      -1.015  -1.302  -1.588  0.00  0.00    +0.149 HD
BRANCH  24  29
ATOM     28  C   UNL     1      -0.313   0.344   0.830  0.00  0.00    +0.033 C 
ATOM     29  C   UNL     1      -1.356   0.343  -0.290  0.00  0.00    +0.100 C 
BRANCH  29  30
ATOM     30  C   UNL     1      -2.604  -0.354   0.186  0.00  0.00    -0.027 A 
ATOM     31  C   UNL     1      -2.662  -1.735   0.202  0.00  0.00    +0.006 A 
ATOM     32  C   UNL     1      -3.806  -2.374   0.639  0.00  0.00    +0.015 A 
ATOM     33  C   UNL     1      -4.894  -1.632   1.062  0.00  0.00    +0.018 A 
ATOM     34  C   UNL     1      -4.837  -0.250   1.046  0.00  0.00    +0.015 A 
ATOM     35  C   UNL     1      -3.690   0.389   0.613  0.00  0.00    +0.006 A 
ATOM     36 BR   UNL     1      -6.461  -2.506   1.659  0.00  0.00    -0.050 Br
ENDBRANCH  29  30
ENDBRANCH  24  29
ENDBRANCH   1  25
TORSDOF 5
