REMARK  Name = ZINC40372050
REMARK  4 active torsions:
REMARK  status: ('A' for Active; 'I' for Inactive)
REMARK    1  A    between atoms: C_3  and  C_8
REMARK    2  A    between atoms: N_10  and  C_11
REMARK    3  A    between atoms: C_11  and  C_16
REMARK    4  A    between atoms: N_17  and  O_18
REMARK                            x       y       z     vdW  Elec       q    Type
REMARK                         _______ _______ _______ _____ _____    ______ ____
ROOT
ATOM      1  C   UNL     1       6.096   2.289  -0.189  0.00  0.00    +0.093 C 
ATOM      2  C   UNL     1       6.068   3.148  -1.478  0.00  0.00    +0.033 C 
ATOM      3  C   UNL     1       6.494   2.137  -2.572  0.00  0.00    +0.003 C 
ATOM      4  C   UNL     1       7.574   1.273  -1.889  0.00  0.00    +0.003 C 
ATOM      5  C   UNL     1       7.322   1.369  -0.374  0.00  0.00    +0.033 C 
ENDROOT
BRANCH   1   6
ATOM      6  C   UNL     1       6.271   3.162   1.027  0.00  0.00    +0.155 C 
ATOM      7  N   UNL     1       7.246   4.008   1.080  0.00  0.00    -0.075 NA
ATOM      8  N   UNL     1       5.391   3.058   2.081  0.00  0.00    -0.342 N 
ATOM      9  H   UNL     1       4.710   2.368   2.078  0.00  0.00    +0.144 HD
ATOM     10  H   UNL     1       5.453   3.676   2.826  0.00  0.00    +0.144 HD
BRANCH   7  11
ATOM     11  O   UNL     1       8.222   4.029   0.053  0.00  0.00    -0.408 OA
ATOM     12  H   UNL     1       8.911   4.695   0.180  0.00  0.00    +0.328 HD
ENDBRANCH   7  11
ENDBRANCH   1   6
BRANCH   1  15
ATOM     13  C   UNL     1       3.672   2.107  -0.025  0.00  0.00    +0.245 C 
ATOM     14  O   UNL     1       3.612   3.320   0.019  0.00  0.00    -0.270 OA
ATOM     15  N   UNL     1       4.871   1.494  -0.076  0.00  0.00    -0.299 N 
ATOM     16  H   UNL     1       4.923   0.526  -0.038  0.00  0.00    +0.150 HD
BRANCH  13  19
ATOM     17  C   UNL     1       0.033   1.181   0.035  0.00  0.00    +0.002 A 
ATOM     18  C   UNL     1       1.188   1.936   0.032  0.00  0.00    +0.013 A 
ATOM     19  C   UNL     1       2.431   1.304  -0.021  0.00  0.00    +0.038 A 
ATOM     20  C   UNL     1       2.497  -0.089  -0.072  0.00  0.00    +0.028 A 
ATOM     21  C   UNL     1       1.334  -0.833  -0.069  0.00  0.00    +0.019 A 
ATOM     22  C   UNL     1       0.104  -0.199  -0.016  0.00  0.00    +0.015 A 
ATOM     23 BR   UNL     1       1.421  -2.720  -0.137  0.00  0.00    -0.050 Br
ENDBRANCH  13  19
ENDBRANCH   1  15
TORSDOF 4
