REMARK  Name = ZINC04411448
REMARK  10 active torsions:
REMARK  status: ('A' for Active; 'I' for Inactive)
REMARK    1  A    between atoms: C_1  and  C_2
REMARK    2  A    between atoms: C_5  and  N_8
REMARK    3  A    between atoms: N_8  and  C_9
REMARK    4  A    between atoms: C_9  and  C_11
REMARK    5  A    between atoms: C_9  and  C_16
REMARK    6  A    between atoms: N_18  and  C_19
REMARK    7  A    between atoms: C_24  and  C_26
REMARK    8  A    between atoms: C_26  and  N_27
REMARK    9  A    between atoms: C_29  and  C_32
REMARK   10  A    between atoms: C_35  and  C_37
REMARK                            x       y       z     vdW  Elec       q    Type
REMARK                         _______ _______ _______ _____ _____    ______ ____
ROOT
ATOM      1  N   UNL     1      -0.395  -4.219  -0.044  0.00  0.00    -0.251 N 
ATOM      2  C   UNL     1      -0.040  -4.839  -1.187  0.00  0.00    +0.244 C 
ATOM      3  O   UNL     1       0.293  -6.005  -1.167  0.00  0.00    -0.273 OA
ENDROOT
BRANCH   1   8
ATOM      4  C   UNL     1      -1.920   1.245  -0.134  0.00  0.00    +0.044 C 
ATOM      5  C   UNL     1      -1.515  -0.207  -0.110  0.00  0.00    -0.050 A 
ATOM      6  C   UNL     1      -0.721  -0.719  -1.120  0.00  0.00    +0.005 A 
ATOM      7  C   UNL     1      -0.348  -2.048  -1.101  0.00  0.00    +0.024 A 
ATOM      8  C   UNL     1      -0.771  -2.872  -0.066  0.00  0.00    +0.038 A 
ATOM      9  C   UNL     1      -1.567  -2.354   0.948  0.00  0.00    +0.024 A 
ATOM     10  C   UNL     1      -1.933  -1.023   0.925  0.00  0.00    +0.005 A 
ENDBRANCH   1   8
BRANCH   1  11
ATOM     11  C   UNL     1      -0.388  -4.957   1.222  0.00  0.00    +0.233 C 
BRANCH  11  12
ATOM     12  C   UNL     1       0.567  -4.297   2.183  0.00  0.00    +0.135 A 
ATOM     13  C   UNL     1       1.407  -4.934   3.019  0.00  0.00    +0.047 A 
ATOM     14  C   UNL     1       2.111  -3.935   3.730  0.00  0.00    +0.041 A 
ATOM     15  C   UNL     1       1.660  -2.748   3.287  0.00  0.00    +0.195 A 
ATOM     16  O   UNL     1       0.729  -2.974   2.345  0.00  0.00    -0.465 OA
ENDBRANCH  11  12
BRANCH  11  17
ATOM     17  C   UNL     1      -1.775  -4.956   1.812  0.00  0.00    +0.242 C 
ATOM     18  O   UNL     1      -2.680  -4.394   1.233  0.00  0.00    -0.273 OA
ATOM     19  N   UNL     1      -2.009  -5.579   2.984  0.00  0.00    -0.311 N 
ATOM     20  H   UNL     1      -1.285  -6.028   3.447  0.00  0.00    +0.149 HD
BRANCH  19  21
ATOM     21  C   UNL     1      -3.357  -5.578   3.558  0.00  0.00    +0.073 C 
ATOM     22  C   UNL     1      -4.165  -6.772   3.010  0.00  0.00    +0.022 C 
ATOM     23  C   UNL     1      -3.999  -7.870   4.090  0.00  0.00    +0.002 C 
ATOM     24  C   UNL     1      -4.045  -7.061   5.410  0.00  0.00    +0.002 C 
ATOM     25  C   UNL     1      -3.280  -5.761   5.084  0.00  0.00    +0.022 C 
ENDBRANCH  19  21
ENDBRANCH  11  17
ENDBRANCH   1  11
BRANCH   2  26
ATOM     26  C   UNL     1      -0.058  -4.082  -2.490  0.00  0.00    +0.264 C 
BRANCH  26  27
ATOM     27  N   UNL     1      -0.291  -5.017  -3.594  0.00  0.00    -0.154 N 
ATOM     28  N   UNL     1       0.628  -5.640  -4.249  0.00  0.00    -0.127 NA
ATOM     29  C   UNL     1       0.035  -6.387  -5.162  0.00  0.00    +0.239 A 
ATOM     30  N   UNL     1      -1.284  -6.185  -5.026  0.00  0.00    -0.105 NA
ATOM     31  N   UNL     1      -1.445  -5.348  -4.057  0.00  0.00    -0.045 NA
BRANCH  29  32
ATOM     32  C   UNL     1       0.697  -7.274  -6.144  0.00  0.00    +0.175 A 
ATOM     33  C   UNL     1       0.071  -8.033  -7.081  0.00  0.00    +0.053 A 
ATOM     34  C   UNL     1       1.080  -8.713  -7.793  0.00  0.00    +0.045 A 
ATOM     35  C   UNL     1       2.259  -8.338  -7.260  0.00  0.00    +0.103 A 
ATOM     36  O   UNL     1       2.024  -7.465  -6.268  0.00  0.00    -0.457 OA
ATOM     37  C   UNL     1       3.617  -8.816  -7.707  0.00  0.00    +0.086 C 
ENDBRANCH  29  32
ENDBRANCH  26  27
ENDBRANCH   2  26
TORSDOF 8
