REMARK  Name = ZINC40066958
REMARK  15 active torsions:
REMARK  status: ('A' for Active; 'I' for Inactive)
REMARK    1  A    between atoms: C_1  and  C_2
REMARK    2  A    between atoms: C_2  and  C_3
REMARK    3  A    between atoms: C_3  and  C_4
REMARK    4  A    between atoms: C_4  and  N_5
REMARK    5  A    between atoms: C_6  and  N_28
REMARK    6  A    between atoms: C_7  and  C_15
REMARK    7  A    between atoms: C_8  and  C_14
REMARK    8  A    between atoms: C_9  and  C_12
REMARK    9  A    between atoms: N_19  and  C_23
REMARK   10  A    between atoms: C_23  and  C_24
REMARK   11  A    between atoms: C_24  and  C_25
REMARK   12  A    between atoms: C_25  and  O_26
REMARK   13  A    between atoms: O_26  and  C_27
REMARK   14  A    between atoms: N_28  and  C_29
REMARK   15  A    between atoms: C_29  and  C_30
REMARK                            x       y       z     vdW  Elec       q    Type
REMARK                         _______ _______ _______ _____ _____    ______ ____
ROOT
ATOM      1  N   UNL     1       1.277  -2.757  -2.438  0.00  0.00    -0.295 N 
ATOM      2  C   UNL     1       0.465  -2.918  -3.515  0.00  0.00    +0.109 A 
ATOM      3  C   UNL     1       1.005  -3.219  -4.777  0.00  0.00    +0.019 A 
ATOM      4  C   UNL     1       2.396  -3.353  -4.919  0.00  0.00    -0.017 A 
ATOM      5  C   UNL     1       3.207  -3.183  -3.800  0.00  0.00    +0.120 A 
ATOM      6  C   UNL     1       2.612  -2.875  -2.550  0.00  0.00    +0.270 A 
ATOM      7  O   UNL     1       3.317  -2.720  -1.567  0.00  0.00    -0.266 OA
ATOM      8  C   UNL     1       3.002  -3.676  -6.261  0.00  0.00    +0.046 C 
ENDROOT
BRANCH   3   9
ATOM      9  C   UNL     1       0.125  -3.392  -5.934  0.00  0.00    +0.032 C 
ATOM     10  C   UNL     1      -0.726  -2.394  -6.297  0.00  0.00    +0.077 C 
ATOM     11  C   UNL     1      -1.742  -2.387  -7.301  0.00  0.00    +0.258 C 
ATOM     12  O   UNL     1      -1.954  -3.371  -7.986  0.00  0.00    -0.269 OA
ATOM     13  N   UNL     1      -2.445  -1.280  -7.463  0.00  0.00    -0.255 N 
ATOM     14  C   UNL     1      -2.209  -0.188  -6.703  0.00  0.00    +0.121 C 
ATOM     15  S   UNL     1      -2.990   1.336  -6.742  0.00  0.00    -0.027 S 
ATOM     16  S   UNL     1      -0.882  -0.739  -5.641  0.00  0.00    -0.061 S 
BRANCH  13  17
ATOM     17  C   UNL     1      -3.495  -1.235  -8.484  0.00  0.00    +0.117 C 
BRANCH  17  18
ATOM     18  C   UNL     1      -4.822  -1.688  -7.871  0.00  0.00    +0.047 C 
BRANCH  18  19
ATOM     19  C   UNL     1      -5.919  -1.641  -8.936  0.00  0.00    +0.161 C 
BRANCH  19  20
ATOM     20  O   UNL     1      -7.158  -2.064  -8.363  0.00  0.00    -0.383 OA
ATOM     21  C   UNL     1      -8.254  -2.057  -9.280  0.00  0.00    +0.193 C 
ENDBRANCH  19  20
ENDBRANCH  18  19
ENDBRANCH  17  18
ENDBRANCH  13  17
ENDBRANCH   3   9
BRANCH   5  22
ATOM     22  C   UNL     1       4.628  -3.313  -3.911  0.00  0.00    +0.105 C 
ATOM     23  N   UNL     1       5.756  -3.416  -4.000  0.00  0.00    -0.191 NA
ENDBRANCH   5  22
BRANCH   2  24
ATOM     24  N   UNL     1      -0.885  -2.787  -3.370  0.00  0.00    -0.326 N 
ATOM     25  H   UNL     1      -1.295  -1.910  -3.423  0.00  0.00    +0.148 HD
BRANCH  24  26
ATOM     26  C   UNL     1      -1.715  -3.971  -3.135  0.00  0.00    +0.138 C 
BRANCH  26  27
ATOM     27  C   UNL     1      -3.167  -3.568  -3.103  0.00  0.00    -0.030 A 
ATOM     28  C   UNL     1      -3.755  -3.197  -1.909  0.00  0.00    +0.005 A 
ATOM     29  C   UNL     1      -5.087  -2.828  -1.880  0.00  0.00    +0.000 A 
ATOM     30  C   UNL     1      -5.830  -2.830  -3.045  0.00  0.00    +0.000 A 
ATOM     31  C   UNL     1      -5.242  -3.200  -4.240  0.00  0.00    +0.000 A 
ATOM     32  C   UNL     1      -3.909  -3.566  -4.270  0.00  0.00    +0.005 A 
ENDBRANCH  26  27
ENDBRANCH  24  26
ENDBRANCH   2  24
BRANCH   1  33
ATOM     33  C   UNL     1       0.688  -2.444  -1.134  0.00  0.00    +0.126 C 
BRANCH  33  34
ATOM     34  C   UNL     1       0.484  -0.932  -1.016  0.00  0.00    +0.021 C 
BRANCH  34  36
ATOM     35  C   UNL     1      -0.445   0.895   0.411  0.00  0.00    +0.004 C 
ATOM     36  C   UNL     1      -0.241  -0.616   0.293  0.00  0.00    -0.002 C 
ENDBRANCH  34  36
ENDBRANCH  33  34
ENDBRANCH   1  33
TORSDOF 12
