REMARK  Name = ZINC20736045
REMARK  6 active torsions:
REMARK  status: ('A' for Active; 'I' for Inactive)
REMARK    1  A    between atoms: C_1  and  C_2
REMARK    2  A    between atoms: C_2  and  C_3
REMARK    3  A    between atoms: C_2  and  C_4
REMARK    4  A    between atoms: C_4  and  O_5
REMARK    5  A    between atoms: O_5  and  C_6
REMARK    6  A    between atoms: C_10  and  C_12
REMARK                            x       y       z     vdW  Elec       q    Type
REMARK                         _______ _______ _______ _____ _____    ______ ____
ROOT
ATOM      1  C   UNL     1      -3.965  -6.112  -0.363  0.00  0.00    +0.112 C 
ATOM      2  C   UNL     1      -4.608  -6.668   0.869  0.00  0.00    +0.029 A 
ATOM      3  C   UNL     1      -4.583  -6.006   2.062  0.00  0.00    +0.111 A 
ATOM      4  N   UNL     1      -5.239  -6.751   2.968  0.00  0.00    -0.283 N 
ATOM      5  H   UNL     1      -5.378  -6.524   3.901  0.00  0.00    +0.188 HD
ATOM      6  N   UNL     1      -5.685  -7.907   2.329  0.00  0.00    -0.158 NA
ATOM      7  C   UNL     1      -5.304  -7.862   1.056  0.00  0.00    +0.151 A 
ATOM      8  N   UNL     1      -5.610  -8.889   0.183  0.00  0.00    -0.268 N 
ATOM      9  C   UNL     1      -5.411  -9.095  -1.085  0.00  0.00    +0.228 C 
ATOM     10  O   UNL     1      -5.930 -10.100  -1.522  0.00  0.00    -0.275 OA
ATOM     11  C   UNL     1      -4.659  -8.306  -2.080  0.00  0.00    +0.166 C 
ATOM     12  S   UNL     1      -4.847  -6.531  -1.869  0.00  0.00    -0.138 S 
ATOM     13  H   UNL     1      -6.079  -9.621   0.613  0.00  0.00    +0.156 HD
ENDROOT
BRANCH   1  18
ATOM     14  C   UNL     1      -2.620  -2.590  -0.120  0.00  0.00    +0.121 A 
ATOM     15  C   UNL     1      -3.792  -1.855  -0.015  0.00  0.00    +0.045 A 
ATOM     16  C   UNL     1      -5.013  -2.500  -0.023  0.00  0.00    +0.004 A 
ATOM     17  C   UNL     1      -5.068  -3.877  -0.136  0.00  0.00    +0.005 A 
ATOM     18  C   UNL     1      -3.901  -4.612  -0.240  0.00  0.00    -0.026 A 
ATOM     19  C   UNL     1      -2.678  -3.971  -0.238  0.00  0.00    +0.050 A 
BRANCH  14  20
ATOM     20  O   UNL     1      -1.417  -1.957  -0.112  0.00  0.00    -0.492 OA
BRANCH  20  21
ATOM     21  C   UNL     1      -1.433  -0.534   0.013  0.00  0.00    +0.232 C 
BRANCH  21  23
ATOM     22  C   UNL     1      -0.019   1.526   0.010  0.00  0.00    +0.010 C 
ATOM     23  C   UNL     1       0.002  -0.004   0.002  0.00  0.00    +0.020 C 
ATOM     24  C   UNL     1       0.742  -0.511   1.242  0.00  0.00    +0.010 C 
ENDBRANCH  21  23
ENDBRANCH  20  21
ENDBRANCH  14  20
ENDBRANCH   1  18
TORSDOF 4
