REMARK  Name = ZINC66702391
REMARK  7 active torsions:
REMARK  status: ('A' for Active; 'I' for Inactive)
REMARK    1  A    between atoms: C_1  and  C_2
REMARK    2  A    between atoms: C_2  and  C_3
REMARK    3  A    between atoms: C_3  and  N_4
REMARK    4  A    between atoms: N_4  and  C_5
REMARK    5  A    between atoms: C_5  and  C_6
REMARK    6  A    between atoms: C_11  and  O_12
REMARK    7  A    between atoms: N_15  and  C_16
REMARK                            x       y       z     vdW  Elec       q    Type
REMARK                         _______ _______ _______ _____ _____    ______ ____
ROOT
ATOM      1  N   UNL     1      -1.413  -1.998   0.005  0.00  0.00    -0.281 N 
ATOM      2  C   UNL     1      -1.415  -2.666  -1.166  0.00  0.00    +0.303 C 
ATOM      3  O   UNL     1      -1.399  -3.882  -1.173  0.00  0.00    -0.253 OA
ATOM      4  N   UNL     1      -1.436  -1.986  -2.329  0.00  0.00    -0.296 N 
ATOM      5  H   UNL     1      -1.449  -1.016  -2.324  0.00  0.00    +0.151 HD
ENDROOT
BRANCH   4   6
ATOM      6  C   UNL     1      -1.438  -2.712  -3.602  0.00  0.00    +0.079 C 
ATOM      7  C   UNL     1      -0.862  -1.818  -4.707  0.00  0.00    +0.027 C 
ATOM      8  C   UNL     1      -0.654  -2.671  -5.957  0.00  0.00    +0.037 C 
ATOM      9  C   UNL     1      -1.910  -3.431  -6.294  0.00  0.00    -0.044 A 
ATOM     10  C   UNL     1      -2.030  -3.946  -7.578  0.00  0.00    +0.004 A 
ATOM     11  C   UNL     1      -3.153  -4.657  -7.947  0.00  0.00    +0.000 A 
ATOM     12  C   UNL     1      -4.168  -4.859  -7.031  0.00  0.00    +0.000 A 
ATOM     13  C   UNL     1      -4.053  -4.347  -5.755  0.00  0.00    +0.004 A 
ATOM     14  C   UNL     1      -2.924  -3.628  -5.383  0.00  0.00    -0.042 A 
ATOM     15  C   UNL     1      -2.870  -3.084  -3.979  0.00  0.00    +0.057 C 
ENDBRANCH   4   6
BRANCH   1  16
ATOM     16  C   UNL     1      -1.433  -0.534   0.013  0.00  0.00    +0.109 C 
BRANCH  16  18
ATOM     17  C   UNL     1      -0.019   1.526   0.010  0.00  0.00    +0.005 C 
ATOM     18  C   UNL     1       0.002  -0.004   0.002  0.00  0.00    +0.016 C 
ENDBRANCH  16  18
ENDBRANCH   1  16
BRANCH   1  19
ATOM     19  C   UNL     1      -1.391  -2.738   1.269  0.00  0.00    +0.148 C 
BRANCH  19  20
ATOM     20  C   UNL     1      -2.804  -3.010   1.716  0.00  0.00    +0.011 A 
ATOM     21  C   UNL     1      -3.391  -2.213   2.681  0.00  0.00    +0.009 A 
ATOM     22  C   UNL     1      -4.687  -2.463   3.091  0.00  0.00    +0.001 A 
ATOM     23  C   UNL     1      -5.400  -3.511   2.539  0.00  0.00    +0.004 A 
ATOM     24  C   UNL     1      -4.818  -4.311   1.574  0.00  0.00    +0.046 A 
ATOM     25  C   UNL     1      -3.519  -4.059   1.157  0.00  0.00    +0.122 A 
BRANCH  25  26
ATOM     26  O   UNL     1      -2.947  -4.841   0.204  0.00  0.00    -0.506 OA
ATOM     27  H   UNL     1      -2.478  -5.610   0.556  0.00  0.00    +0.292 HD
ENDBRANCH  25  26
ENDBRANCH  19  20
ENDBRANCH   1  19
TORSDOF 6
