REMARK  Name = ZINC03672045
REMARK  5 active torsions:
REMARK  status: ('A' for Active; 'I' for Inactive)
REMARK    1  A    between atoms: C_1  and  C_2
REMARK    2  A    between atoms: N_13  and  C_29
REMARK    3  A    between atoms: N_16  and  C_23
REMARK    4  A    between atoms: C_18  and  C_20
REMARK    5  A    between atoms: C_20  and  C_22
REMARK                            x       y       z     vdW  Elec       q    Type
REMARK                         _______ _______ _______ _____ _____    ______ ____
ROOT
ATOM      1  C   UNL     1      10.435   6.504   0.942  0.00  0.00    +0.008 C 
ATOM      2  C   UNL     1       9.193   5.664   0.636  0.00  0.00    -0.009 C 
ATOM      3  C   UNL     1       9.434   4.830  -0.626  0.00  0.00    +0.008 C 
ATOM      4  C   UNL     1       8.125   4.181  -1.078  0.00  0.00    +0.037 C 
ATOM      5  C   UNL     1       7.514   3.433   0.101  0.00  0.00    -0.023 A 
ATOM      6  C   UNL     1       7.897   3.706   1.368  0.00  0.00    -0.004 A 
ATOM      7  S   UNL     1       6.936   2.613   2.382  0.00  0.00    -0.078 S 
ATOM      8  C   UNL     1       6.046   1.820   1.152  0.00  0.00    +0.082 A 
ATOM      9  C   UNL     1       6.501   2.398  -0.043  0.00  0.00    +0.069 A 
ATOM     10  C   UNL     1       5.923   1.907  -1.315  0.00  0.00    +0.257 C 
ATOM     11  O   UNL     1       6.193   2.432  -2.380  0.00  0.00    -0.269 OA
ATOM     12  N   UNL     1       5.082   0.850  -1.243  0.00  0.00    -0.219 N 
ATOM     13  C   UNL     1       4.897   0.065  -0.039  0.00  0.00    +0.254 C 
ATOM     14  N   UNL     1       5.088   0.838   1.191  0.00  0.00    -0.291 N 
ATOM     15  N   UNL     1       3.595  -0.619  -0.029  0.00  0.00    -0.173 N 
ATOM     16  N   UNL     1       3.657  -1.998  -0.020  0.00  0.00    -0.165 NA
ATOM     17  C   UNL     1       4.787  -2.658  -0.029  0.00  0.00    +0.162 C 
ATOM     18  S   UNL     1       6.032  -1.377  -0.039  0.00  0.00    -0.033 S 
ATOM     19  C   UNL     1       8.912   4.713   1.809  0.00  0.00    +0.046 C 
ATOM     20  H   UNL     1       4.565   0.665   1.989  0.00  0.00    +0.151 HD
ENDROOT
BRANCH  15  21
ATOM     21  C   UNL     1       2.386   0.075  -0.025  0.00  0.00    +0.056 A 
ATOM     22  C   UNL     1       1.182  -0.621  -0.016  0.00  0.00    +0.025 A 
ATOM     23  C   UNL     1      -0.013   0.070  -0.011  0.00  0.00    +0.002 A 
ATOM     24  C   UNL     1      -0.014   1.453  -0.015  0.00  0.00    +0.000 A 
ATOM     25  C   UNL     1       1.181   2.149  -0.023  0.00  0.00    +0.002 A 
ATOM     26  C   UNL     1       2.380   1.465  -0.028  0.00  0.00    +0.025 A 
ENDBRANCH  15  21
BRANCH  12  27
ATOM     27  C   UNL     1       4.356   0.498  -2.385  0.00  0.00    +0.041 A 
ATOM     28  C   UNL     1       4.603  -0.712  -3.021  0.00  0.00    +0.023 A 
ATOM     29  C   UNL     1       3.881  -1.060  -4.146  0.00  0.00    +0.002 A 
ATOM     30  C   UNL     1       2.921  -0.200  -4.646  0.00  0.00    +0.000 A 
ATOM     31  C   UNL     1       2.676   1.008  -4.018  0.00  0.00    +0.002 A 
ATOM     32  C   UNL     1       3.391   1.359  -2.890  0.00  0.00    +0.023 A 
ENDBRANCH  12  27
BRANCH  17  33
ATOM     33  C   UNL     1       4.978  -4.062  -0.026  0.00  0.00    +0.186 C 
ATOM     34  O   UNL     1       6.102  -4.521  -0.031  0.00  0.00    -0.290 OA
ATOM     35  C   UNL     1       3.787  -4.984  -0.017  0.00  0.00    +0.094 C 
ENDBRANCH  17  33
TORSDOF 3
