REMARK  Name = ZINC39795030
REMARK  3 active torsions:
REMARK  status: ('A' for Active; 'I' for Inactive)
REMARK    1  A    between atoms: C_4  and  C_11
REMARK    2  A    between atoms: C_6  and  C_7
REMARK    3  A    between atoms: C_14  and  C_16
REMARK                            x       y       z     vdW  Elec       q    Type
REMARK                         _______ _______ _______ _____ _____    ______ ____
ROOT
ATOM      1  C   UNL     1       6.050  -3.204   1.171  0.00  0.00    +0.128 C 
ATOM      2  C   UNL     1       5.292  -4.490   1.018  0.00  0.00    +0.070 A 
ATOM      3  C   UNL     1       5.168  -5.358   2.061  0.00  0.00    +0.113 A 
ATOM      4  N   UNL     1       4.473  -6.531   1.889  0.00  0.00    -0.295 N 
ATOM      5  C   UNL     1       3.915  -6.822   0.699  0.00  0.00    +0.328 A 
ATOM      6  O   UNL     1       3.304  -7.864   0.563  0.00  0.00    -0.247 OA
ATOM      7  N   UNL     1       4.023  -5.976  -0.342  0.00  0.00    -0.275 N 
ATOM      8  C   UNL     1       4.696  -4.816  -0.215  0.00  0.00    +0.260 A 
ATOM      9  O   UNL     1       4.789  -4.053  -1.161  0.00  0.00    -0.267 OA
ATOM     10  N   UNL     1       5.732  -5.061   3.276  0.00  0.00    -0.303 N 
ATOM     11  C   UNL     1       6.072  -3.773   3.592  0.00  0.00    +0.017 C 
ATOM     12  C   UNL     1       6.228  -2.846   2.624  0.00  0.00    +0.027 C 
ATOM     13  C   UNL     1       6.562  -1.518   2.942  0.00  0.00    +0.162 C 
ATOM     14  O   UNL     1       6.703  -0.708   2.047  0.00  0.00    -0.292 OA
ATOM     15  C   UNL     1       6.748  -1.080   4.369  0.00  0.00    +0.080 C 
ATOM     16  C   UNL     1       5.883  -1.960   5.278  0.00  0.00    +0.014 C 
ATOM     17  C   UNL     1       6.271  -3.421   5.046  0.00  0.00    +0.051 C 
ATOM     18  H   UNL     1       3.612  -6.202  -1.190  0.00  0.00    +0.173 HD
ATOM     19  H   UNL     1       5.891  -5.771   3.917  0.00  0.00    +0.153 HD
ATOM     20  H   UNL     1       4.385  -7.152   2.628  0.00  0.00    +0.172 HD
ENDROOT
BRANCH   1  24
ATOM     21  C   UNL     1       3.695  -0.687  -0.038  0.00  0.00    +0.137 A 
ATOM     22  C   UNL     1       4.729  -0.448  -0.887  0.00  0.00    +0.050 A 
ATOM     23  C   UNL     1       5.750  -1.359  -0.549  0.00  0.00    +0.046 A 
ATOM     24  C   UNL     1       5.293  -2.100   0.479  0.00  0.00    +0.118 A 
ATOM     25  O   UNL     1       4.053  -1.688   0.789  0.00  0.00    -0.459 OA
BRANCH  21  29
ATOM     26  C   UNL     1      -0.017   1.379   0.010  0.00  0.00    +0.014 A 
ATOM     27  C   UNL     1       1.168   2.094   0.002  0.00  0.00    +0.021 A 
ATOM     28  C   UNL     1       2.378   1.429  -0.013  0.00  0.00    +0.052 A 
ATOM     29  C   UNL     1       2.404   0.032  -0.021  0.00  0.00    +0.036 A 
ATOM     30  C   UNL     1       1.204  -0.681  -0.013  0.00  0.00    +0.025 A 
ATOM     31  C   UNL     1       0.002  -0.004   0.002  0.00  0.00    +0.056 A 
ATOM     32 CL   UNL     1       3.864   2.327  -0.024  0.00  0.00    -0.083 Cl
BRANCH  31  33
ATOM     33  C   UNL     1      -1.294  -0.773   0.011  0.00  0.00    +0.417 C 
ATOM     34  F   UNL     1      -2.368   0.123   0.026  0.00  0.00    -0.166 F 
ATOM     35  F   UNL     1      -1.369  -1.572  -1.135  0.00  0.00    -0.166 F 
ATOM     36  F   UNL     1      -1.347  -1.585   1.149  0.00  0.00    -0.166 F 
ENDBRANCH  31  33
ENDBRANCH  21  29
ENDBRANCH   1  24
TORSDOF 3
