REMARK  Name = ZINC18656046
REMARK  6 active torsions:
REMARK  status: ('A' for Active; 'I' for Inactive)
REMARK    1  A    between atoms: C_1  and  C_2
REMARK    2  A    between atoms: C_2  and  C_4
REMARK    3  A    between atoms: C_2  and  O_14
REMARK    4  A    between atoms: C_7  and  C_9
REMARK    5  A    between atoms: O_14  and  C_15
REMARK    6  A    between atoms: C_15  and  C_17
REMARK                            x       y       z     vdW  Elec       q    Type
REMARK                         _______ _______ _______ _____ _____    ______ ____
ROOT
ATOM      1  C   UNL     1       0.196   9.490   0.052  0.00  0.00    +0.347 C 
ATOM      2  O   UNL     1       1.195  10.184   0.046  0.00  0.00    -0.244 OA
ENDROOT
BRANCH   1   3
ATOM      3  C   UNL     1       0.317   8.031   0.044  0.00  0.00    +0.098 A 
ATOM      4  C   UNL     1       1.460   7.258   0.029  0.00  0.00    +0.038 A 
ATOM      5  C   UNL     1       1.342   5.877   0.022  0.00  0.00    +0.028 A 
ATOM      6  C   UNL     1       0.056   5.340   0.031  0.00  0.00    +0.035 A 
ATOM      7  S   UNL     1      -0.974   6.802   0.049  0.00  0.00    -0.081 S 
ATOM      8  C   UNL     1      -0.076   3.882   0.024  0.00  0.00    +0.004 A 
ATOM      9  C   UNL     1      -1.267   3.118   0.031  0.00  0.00    +0.010 A 
ATOM     10  C   UNL     1      -1.221   1.758   0.017  0.00  0.00    +0.001 A 
ATOM     11  C   UNL     1      -0.013   1.076   0.008  0.00  0.00    +0.001 A 
ATOM     12  C   UNL     1       1.171   1.788   0.001  0.00  0.00    +0.016 A 
ATOM     13  C   UNL     1       1.135   3.167   0.008  0.00  0.00    +0.021 A 
ATOM     14  S   UNL     1       2.385   4.424   0.004  0.00  0.00    -0.088 S 
ENDBRANCH   1   3
BRANCH   1  15
ATOM     15  O   UNL     1      -1.024  10.065   0.067  0.00  0.00    -0.448 OA
BRANCH  15  17
ATOM     16  C   UNL     1      -1.070  11.996   1.520  0.00  0.00    +0.062 C 
ATOM     17  C   UNL     1      -1.068  11.494   0.075  0.00  0.00    +0.261 C 
BRANCH  17  18
ATOM     18  C   UNL     1      -2.321  11.962  -0.621  0.00  0.00    +0.258 A 
ATOM     19  N   UNL     1      -3.518  11.475  -0.458  0.00  0.00    -0.108 NA
ATOM     20  N   UNL     1      -4.348  12.113  -1.206  0.00  0.00    -0.107 NA
ATOM     21  C   UNL     1      -3.700  13.033  -1.885  0.00  0.00    +0.255 A 
ATOM     22  O   UNL     1      -2.402  12.953  -1.526  0.00  0.00    -0.416 OA
BRANCH  21  23
ATOM     23  C   UNL     1      -4.281  13.973  -2.856  0.00  0.00    +0.076 A 
ATOM     24  C   UNL     1      -5.595  14.103  -3.264  0.00  0.00    +0.021 A 
ATOM     25  C   UNL     1      -5.899  15.068  -4.196  0.00  0.00    +0.008 A 
ATOM     26  C   UNL     1      -4.906  15.857  -4.683  0.00  0.00    +0.046 A 
ATOM     27  S   UNL     1      -3.474  15.249  -3.809  0.00  0.00    -0.092 S 
ENDBRANCH  21  23
ENDBRANCH  17  18
ENDBRANCH  15  17
ENDBRANCH   1  15
TORSDOF 5
