REMARK  Name = ZINC13059136
REMARK  8 active torsions:
REMARK  status: ('A' for Active; 'I' for Inactive)
REMARK    1  A    between atoms: C_1  and  C_2
REMARK    2  A    between atoms: C_7  and  N_12
REMARK    3  A    between atoms: C_9  and  C_11
REMARK    4  A    between atoms: C_13  and  C_15
REMARK    5  A    between atoms: C_15  and  N_16
REMARK    6  A    between atoms: N_19  and  S_22
REMARK    7  A    between atoms: S_22  and  C_25
REMARK    8  A    between atoms: C_28  and  C_31
REMARK                            x       y       z     vdW  Elec       q    Type
REMARK                         _______ _______ _______ _____ _____    ______ ____
ROOT
ATOM      1  N   UNL     1      -2.306  -5.648   2.322  0.00  0.00    -0.291 NA
ATOM      2  C   UNL     1      -1.582  -6.598   1.466  0.00  0.00    +0.102 C 
ATOM      3  C   UNL     1      -1.469  -7.946   2.186  0.00  0.00    +0.125 C 
ATOM      4  N   UNL     1      -2.817  -8.374   2.589  0.00  0.00    -0.174 NA
ATOM      5  C   UNL     1      -3.657  -7.423   3.333  0.00  0.00    +0.125 C 
ATOM      6  C   UNL     1      -3.683  -6.096   2.568  0.00  0.00    +0.102 C 
ENDROOT
BRANCH   4   7
ATOM      7  S   UNL     1      -3.375  -9.888   2.216  0.00  0.00    +0.061 S 
ATOM      8  O   UNL     1      -4.793  -9.810   2.215  0.00  0.00    -0.153 OA
ATOM      9  O   UNL     1      -2.635 -10.326   1.084  0.00  0.00    -0.153 OA
BRANCH   7  10
ATOM     10  C   UNL     1      -2.930 -10.951   3.549  0.00  0.00    +0.105 A 
ATOM     11  C   UNL     1      -1.716 -11.611   3.531  0.00  0.00    +0.029 A 
ATOM     12  C   UNL     1      -1.367 -12.445   4.577  0.00  0.00    +0.006 A 
ATOM     13  C   UNL     1      -2.232 -12.618   5.641  0.00  0.00    -0.044 A 
ATOM     14  C   UNL     1      -3.446 -11.957   5.660  0.00  0.00    +0.006 A 
ATOM     15  C   UNL     1      -3.793 -11.120   4.616  0.00  0.00    +0.029 A 
BRANCH  13  16
ATOM     16  C   UNL     1      -1.852 -13.527   6.781  0.00  0.00    +0.019 C 
ATOM     17  C   UNL     1      -2.883 -14.651   6.903  0.00  0.00    +0.008 C 
ATOM     18  C   UNL     1      -2.497 -15.574   8.060  0.00  0.00    +0.001 C 
ATOM     19  C   UNL     1      -2.461 -14.772   9.363  0.00  0.00    +0.000 C 
ATOM     20  C   UNL     1      -1.430 -13.648   9.241  0.00  0.00    +0.001 C 
ATOM     21  C   UNL     1      -1.816 -12.725   8.084  0.00  0.00    +0.008 C 
ENDBRANCH  13  16
ENDBRANCH   7  10
ENDBRANCH   4   7
BRANCH   1  22
ATOM     22  C   UNL     1      -2.287  -4.298   1.743  0.00  0.00    +0.180 C 
BRANCH  22  24
ATOM     23  N   UNL     1      -0.612  -2.548   1.244  0.00  0.00    -0.311 N 
ATOM     24  C   UNL     1      -0.873  -3.776   1.733  0.00  0.00    +0.227 C 
ATOM     25  O   UNL     1       0.030  -4.462   2.164  0.00  0.00    -0.274 OA
ATOM     26  H   UNL     1      -1.333  -2.000   0.898  0.00  0.00    +0.149 HD
BRANCH  23  32
ATOM     27  C   UNL     1      -0.019   1.526   0.010  0.00  0.00    +0.008 C 
ATOM     28  C   UNL     1       0.002  -0.004   0.002  0.00  0.00    -0.009 C 
ATOM     29  C   UNL     1       0.718  -0.497  -1.257  0.00  0.00    +0.003 C 
ATOM     30  C   UNL     1       0.739  -2.027  -1.265  0.00  0.00    +0.002 C 
ATOM     31  C   UNL     1       1.479  -2.534  -0.026  0.00  0.00    +0.022 C 
ATOM     32  C   UNL     1       0.763  -2.041   1.233  0.00  0.00    +0.076 C 
ATOM     33  C   UNL     1       0.742  -0.511   1.242  0.00  0.00    +0.009 C 
ATOM     34  C   UNL     1       0.026  -0.018   2.500  0.00  0.00    +0.009 C 
ENDBRANCH  23  32
ENDBRANCH  22  24
ENDBRANCH   1  22
TORSDOF 6
