REMARK  Name = ZINC22418198
REMARK  17 active torsions:
REMARK  status: ('A' for Active; 'I' for Inactive)
REMARK    1  A    between atoms: C_1  and  C_2
REMARK    2  A    between atoms: C_2  and  O_3
REMARK    3  A    between atoms: O_3  and  C_4
REMARK    4  A    between atoms: C_6  and  C_16
REMARK    5  A    between atoms: C_8  and  O_13
REMARK    6  A    between atoms: C_9  and  O_10
REMARK    7  A    between atoms: O_10  and  C_11
REMARK    8  A    between atoms: C_11  and  C_12
REMARK    9  A    between atoms: O_13  and  C_14
REMARK   10  A    between atoms: C_14  and  C_15
REMARK   11  A    between atoms: N_18  and  C_19
REMARK   12  A    between atoms: C_19  and  C_20
REMARK   13  A    between atoms: C_20  and  C_22
REMARK   14  A    between atoms: C_20  and  N_31
REMARK   15  A    between atoms: C_25  and  N_28
REMARK   16  A    between atoms: N_28  and  C_29
REMARK   17  A    between atoms: N_28  and  C_30
REMARK                            x       y       z     vdW  Elec       q    Type
REMARK                         _______ _______ _______ _____ _____    ______ ____
ROOT
ATOM      1  C   UNL     1       2.477   1.037  -0.033  0.00  0.00    -0.020 C 
ENDROOT
BRANCH   1   2
ATOM      2  N   UNL     1       3.413   1.813  -0.858  0.00  0.00    +0.388 N 
ATOM      3  C   UNL     1       3.067   1.709  -2.285  0.00  0.00    -0.073 C 
ATOM      4  C   UNL     1       3.819   2.801  -3.046  0.00  0.00    +0.017 C 
ATOM      5  C   UNL     1       5.282   2.768  -2.683  0.00  0.00    -0.048 A 
ATOM      6  C   UNL     1       6.184   3.422  -3.509  0.00  0.00    +0.004 A 
ATOM      7  C   UNL     1       7.531   3.420  -3.210  0.00  0.00    +0.000 A 
ATOM      8  C   UNL     1       7.984   2.761  -2.082  0.00  0.00    +0.000 A 
ATOM      9  C   UNL     1       7.088   2.109  -1.260  0.00  0.00    +0.002 A 
ATOM     10  C   UNL     1       5.733   2.109  -1.560  0.00  0.00    -0.061 A 
ATOM     11  C   UNL     1       4.795   1.376  -0.637  0.00  0.00    -0.042 C 
ATOM     12  H   UNL     1       3.332   2.866  -0.553  0.00  0.00    -0.080 HD
ENDBRANCH   1   2
BRANCH   1  13
ATOM     13  C   UNL     1       1.107   1.660  -0.106  0.00  0.00    -0.059 A 
ATOM     14  C   UNL     1      -0.014   0.854  -0.184  0.00  0.00    +0.004 A 
ATOM     15  C   UNL     1      -1.271   1.422  -0.257  0.00  0.00    +0.023 A 
ATOM     16  C   UNL     1      -1.409   2.804  -0.241  0.00  0.00    +0.029 A 
ATOM     17  C   UNL     1      -0.281   3.611  -0.162  0.00  0.00    +0.023 A 
ATOM     18  C   UNL     1       0.973   3.036  -0.095  0.00  0.00    +0.004 A 
BRANCH  16  19
ATOM     19  N   UNL     1      -2.679   3.381  -0.309  0.00  0.00    -0.336 N 
ATOM     20  C   UNL     1      -2.831   4.833  -0.189  0.00  0.00    +0.129 C 
ATOM     21  C   UNL     1      -3.859   2.534  -0.500  0.00  0.00    +0.129 C 
ENDBRANCH  16  19
ENDBRANCH   1  13
BRANCH   1  22
ATOM     22  C   UNL     1       2.959   1.035   1.419  0.00  0.00    +0.094 C 
BRANCH  22  25
ATOM     23  C   UNL     1       2.237   0.131   3.564  0.00  0.00    +0.244 C 
ATOM     24  O   UNL     1       3.128   0.764   4.097  0.00  0.00    -0.270 OA
ATOM     25  N   UNL     1       2.069   0.199   2.228  0.00  0.00    -0.313 N 
ATOM     26  H   UNL     1       1.263  -0.374   1.746  0.00  0.00    +0.149 HD
BRANCH  23  29
ATOM     27  C   UNL     1       0.672  -1.572   6.525  0.00  0.00    +0.166 A 
ATOM     28  C   UNL     1       1.514  -0.782   5.764  0.00  0.00    +0.062 A 
ATOM     29  C   UNL     1       1.341  -0.711   4.379  0.00  0.00    +0.044 A 
ATOM     30  C   UNL     1       0.313  -1.435   3.768  0.00  0.00    +0.062 A 
ATOM     31  C   UNL     1      -0.522  -2.227   4.533  0.00  0.00    +0.166 A 
ATOM     32  C   UNL     1      -0.348  -2.295   5.913  0.00  0.00    +0.204 A 
BRANCH  27  33
ATOM     33  O   UNL     1       0.840  -1.641   7.873  0.00  0.00    -0.488 OA
BRANCH  33  35
ATOM     34  C   UNL     1       1.939  -1.076   9.950  0.00  0.00    +0.048 C 
ATOM     35  C   UNL     1       1.906  -0.873   8.434  0.00  0.00    +0.226 C 
ENDBRANCH  33  35
ENDBRANCH  27  33
BRANCH  32  36
ATOM     36  O   UNL     1      -1.174  -3.070   6.663  0.00  0.00    -0.485 OA
BRANCH  36  37
ATOM     37  C   UNL     1      -2.359  -2.453   7.171  0.00  0.00    +0.226 C 
ATOM     38  C   UNL     1      -3.157  -3.474   7.985  0.00  0.00    +0.048 C 
ENDBRANCH  36  37
ENDBRANCH  32  36
BRANCH  31  39
ATOM     39  O   UNL     1      -1.520  -2.935   3.938  0.00  0.00    -0.488 OA
BRANCH  39  40
ATOM     40  C   UNL     1      -1.641  -2.818   2.519  0.00  0.00    +0.226 C 
ATOM     41  C   UNL     1      -2.809  -3.679   2.035  0.00  0.00    +0.048 C 
ENDBRANCH  39  40
ENDBRANCH  31  39
ENDBRANCH  23  29
ENDBRANCH  22  25
ENDBRANCH   1  22
TORSDOF 12
