REMARK  Name = ZINC02743414
REMARK  12 active torsions:
REMARK  status: ('A' for Active; 'I' for Inactive)
REMARK    1  A    between atoms: C_1  and  C_2
REMARK    2  A    between atoms: C_2  and  O_3
REMARK    3  A    between atoms: O_3  and  C_4
REMARK    4  A    between atoms: C_4  and  C_6
REMARK    5  A    between atoms: C_7  and  C_35
REMARK    6  A    between atoms: C_11  and  C_13
REMARK    7  A    between atoms: C_15  and  C_19
REMARK    8  A    between atoms: C_16  and  C_18
REMARK    9  A    between atoms: C_19  and  S_20
REMARK   10  A    between atoms: S_20  and  C_21
REMARK   11  A    between atoms: C_31  and  C_33
REMARK   12  A    between atoms: C_31  and  C_34
REMARK                            x       y       z     vdW  Elec       q    Type
REMARK                         _______ _______ _______ _____ _____    ______ ____
ROOT
ATOM      1  C   UNL     1      -2.853   0.505   5.058  0.00  0.00    +0.066 C 
ATOM      2  C   UNL     1      -3.204   1.272   6.105  0.00  0.00    +0.016 C 
ATOM      3  N   UNL     1      -4.144   2.253   5.960  0.00  0.00    -0.321 N 
ATOM      4  C   UNL     1      -5.020   2.232   4.908  0.00  0.00    +0.016 C 
ATOM      5  C   UNL     1      -4.750   1.499   3.807  0.00  0.00    +0.024 C 
ATOM      6  C   UNL     1      -3.473   0.704   3.705  0.00  0.00    +0.099 C 
ATOM      7  C   UNL     1      -5.648   1.455   2.727  0.00  0.00    +0.162 C 
ATOM      8  O   UNL     1      -5.371   0.791   1.747  0.00  0.00    -0.292 OA
ATOM      9  C   UNL     1      -6.946   2.215   2.761  0.00  0.00    +0.086 C 
ATOM     10  C   UNL     1      -7.401   2.360   4.216  0.00  0.00    -0.023 C 
ATOM     11  C   UNL     1      -6.286   3.046   5.008  0.00  0.00    +0.058 C 
ATOM     12  C   UNL     1      -7.677   0.976   4.809  0.00  0.00    +0.011 C 
ATOM     13  C   UNL     1      -8.673   3.208   4.279  0.00  0.00    +0.011 C 
ATOM     14  C   UNL     1      -2.555   1.048   7.446  0.00  0.00    +0.061 C 
ATOM     15  H   UNL     1      -4.203   3.071   6.694  0.00  0.00    +0.152 HD
ENDROOT
BRANCH   6  16
ATOM     16  C   UNL     1      -2.501   1.439   2.819  0.00  0.00    +0.002 A 
ATOM     17  C   UNL     1      -1.949   1.045   1.646  0.00  0.00    +0.017 A 
ATOM     18  C   UNL     1      -1.071   1.895   0.999  0.00  0.00    -0.027 A 
ATOM     19  C   UNL     1      -0.784   3.095   1.560  0.00  0.00    -0.009 A 
ATOM     20  S   UNL     1      -1.777   3.056   3.043  0.00  0.00    -0.097 S 
ATOM     21  C   UNL     1       0.135   4.180   1.062  0.00  0.00    +0.052 C 
BRANCH  18  22
ATOM     22  C   UNL     1      -0.438   1.491  -0.307  0.00  0.00    +0.110 C 
BRANCH  22  23
ATOM     23  S   UNL     1      -1.490   2.032  -1.682  0.00  0.00    -0.120 S 
BRANCH  23  24
ATOM     24  C   UNL     1      -0.625   1.492  -3.119  0.00  0.00    +0.008 A 
ATOM     25  C   UNL     1       0.586   0.823  -2.993  0.00  0.00    +0.016 A 
ATOM     26  C   UNL     1       1.259   0.397  -4.120  0.00  0.00    +0.021 A 
ATOM     27  C   UNL     1       0.734   0.646  -5.377  0.00  0.00    +0.041 A 
ATOM     28  C   UNL     1      -0.469   1.317  -5.506  0.00  0.00    +0.021 A 
ATOM     29  C   UNL     1      -1.150   1.741  -4.382  0.00  0.00    +0.016 A 
ATOM     30 CL   UNL     1       1.587   0.116  -6.793  0.00  0.00    -0.084 Cl
ENDBRANCH  23  24
ENDBRANCH  22  23
ENDBRANCH  18  22
ENDBRANCH   6  16
BRANCH   1  31
ATOM     31  C   UNL     1      -1.882  -0.508   5.234  0.00  0.00    +0.338 C 
ATOM     32  O   UNL     1      -2.222  -1.676   5.274  0.00  0.00    -0.245 OA
BRANCH  31  33
ATOM     33  O   UNL     1      -0.579  -0.180   5.358  0.00  0.00    -0.462 OA
BRANCH  33  35
ATOM     34  C   UNL     1       1.764  -0.691   5.655  0.00  0.00    +0.048 C 
ATOM     35  C   UNL     1       0.346  -1.254   5.533  0.00  0.00    +0.229 C 
ENDBRANCH  33  35
ENDBRANCH  31  33
ENDBRANCH   1  31
TORSDOF 7
