REMARK  Name = ZINC13065258
REMARK  12 active torsions:
REMARK  status: ('A' for Active; 'I' for Inactive)
REMARK    1  A    between atoms: C_1  and  C_2
REMARK    2  A    between atoms: C_2  and  C_3
REMARK    3  A    between atoms: C_3  and  C_5
REMARK    4  A    between atoms: C_3  and  N_75
REMARK    5  A    between atoms: N_9  and  C_10
REMARK    6  A    between atoms: C_16  and  C_17
REMARK    7  A    between atoms: C_16  and  N_75
REMARK    8  A    between atoms: C_20  and  C_23
REMARK    9  A    between atoms: C_24  and  C_25
REMARK   10  A    between atoms: C_24  and  N_75
REMARK   11  A    between atoms: C_28  and  C_38
REMARK   12  A    between atoms: C_31  and  C_37
REMARK                            x       y       z     vdW  Elec       q    Type
REMARK                         _______ _______ _______ _____ _____    ______ ____
ROOT
ATOM      1  N   UNL     1       0.769   2.362   0.643  0.00  0.00    +0.392 N 
ATOM      2  H   UNL     1       0.584   2.682   1.601  0.00  0.00    -0.080 HD
ENDROOT
BRANCH   1   3
ATOM      3  C   UNL     1       1.223   0.956   0.685  0.00  0.00    +0.003 C 
BRANCH   3   4
ATOM      4  C   UNL     1       1.738   0.526  -0.664  0.00  0.00    +0.138 A 
ATOM      5  N   UNL     1       2.567   1.188  -1.433  0.00  0.00    -0.115 NA
ATOM      6  N   UNL     1       2.764   0.493  -2.499  0.00  0.00    -0.023 NA
ATOM      7  N   UNL     1       2.081  -0.597  -2.431  0.00  0.00    -0.044 NA
ATOM      8  N   UNL     1       1.439  -0.616  -1.312  0.00  0.00    -0.228 N 
BRANCH   8   9
ATOM      9  C   UNL     1       0.549  -1.678  -0.837  0.00  0.00    +0.111 C 
ATOM     10  C   UNL     1       1.333  -2.988  -0.726  0.00  0.00    +0.027 C 
ATOM     11  C   UNL     1       0.404  -4.097  -0.230  0.00  0.00    +0.002 C 
ATOM     12  C   UNL     1      -0.750  -4.276  -1.218  0.00  0.00    +0.000 C 
ATOM     13  C   UNL     1      -1.534  -2.967  -1.330  0.00  0.00    +0.002 C 
ATOM     14  C   UNL     1      -0.605  -1.857  -1.825  0.00  0.00    +0.027 C 
ENDBRANCH   8   9
ENDBRANCH   3   4
BRANCH   3  16
ATOM     15  C   UNL     1       1.793   1.169   3.109  0.00  0.00    +0.002 C 
ATOM     16  C   UNL     1       2.342   0.831   1.721  0.00  0.00    -0.011 C 
ENDBRANCH   3  16
ENDBRANCH   1   3
BRANCH   1  17
ATOM     17  C   UNL     1      -0.476   2.466  -0.147  0.00  0.00    -0.042 C 
BRANCH  17  18
ATOM     18  C   UNL     1      -1.623   1.959   0.688  0.00  0.00    -0.064 A 
ATOM     19  C   UNL     1      -1.970   0.621   0.646  0.00  0.00    +0.002 A 
ATOM     20  C   UNL     1      -3.019   0.155   1.416  0.00  0.00    +0.003 A 
ATOM     21  C   UNL     1      -3.727   1.028   2.221  0.00  0.00    -0.050 A 
ATOM     22  C   UNL     1      -3.384   2.366   2.259  0.00  0.00    +0.003 A 
ATOM     23  C   UNL     1      -2.332   2.832   1.492  0.00  0.00    +0.002 A 
ATOM     24  C   UNL     1      -4.874   0.520   3.056  0.00  0.00    +0.044 C 
ENDBRANCH  17  18
ENDBRANCH   1  17
BRANCH   1  25
ATOM     25  C   UNL     1       1.819   3.214   0.046  0.00  0.00    -0.036 C 
BRANCH  25  26
ATOM     26  C   UNL     1       1.500   4.656   0.345  0.00  0.00    +0.001 A 
ATOM     27  C   UNL     1       2.015   5.247   1.452  0.00  0.00    +0.017 A 
ATOM     28  C   UNL     1       1.690   6.650   1.712  0.00  0.00    +0.002 A 
ATOM     29  C   UNL     1       2.196   7.315   2.833  0.00  0.00    -0.041 A 
ATOM     30  C   UNL     1       1.870   8.624   3.049  0.00  0.00    +0.004 A 
ATOM     31  C   UNL     1       1.040   9.300   2.165  0.00  0.00    +0.005 A 
ATOM     32  C   UNL     1       0.529   8.665   1.054  0.00  0.00    -0.026 A 
ATOM     33  C   UNL     1       0.848   7.333   0.813  0.00  0.00    +0.052 A 
ATOM     34  N   UNL     1       0.352   6.673  -0.291  0.00  0.00    -0.322 N 
ATOM     35  H   UNL     1      -0.227   7.145  -0.910  0.00  0.00    +0.169 HD
ATOM     36  C   UNL     1       0.661   5.386  -0.524  0.00  0.00    +0.251 A 
ATOM     37  O   UNL     1       0.204   4.834  -1.510  0.00  0.00    -0.268 OA
ATOM     38  C   UNL     1      -0.370   9.412   0.103  0.00  0.00    +0.046 C 
ATOM     39  C   UNL     1       3.098   6.590   3.799  0.00  0.00    +0.044 C 
ENDBRANCH  25  26
ENDBRANCH   1  25
TORSDOF 8
