REMARK  Name = ZINC39521118
REMARK  9 active torsions:
REMARK  status: ('A' for Active; 'I' for Inactive)
REMARK    1  A    between atoms: C_1  and  C_2
REMARK    2  A    between atoms: C_2  and  C_3
REMARK    3  A    between atoms: C_2  and  S_4
REMARK    4  A    between atoms: S_4  and  C_7
REMARK    5  A    between atoms: N_13  and  C_14
REMARK    6  A    between atoms: C_14  and  C_15
REMARK    7  A    between atoms: C_24  and  S_27
REMARK    8  A    between atoms: S_27  and  O_30
REMARK    9  A    between atoms: O_30  and  C_31
REMARK                            x       y       z     vdW  Elec       q    Type
REMARK                         _______ _______ _______ _____ _____    ______ ____
ROOT
ATOM      1  C   UNL     1      -1.609  -1.662   0.037  0.00  0.00    +0.079 C 
ATOM      2  C   UNL     1      -2.996  -1.729   0.680  0.00  0.00    +0.007 C 
ATOM      3  C   UNL     1      -3.462  -3.187   0.721  0.00  0.00    -0.001 C 
ATOM      4  C   UNL     1      -3.454  -3.755  -0.702  0.00  0.00    -0.012 C 
ATOM      5  C   UNL     1      -2.051  -3.612  -1.294  0.00  0.00    -0.061 C 
ATOM      6  N   UNL     1      -1.673  -2.194  -1.329  0.00  0.00    +0.401 N 
ATOM      7  C   UNL     1      -1.052  -4.387  -0.431  0.00  0.00    -0.012 C 
ATOM      8  C   UNL     1      -1.447  -5.864  -0.396  0.00  0.00    +0.001 C 
ATOM      9  C   UNL     1      -1.437  -6.429  -1.818  0.00  0.00    +0.030 C 
ATOM     10  C   UNL     1      -2.435  -5.655  -2.681  0.00  0.00    +0.170 C 
ATOM     11  C   UNL     1      -2.040  -4.177  -2.717  0.00  0.00    +0.018 C 
ATOM     12  H   UNL     1      -2.359  -1.677  -1.858  0.00  0.00    -0.078 HD
ENDROOT
BRANCH   1  13
ATOM     13  S   UNL     1      -1.050   0.063  -0.013  0.00  0.00    -0.041 S 
ATOM     14  O   UNL     1      -2.178   0.895  -0.249  0.00  0.00    -0.176 OA
ATOM     15  O   UNL     1       0.067   0.149  -0.887  0.00  0.00    -0.176 OA
BRANCH  13  17
ATOM     16  C   UNL     1       0.140   1.745   1.787  0.00  0.00    +0.031 C 
ATOM     17  C   UNL     1      -0.473   0.347   1.684  0.00  0.00    +0.122 C 
ATOM     18  C   UNL     1      -1.654   0.235   2.649  0.00  0.00    +0.031 C 
ENDBRANCH  13  17
ENDBRANCH   1  13
BRANCH  10  19
ATOM     19  S   UNL     1      -2.423  -6.325  -4.367  0.00  0.00    +0.123 S 
ATOM     20  O   UNL     1      -3.467  -5.739  -5.133  0.00  0.00    -0.136 OA
ATOM     21  O   UNL     1      -1.094  -6.367  -4.868  0.00  0.00    -0.136 OA
BRANCH  19  22
ATOM     22  O   UNL     1      -2.827  -7.784  -4.211  0.00  0.00    -0.346 OA
BRANCH  22  23
ATOM     23  C   UNL     1      -4.151  -7.968  -3.966  0.00  0.00    +0.156 A 
ATOM     24  C   UNL     1      -4.619  -7.988  -2.660  0.00  0.00    +0.048 A 
ATOM     25  C   UNL     1      -5.965  -8.175  -2.414  0.00  0.00    +0.004 A 
ATOM     26  C   UNL     1      -6.846  -8.342  -3.467  0.00  0.00    +0.000 A 
ATOM     27  C   UNL     1      -6.381  -8.323  -4.769  0.00  0.00    +0.004 A 
ATOM     28  C   UNL     1      -5.037  -8.130  -5.021  0.00  0.00    +0.048 A 
ENDBRANCH  22  23
ENDBRANCH  19  22
ENDBRANCH  10  19
BRANCH   6  29
ATOM     29  C   UNL     1      -0.359  -2.055  -1.970  0.00  0.00    -0.040 C 
BRANCH  29  30
ATOM     30  C   UNL     1       0.701  -2.644  -1.075  0.00  0.00    -0.064 A 
ATOM     31  C   UNL     1       0.901  -2.129   0.192  0.00  0.00    +0.002 A 
ATOM     32  C   UNL     1       1.873  -2.670   1.013  0.00  0.00    +0.000 A 
ATOM     33  C   UNL     1       2.645  -3.726   0.567  0.00  0.00    +0.000 A 
ATOM     34  C   UNL     1       2.444  -4.242  -0.700  0.00  0.00    +0.000 A 
ATOM     35  C   UNL     1       1.469  -3.704  -1.519  0.00  0.00    +0.002 A 
ENDBRANCH  29  30
ENDBRANCH   6  29
TORSDOF 7
