REMARK  Name = ZINC21528594
REMARK  11 active torsions:
REMARK  status: ('A' for Active; 'I' for Inactive)
REMARK    1  A    between atoms: C_1  and  C_2
REMARK    2  A    between atoms: C_2  and  C_3
REMARK    3  A    between atoms: C_3  and  C_4
REMARK    4  A    between atoms: C_4  and  N_5
REMARK    5  A    between atoms: N_9  and  S_23
REMARK    6  A    between atoms: C_11  and  C_12
REMARK    7  A    between atoms: C_11  and  C_13
REMARK    8  A    between atoms: N_15  and  C_16
REMARK    9  A    between atoms: C_16  and  C_17
REMARK   10  A    between atoms: S_23  and  C_26
REMARK   11  A    between atoms: C_29  and  C_32
REMARK                            x       y       z     vdW  Elec       q    Type
REMARK                         _______ _______ _______ _____ _____    ______ ____
ROOT
ATOM      1  N   UNL     1      -1.736   1.364   3.860  0.00  0.00    -0.285 N 
ATOM      2  C   UNL     1      -0.464   1.761   3.919  0.00  0.00    +0.232 C 
ATOM      3  O   UNL     1       0.160   1.553   4.938  0.00  0.00    -0.274 OA
ATOM      4  C   UNL     1       0.233   2.454   2.780  0.00  0.00    +0.205 C 
ATOM      5  N   UNL     1      -0.593   2.326   1.569  0.00  0.00    -0.165 NA
ATOM      6  C   UNL     1      -2.043   2.534   1.716  0.00  0.00    +0.145 C 
ATOM      7  C   UNL     1      -2.579   1.463   2.677  0.00  0.00    +0.125 C 
ATOM      8  C   UNL     1      -2.606   0.110   1.963  0.00  0.00    +0.043 C 
ENDROOT
BRANCH   7   9
ATOM      9  C   UNL     1      -3.979   1.832   3.095  0.00  0.00    +0.238 C 
ATOM     10  O   UNL     1      -4.358   2.980   3.000  0.00  0.00    -0.273 OA
ATOM     11  N   UNL     1      -4.811   0.885   3.574  0.00  0.00    -0.309 N 
ATOM     12  H   UNL     1      -4.444  -0.139   3.734  0.00  0.00    +0.149 HD
BRANCH  11  13
ATOM     13  C   UNL     1      -6.203   1.221   3.880  0.00  0.00    +0.139 C 
BRANCH  13  14
ATOM     14  C   UNL     1      -6.881   0.030   4.507  0.00  0.00    -0.030 A 
ATOM     15  C   UNL     1      -7.438  -0.949   3.706  0.00  0.00    +0.005 A 
ATOM     16  C   UNL     1      -8.055  -2.044   4.281  0.00  0.00    +0.000 A 
ATOM     17  C   UNL     1      -8.124  -2.155   5.657  0.00  0.00    +0.000 A 
ATOM     18  C   UNL     1      -7.572  -1.173   6.458  0.00  0.00    +0.000 A 
ATOM     19  C   UNL     1      -6.950  -0.081   5.883  0.00  0.00    +0.005 A 
ENDBRANCH  13  14
ENDBRANCH  11  13
ENDBRANCH   7   9
BRANCH   5  20
ATOM     20  S   UNL     1       0.083   1.971   0.100  0.00  0.00    +0.061 S 
ATOM     21  O   UNL     1       1.440   2.385   0.166  0.00  0.00    -0.153 OA
ATOM     22  O   UNL     1      -0.815   2.458  -0.888  0.00  0.00    -0.153 OA
BRANCH  20  23
ATOM     23  C   UNL     1       0.098   0.216  -0.056  0.00  0.00    +0.106 A 
ATOM     24  C   UNL     1       1.191  -0.507   0.385  0.00  0.00    +0.029 A 
ATOM     25  C   UNL     1       1.201  -1.885   0.268  0.00  0.00    +0.005 A 
ATOM     26  C   UNL     1       0.123  -2.538  -0.299  0.00  0.00    -0.050 A 
ATOM     27  C   UNL     1      -0.967  -1.815  -0.745  0.00  0.00    +0.005 A 
ATOM     28  C   UNL     1      -0.980  -0.438  -0.623  0.00  0.00    +0.029 A 
ATOM     29  C   UNL     1       0.136  -4.039  -0.432  0.00  0.00    +0.044 C 
ENDBRANCH  20  23
ENDBRANCH   5  20
BRANCH   1  30
ATOM     30  C   UNL     1      -2.327   0.788   5.071  0.00  0.00    +0.109 C 
BRANCH  30  31
ATOM     31  C   UNL     1      -2.841   1.913   5.972  0.00  0.00    +0.019 C 
BRANCH  31  33
ATOM     32  C   UNL     1      -3.965   2.428   8.143  0.00  0.00    +0.004 C 
ATOM     33  C   UNL     1      -3.339   1.321   7.292  0.00  0.00    -0.002 C 
ENDBRANCH  31  33
ENDBRANCH  30  31
ENDBRANCH   1  30
TORSDOF 8
