REMARK  Name = ZINC40416516
REMARK  9 active torsions:
REMARK  status: ('A' for Active; 'I' for Inactive)
REMARK    1  A    between atoms: C_1  and  N_2
REMARK    2  A    between atoms: N_2  and  C_3
REMARK    3  A    between atoms: C_3  and  C_4
REMARK    4  A    between atoms: C_9  and  C_11
REMARK    5  A    between atoms: C_14  and  C_16
REMARK    6  A    between atoms: C_16  and  O_17
REMARK    7  A    between atoms: O_17  and  C_18
REMARK    8  A    between atoms: C_24  and  C_34
REMARK    9  A    between atoms: C_29  and  C_31
REMARK                            x       y       z     vdW  Elec       q    Type
REMARK                         _______ _______ _______ _____ _____    ______ ____
ROOT
ATOM      1  C   UNL     1      -0.922   5.254  -5.392  0.00  0.00    +0.121 A 
ATOM      2  C   UNL     1       0.130   6.038  -5.845  0.00  0.00    +0.046 A 
ATOM      3  C   UNL     1      -0.102   7.342  -6.225  0.00  0.00    +0.007 A 
ATOM      4  C   UNL     1      -1.382   7.881  -6.163  0.00  0.00    -0.040 A 
ATOM      5  C   UNL     1      -2.429   7.101  -5.723  0.00  0.00    -0.016 A 
ATOM      6  C   UNL     1      -2.198   5.788  -5.337  0.00  0.00    +0.051 A 
ATOM      7  C   UNL     1      -3.845   7.614  -5.658  0.00  0.00    +0.137 C 
ATOM      8  N   UNL     1      -3.854   9.068  -5.848  0.00  0.00    -0.290 N 
ATOM      9  C   UNL     1      -3.013   9.613  -6.927  0.00  0.00    +0.113 C 
ATOM     10  C   UNL     1      -1.554   9.318  -6.581  0.00  0.00    +0.054 C 
ATOM     11  C   UNL     1      -4.601   9.873  -5.067  0.00  0.00    +0.219 C 
ATOM     12  O   UNL     1      -5.285   9.398  -4.186  0.00  0.00    -0.275 OA
ENDROOT
BRANCH   7  13
ATOM     13  C   UNL     1      -4.665   6.962  -6.742  0.00  0.00    -0.023 A 
ATOM     14  C   UNL     1      -5.817   6.272  -6.417  0.00  0.00    +0.006 A 
ATOM     15  C   UNL     1      -6.569   5.674  -7.412  0.00  0.00    +0.000 A 
ATOM     16  C   UNL     1      -6.168   5.767  -8.731  0.00  0.00    +0.000 A 
ATOM     17  C   UNL     1      -5.016   6.458  -9.056  0.00  0.00    +0.000 A 
ATOM     18  C   UNL     1      -4.266   7.060  -8.062  0.00  0.00    +0.006 A 
ENDBRANCH   7  13
BRANCH  11  19
ATOM     19  C   UNL     1      -4.587  11.364  -5.290  0.00  0.00    +0.075 C 
ATOM     20  C   UNL     1      -3.935  12.232  -4.212  0.00  0.00    +0.013 C 
ATOM     21  C   UNL     1      -5.456  12.223  -4.370  0.00  0.00    +0.013 C 
ENDBRANCH  11  19
BRANCH   1  22
ATOM     22  O   UNL     1      -0.702   3.969  -5.011  0.00  0.00    -0.484 OA
BRANCH  22  23
ATOM     23  C   UNL     1       0.641   3.488  -5.095  0.00  0.00    +0.303 C 
BRANCH  23  27
ATOM     24  C   UNL     1       0.881   0.298  -3.333  0.00  0.00    +0.190 A 
ATOM     25  C   UNL     1       0.652  -0.162  -4.598  0.00  0.00    +0.055 A 
ATOM     26  C   UNL     1       0.532   0.968  -5.422  0.00  0.00    +0.049 A 
ATOM     27  C   UNL     1       0.691   2.054  -4.634  0.00  0.00    +0.143 A 
ATOM     28  O   UNL     1       0.897   1.646  -3.375  0.00  0.00    -0.452 OA
BRANCH  24  31
ATOM     29  C   UNL     1       1.003   1.500  -0.790  0.00  0.00    +0.133 C 
ATOM     30  N   UNL     1       1.180   0.052  -0.925  0.00  0.00    -0.291 N 
ATOM     31  C   UNL     1       1.072  -0.529  -2.136  0.00  0.00    +0.282 C 
ATOM     32  O   UNL     1       1.132  -1.740  -2.237  0.00  0.00    -0.267 OA
BRANCH  30  33
ATOM     33  C   UNL     1       1.474  -0.764   0.255  0.00  0.00    +0.182 C 
BRANCH  33  34
ATOM     34  C   UNL     1       0.183  -1.233   0.876  0.00  0.00    +0.122 A 
ATOM     35  C   UNL     1      -0.462  -2.375   0.579  0.00  0.00    +0.046 A 
ATOM     36  C   UNL     1      -1.619  -2.415   1.390  0.00  0.00    +0.041 A 
ATOM     37  C   UNL     1      -1.612  -1.294   2.135  0.00  0.00    +0.195 A 
ATOM     38  O   UNL     1      -0.514  -0.585   1.823  0.00  0.00    -0.466 OA
ENDBRANCH  33  34
ENDBRANCH  30  33
ENDBRANCH  24  31
ENDBRANCH  23  27
ENDBRANCH  22  23
ENDBRANCH   1  22
TORSDOF 8
