REMARK  Name = ZINC06652419
REMARK  7 active torsions:
REMARK  status: ('A' for Active; 'I' for Inactive)
REMARK    1  A    between atoms: C_1  and  C_2
REMARK    2  A    between atoms: C_4  and  C_29
REMARK    3  A    between atoms: C_8  and  C_28
REMARK    4  A    between atoms: C_12  and  S_15
REMARK    5  A    between atoms: S_15  and  C_16
REMARK    6  A    between atoms: C_16  and  C_17
REMARK    7  A    between atoms: N_19  and  C_20
REMARK                            x       y       z     vdW  Elec       q    Type
REMARK                         _______ _______ _______ _____ _____    ______ ____
ROOT
ATOM      1  C   UNL     1      -9.246   7.174  -0.062  0.00  0.00    +0.044 C 
ATOM      2  C   UNL     1      -7.743   7.174  -0.152  0.00  0.00    -0.050 A 
ATOM      3  C   UNL     1      -7.085   6.169  -0.841  0.00  0.00    +0.008 A 
ATOM      4  C   UNL     1      -5.704   6.113  -0.858  0.00  0.00    -0.026 A 
ATOM      5  C   UNL     1      -4.959   6.998  -0.095  0.00  0.00    +0.061 A 
ATOM      6  C   UNL     1      -5.620   8.147   0.403  0.00  0.00    +0.002 A 
ATOM      7  C   UNL     1      -7.016   8.176   0.451  0.00  0.00    +0.013 A 
ATOM      8  C   UNL     1      -4.822   9.277   0.882  0.00  0.00    -0.038 A 
ATOM      9  C   UNL     1      -3.474   9.199   0.814  0.00  0.00    +0.052 A 
ATOM     10  C   UNL     1      -2.853   7.997   0.407  0.00  0.00    +0.162 A 
ATOM     11  N   UNL     1      -3.601   6.867   0.129  0.00  0.00    -0.270 N 
ATOM     12  C   UNL     1      -2.694   5.851   0.127  0.00  0.00    +0.197 A 
ATOM     13  N   UNL     1      -1.491   6.394   0.138  0.00  0.00    -0.122 NA
ATOM     14  N   UNL     1      -1.582   7.661   0.300  0.00  0.00    -0.129 NA
ATOM     15  C   UNL     1      -5.475  10.530   1.404  0.00  0.00    +0.044 C 
ATOM     16  C   UNL     1      -5.054   5.126  -1.794  0.00  0.00    +0.046 C 
ENDROOT
BRANCH  12  17
ATOM     17  S   UNL     1      -3.005   4.117   0.079  0.00  0.00    -0.076 S 
BRANCH  17  18
ATOM     18  C   UNL     1      -1.307   3.492   0.104  0.00  0.00    +0.173 C 
BRANCH  18  19
ATOM     19  C   UNL     1      -1.325   1.986   0.068  0.00  0.00    +0.224 C 
ATOM     20  O   UNL     1      -2.383   1.393   0.030  0.00  0.00    -0.275 OA
ATOM     21  N   UNL     1      -0.167   1.297   0.079  0.00  0.00    -0.310 N 
ATOM     22  H   UNL     1       0.679   1.771   0.106  0.00  0.00    +0.149 HD
BRANCH  21  23
ATOM     23  C   UNL     1      -0.185  -0.167   0.044  0.00  0.00    +0.095 C 
ATOM     24  C   UNL     1      -0.311  -0.719   1.474  0.00  0.00    +0.046 C 
ATOM     25  C   UNL     1      -0.011  -2.237   1.482  0.00  0.00    +0.168 C 
ATOM     26  S   UNL     1       1.135  -2.430   0.057  0.00  0.00    -0.029 S 
ATOM     27  O   UNL     1       0.525  -3.265  -0.918  0.00  0.00    -0.174 OA
ATOM     28  O   UNL     1       2.430  -2.756   0.544  0.00  0.00    -0.174 OA
ATOM     29  C   UNL     1       1.147  -0.695  -0.562  0.00  0.00    +0.188 C 
ENDBRANCH  21  23
ENDBRANCH  18  19
ENDBRANCH  17  18
ENDBRANCH  12  17
TORSDOF 4
