REMARK  Name = ZINC13121891
REMARK  10 active torsions:
REMARK  status: ('A' for Active; 'I' for Inactive)
REMARK    1  A    between atoms: C_1  and  C_2
REMARK    2  A    between atoms: C_2  and  O_3
REMARK    3  A    between atoms: O_3  and  C_4
REMARK    4  A    between atoms: C_4  and  C_6
REMARK    5  A    between atoms: C_7  and  C_35
REMARK    6  A    between atoms: C_8  and  C_34
REMARK    7  A    between atoms: C_10  and  N_11
REMARK    8  A    between atoms: C_12  and  C_14
REMARK    9  A    between atoms: C_19  and  C_30
REMARK   10  A    between atoms: C_22  and  C_25
REMARK                            x       y       z     vdW  Elec       q    Type
REMARK                         _______ _______ _______ _____ _____    ______ ____
ROOT
ATOM      1  C   UNL     1      -2.545  -2.613  -5.408  0.00  0.00    +0.149 A 
ATOM      2  C   UNL     1      -3.208  -2.921  -6.617  0.00  0.00    +0.078 A 
ATOM      3  C   UNL     1      -4.511  -2.617  -6.456  0.00  0.00    +0.119 A 
ATOM      4  N   UNL     1      -4.681  -2.129  -5.191  0.00  0.00    -0.238 N 
ATOM      5  N   UNL     1      -3.440  -2.144  -4.556  0.00  0.00    -0.164 NA
ATOM      6  C   UNL     1      -5.972  -1.688  -4.656  0.00  0.00    +0.215 C 
ATOM      7  C   UNL     1      -6.923  -1.407  -5.825  0.00  0.00    +0.063 C 
ATOM      8  C   UNL     1      -6.926  -2.596  -6.792  0.00  0.00    +0.111 C 
ATOM      9  N   UNL     1      -5.571  -2.743  -7.359  0.00  0.00    -0.322 N 
ATOM     10  H   UNL     1      -5.424  -2.918  -8.301  0.00  0.00    +0.148 HD
ENDROOT
BRANCH   8  11
ATOM     11  C   UNL     1      -7.309  -3.851  -6.051  0.00  0.00    +0.010 A 
ATOM     12  C   UNL     1      -8.507  -4.483  -6.006  0.00  0.00    +0.013 A 
ATOM     13  C   UNL     1      -8.629  -5.635  -5.252  0.00  0.00    +0.008 A 
ATOM     14  C   UNL     1      -7.546  -6.098  -4.580  0.00  0.00    +0.045 A 
ATOM     15  S   UNL     1      -6.301  -4.895  -5.012  0.00  0.00    -0.100 S 
ENDBRANCH   8  11
BRANCH   1  17
ATOM     16  N   UNL     1      -0.596  -2.461  -3.937  0.00  0.00    -0.274 N 
ATOM     17  C   UNL     1      -1.103  -2.790  -5.141  0.00  0.00    +0.269 C 
ATOM     18  O   UNL     1      -0.375  -3.233  -6.007  0.00  0.00    -0.268 OA
ATOM     19  H   UNL     1      -1.177  -2.107  -3.245  0.00  0.00    +0.156 HD
BRANCH  16  24
ATOM     20  C   UNL     1       1.449  -2.344  -2.516  0.00  0.00    +0.091 A 
ATOM     21  C   UNL     1       2.868  -2.621  -2.523  0.00  0.00    -0.025 A 
ATOM     22  C   UNL     1       3.362  -3.119  -3.671  0.00  0.00    -0.008 A 
ATOM     23  S   UNL     1       1.934  -3.213  -4.727  0.00  0.00    -0.078 S 
ATOM     24  C   UNL     1       0.756  -2.627  -3.686  0.00  0.00    +0.087 A 
ATOM     25  C   UNL     1       4.785  -3.503  -3.986  0.00  0.00    +0.052 C 
ATOM     26  C   UNL     1       3.739  -2.366  -1.320  0.00  0.00    +0.045 C 
BRANCH  20  27
ATOM     27  C   UNL     1       0.776  -1.800  -1.335  0.00  0.00    +0.342 C 
ATOM     28  O   UNL     1       0.312  -2.552  -0.499  0.00  0.00    -0.245 OA
BRANCH  27  29
ATOM     29  O   UNL     1       0.671  -0.465  -1.174  0.00  0.00    -0.461 OA
BRANCH  29  31
ATOM     30  C   UNL     1      -0.019   1.526   0.010  0.00  0.00    +0.048 C 
ATOM     31  C   UNL     1       0.002  -0.004   0.002  0.00  0.00    +0.229 C 
ENDBRANCH  29  31
ENDBRANCH  27  29
ENDBRANCH  20  27
ENDBRANCH  16  24
ENDBRANCH   1  17
BRANCH   6  32
ATOM     32  C   UNL     1      -5.777  -0.413  -3.833  0.00  0.00    +0.412 C 
ATOM     33  F   UNL     1      -5.243   0.591  -4.648  0.00  0.00    -0.168 F 
ATOM     34  F   UNL     1      -7.011   0.007  -3.324  0.00  0.00    -0.168 F 
ATOM     35  F   UNL     1      -4.899  -0.670  -2.775  0.00  0.00    -0.168 F 
ENDBRANCH   6  32
TORSDOF 7
