REMARK  Name = ZINC34749995
REMARK  9 active torsions:
REMARK  status: ('A' for Active; 'I' for Inactive)
REMARK    1  A    between atoms: C_1  and  C_2
REMARK    2  A    between atoms: C_5  and  C_34
REMARK    3  A    between atoms: C_6  and  C_8
REMARK    4  A    between atoms: C_8  and  N_9
REMARK    5  A    between atoms: C_22  and  S_24
REMARK    6  A    between atoms: S_24  and  C_25
REMARK    7  A    between atoms: C_25  and  C_26
REMARK    8  A    between atoms: C_30  and  C_32
REMARK    9  A    between atoms: C_30  and  C_33
REMARK                            x       y       z     vdW  Elec       q    Type
REMARK                         _______ _______ _______ _____ _____    ______ ____
ROOT
ATOM      1  N   UNL     1       1.422  -3.288   2.786  0.00  0.00    +0.384 N 
ATOM      2  C   UNL     1       2.266  -2.107   3.007  0.00  0.00    -0.059 C 
ATOM      3  C   UNL     1       3.721  -2.549   3.197  0.00  0.00    +0.088 C 
ATOM      4  N   UNL     1       3.769  -3.541   4.282  0.00  0.00    -0.318 N 
ATOM      5  C   UNL     1       2.838  -4.678   4.223  0.00  0.00    +0.088 C 
ATOM      6  C   UNL     1       1.424  -4.136   3.985  0.00  0.00    -0.059 C 
ATOM      7  C   UNL     1       4.666  -3.410   5.327  0.00  0.00    +0.134 A 
ATOM      8  C   UNL     1       5.918  -4.086   5.290  0.00  0.00    +0.051 A 
ATOM      9  C   UNL     1       6.455  -4.966   4.254  0.00  0.00    -0.020 A 
ATOM     10  C   UNL     1       7.682  -5.487   4.465  0.00  0.00    +0.021 A 
ATOM     11  S   UNL     1       8.192  -4.846   6.034  0.00  0.00    -0.071 S 
ATOM     12  C   UNL     1       6.752  -3.879   6.408  0.00  0.00    +0.115 A 
ATOM     13  N   UNL     1       6.383  -3.108   7.412  0.00  0.00    -0.215 NA
ATOM     14  C   UNL     1       5.203  -2.503   7.393  0.00  0.00    +0.191 A 
ATOM     15  N   UNL     1       4.371  -2.650   6.368  0.00  0.00    -0.206 NA
ATOM     16  C   UNL     1       8.423  -6.408   3.546  0.00  0.00    +0.203 C 
ATOM     17  O   UNL     1       7.494  -6.897   2.566  0.00  0.00    -0.368 OA
ATOM     18  C   UNL     1       6.709  -5.865   1.961  0.00  0.00    +0.068 C 
ATOM     19  C   UNL     1       5.700  -5.311   2.972  0.00  0.00    +0.071 C 
ATOM     20  C   UNL     1       7.629  -4.737   1.492  0.00  0.00    +0.041 C 
ATOM     21  C   UNL     1       5.958  -6.438   0.757  0.00  0.00    +0.041 C 
ATOM     22  H   UNL     1       1.782  -3.814   2.003  0.00  0.00    -0.081 HD
ENDROOT
BRANCH   1  23
ATOM     23  C   UNL     1       0.048  -2.858   2.495  0.00  0.00    -0.043 C 
BRANCH  23  29
ATOM     24  C   UNL     1      -0.054   1.502   0.041  0.00  0.00    +0.044 C 
ATOM     25  C   UNL     1      -0.024  -0.005   0.024  0.00  0.00    -0.050 A 
ATOM     26  C   UNL     1      -0.017  -0.683  -1.181  0.00  0.00    +0.003 A 
ATOM     27  C   UNL     1       0.011  -2.065  -1.196  0.00  0.00    +0.004 A 
ATOM     28  C   UNL     1       0.032  -2.769  -0.006  0.00  0.00    -0.049 A 
ATOM     29  C   UNL     1       0.026  -2.091   1.198  0.00  0.00    -0.061 A 
ATOM     30  C   UNL     1       0.003  -0.709   1.214  0.00  0.00    +0.005 A 
ATOM     31  C   UNL     1       0.061  -4.275  -0.022  0.00  0.00    +0.044 C 
ENDBRANCH  23  29
ENDBRANCH   1  23
BRANCH  14  32
ATOM     32  S   UNL     1       4.734  -1.479   8.747  0.00  0.00    -0.082 S 
BRANCH  32  33
ATOM     33  C   UNL     1       6.150  -1.569   9.877  0.00  0.00    +0.104 C 
BRANCH  33  34
ATOM     34  C   UNL     1       5.875  -0.725  11.095  0.00  0.00    -0.023 C 
ATOM     35  C   UNL     1       5.760  -1.291  12.271  0.00  0.00    +0.005 C 
ENDBRANCH  33  34
ENDBRANCH  32  33
ENDBRANCH  14  32
TORSDOF 5
