REMARK  Name = ZINC16837284
REMARK  5 active torsions:
REMARK  status: ('A' for Active; 'I' for Inactive)
REMARK    1  A    between atoms: C_1  and  C_2
REMARK    2  A    between atoms: C_7  and  N_8
REMARK    3  A    between atoms: C_10  and  C_21
REMARK    4  A    between atoms: C_14  and  O_19
REMARK    5  A    between atoms: O_19  and  C_20
REMARK                            x       y       z     vdW  Elec       q    Type
REMARK                         _______ _______ _______ _____ _____    ______ ____
ROOT
ATOM      1  N   UNL     1      -0.069   5.212   0.032  0.00  0.00    -0.212 NA
ATOM      2  C   UNL     1      -1.213   5.855  -0.053  0.00  0.00    +0.233 A 
ATOM      3  C   UNL     1      -1.253   7.327  -0.156  0.00  0.00    +0.099 A 
ATOM      4  C   UNL     1      -2.354   7.887  -0.791  0.00  0.00    +0.030 A 
ATOM      5  C   UNL     1      -3.375   6.970  -1.302  0.00  0.00    +0.022 A 
ATOM      6  C   UNL     1      -4.369   7.421  -2.178  0.00  0.00    +0.057 A 
ATOM      7  C   UNL     1      -5.318   6.535  -2.647  0.00  0.00    +0.121 A 
ATOM      8  C   UNL     1      -5.288   5.200  -2.252  0.00  0.00    +0.049 A 
ATOM      9  C   UNL     1      -4.314   4.745  -1.388  0.00  0.00    +0.050 A 
ATOM     10  C   UNL     1      -3.352   5.620  -0.904  0.00  0.00    +0.138 A 
ATOM     11  O   UNL     1      -2.394   5.185  -0.054  0.00  0.00    -0.437 OA
ENDROOT
BRANCH   1  18
ATOM     12  C   UNL     1       0.058   3.940  -2.506  0.00  0.00    +0.046 C 
ATOM     13  C   UNL     1       0.013   3.167  -1.213  0.00  0.00    -0.025 A 
ATOM     14  C   UNL     1       0.034   1.788  -1.230  0.00  0.00    +0.005 A 
ATOM     15  C   UNL     1      -0.007   1.077  -0.044  0.00  0.00    +0.000 A 
ATOM     16  C   UNL     1      -0.074   1.742   1.167  0.00  0.00    +0.002 A 
ATOM     17  C   UNL     1      -0.090   3.121   1.201  0.00  0.00    +0.028 A 
ATOM     18  C   UNL     1      -0.049   3.845   0.007  0.00  0.00    +0.071 A 
ENDBRANCH   1  18
BRANCH   3  19
ATOM     19  C   UNL     1      -0.173   8.166   0.391  0.00  0.00    +0.247 C 
ATOM     20  O   UNL     1       0.779   7.647   0.943  0.00  0.00    -0.270 OA
ATOM     21  N   UNL     1      -0.239   9.507   0.281  0.00  0.00    -0.325 N 
ATOM     22  H   UNL     1      -0.999   9.921  -0.159  0.00  0.00    +0.145 HD
ATOM     23  H   UNL     1       0.472  10.060   0.641  0.00  0.00    +0.145 HD
ENDBRANCH   3  19
BRANCH   7  24
ATOM     24  O   UNL     1      -6.286   6.967  -3.498  0.00  0.00    -0.495 OA
ATOM     25  C   UNL     1      -7.237   5.998  -3.946  0.00  0.00    +0.277 C 
ENDBRANCH   7  24
TORSDOF 3
