REMARK  Name = ZINC37361541
REMARK  8 active torsions:
REMARK  status: ('A' for Active; 'I' for Inactive)
REMARK    1  A    between atoms: C_1  and  C_2
REMARK    2  A    between atoms: C_2  and  C_3
REMARK    3  A    between atoms: C_2  and  C_4
REMARK    4  A    between atoms: C_7  and  C_10
REMARK    5  A    between atoms: C_12  and  N_34
REMARK    6  A    between atoms: N_13  and  C_33
REMARK    7  A    between atoms: N_22  and  C_25
REMARK    8  A    between atoms: C_25  and  C_26
REMARK                            x       y       z     vdW  Elec       q    Type
REMARK                         _______ _______ _______ _____ _____    ______ ____
ROOT
ATOM      1  C   UNL     1       2.772  -1.301  -4.945  0.00  0.00    +0.089 A 
ATOM      2  C   UNL     1       4.141  -1.646  -4.893  0.00  0.00    +0.086 A 
ATOM      3  C   UNL     1       5.152  -1.569  -3.943  0.00  0.00    +0.126 A 
ATOM      4  N   UNL     1       6.269  -2.069  -4.498  0.00  0.00    -0.251 N 
ATOM      5  N   UNL     1       6.008  -2.477  -5.811  0.00  0.00    -0.149 NA
ATOM      6  C   UNL     1       4.745  -2.245  -6.096  0.00  0.00    +0.188 A 
ATOM      7  N   UNL     1       3.957  -2.428  -7.173  0.00  0.00    -0.193 NA
ATOM      8  C   UNL     1       2.688  -2.076  -7.135  0.00  0.00    +0.220 A 
ATOM      9  N   UNL     1       2.106  -1.539  -6.067  0.00  0.00    -0.214 NA
ATOM     10  N   UNL     1       1.918  -2.283  -8.266  0.00  0.00    -0.297 N 
ATOM     11  C   UNL     1       0.496  -1.907  -8.290  0.00  0.00    +0.123 C 
ATOM     12  C   UNL     1      -0.318  -3.111  -8.777  0.00  0.00    +0.103 C 
ATOM     13  N   UNL     1       0.224  -3.575 -10.061  0.00  0.00    -0.295 NA
ATOM     14  C   UNL     1       1.606  -4.050  -9.916  0.00  0.00    +0.103 C 
ATOM     15  C   UNL     1       2.500  -2.879  -9.477  0.00  0.00    +0.123 C 
ATOM     16  C   UNL     1       7.568  -2.170  -3.829  0.00  0.00    +0.174 C 
ENDROOT
BRANCH   1  20
ATOM     17  C   UNL     1       0.833   0.436  -1.586  0.00  0.00    -0.045 A 
ATOM     18  C   UNL     1       0.219  -0.590  -2.281  0.00  0.00    +0.004 A 
ATOM     19  C   UNL     1       0.843  -1.158  -3.373  0.00  0.00    +0.010 A 
ATOM     20  C   UNL     1       2.096  -0.696  -3.775  0.00  0.00    +0.001 A 
ATOM     21  C   UNL     1       2.711   0.339  -3.069  0.00  0.00    +0.010 A 
ATOM     22  C   UNL     1       2.074   0.903  -1.983  0.00  0.00    +0.004 A 
BRANCH  17  24
ATOM     23  C   UNL     1      -1.196   1.644  -0.830  0.00  0.00    +0.012 C 
ATOM     24  C   UNL     1       0.146   1.053  -0.395  0.00  0.00    +0.013 C 
ATOM     25  C   UNL     1      -0.090  -0.021   0.669  0.00  0.00    +0.012 C 
ENDBRANCH  17  24
ENDBRANCH   1  20
BRANCH   3  26
ATOM     26  N   UNL     1       5.031  -1.070  -2.659  0.00  0.00    -0.343 N 
ATOM     27  H   UNL     1       4.154  -0.985  -2.253  0.00  0.00    +0.144 HD
ATOM     28  H   UNL     1       5.822  -0.804  -2.165  0.00  0.00    +0.144 HD
ENDBRANCH   3  26
BRANCH  13  29
ATOM     29  C   UNL     1      -0.631  -4.617 -10.647  0.00  0.00    +0.119 C 
BRANCH  29  30
ATOM     30  C   UNL     1      -0.189  -4.893 -12.061  0.00  0.00    -0.033 A 
ATOM     31  C   UNL     1      -0.734  -4.173 -13.108  0.00  0.00    +0.008 A 
ATOM     32  C   UNL     1      -0.329  -4.426 -14.405  0.00  0.00    +0.038 A 
ATOM     33  C   UNL     1       0.623  -5.400 -14.656  0.00  0.00    +0.123 A 
ATOM     34  C   UNL     1       1.167  -6.120 -13.606  0.00  0.00    +0.038 A 
ATOM     35  C   UNL     1       0.765  -5.862 -12.309  0.00  0.00    +0.008 A 
ATOM     36  F   UNL     1       1.019  -5.647 -15.923  0.00  0.00    -0.205 F 
ENDBRANCH  29  30
ENDBRANCH  13  29
TORSDOF 5
