REMARK  Name = ZINC13065261
REMARK  13 active torsions:
REMARK  status: ('A' for Active; 'I' for Inactive)
REMARK    1  A    between atoms: C_1  and  C_2
REMARK    2  A    between atoms: C_2  and  C_3
REMARK    3  A    between atoms: C_3  and  C_5
REMARK    4  A    between atoms: C_3  and  N_73
REMARK    5  A    between atoms: N_9  and  C_10
REMARK    6  A    between atoms: C_10  and  C_11
REMARK    7  A    between atoms: C_17  and  C_18
REMARK    8  A    between atoms: C_17  and  N_73
REMARK    9  A    between atoms: C_21  and  C_24
REMARK   10  A    between atoms: C_25  and  C_26
REMARK   11  A    between atoms: C_25  and  N_73
REMARK   12  A    between atoms: C_29  and  C_39
REMARK   13  A    between atoms: C_32  and  C_38
REMARK                            x       y       z     vdW  Elec       q    Type
REMARK                         _______ _______ _______ _____ _____    ______ ____
ROOT
ATOM      1  N   UNL     1       2.958   0.862   1.796  0.00  0.00    +0.392 N 
ATOM      2  H   UNL     1       2.985   1.539   2.568  0.00  0.00    -0.080 HD
ENDROOT
BRANCH   1   3
ATOM      3  C   UNL     1       4.228   0.105   1.777  0.00  0.00    +0.003 C 
BRANCH   3   4
ATOM      4  C   UNL     1       5.343   1.025   2.204  0.00  0.00    +0.138 A 
ATOM      5  N   UNL     1       5.512   2.272   1.837  0.00  0.00    -0.115 NA
ATOM      6  N   UNL     1       6.575   2.715   2.413  0.00  0.00    -0.023 NA
ATOM      7  N   UNL     1       7.089   1.783   3.138  0.00  0.00    -0.044 NA
ATOM      8  N   UNL     1       6.355   0.727   3.039  0.00  0.00    -0.228 N 
BRANCH   8   9
ATOM      9  C   UNL     1       6.582  -0.556   3.709  0.00  0.00    +0.178 C 
BRANCH   9  10
ATOM     10  C   UNL     1       7.455  -1.446   2.822  0.00  0.00    +0.140 C 
ATOM     11  C   UNL     1       7.604  -2.841   3.466  0.00  0.00    +0.035 C 
ATOM     12  C   UNL     1       9.090  -3.184   3.169  0.00  0.00    +0.031 C 
ATOM     13  C   UNL     1       9.739  -1.780   3.259  0.00  0.00    +0.160 C 
ATOM     14  O   UNL     1       8.766  -0.880   2.706  0.00  0.00    -0.375 OA
ENDBRANCH   9  10
ENDBRANCH   8   9
ENDBRANCH   3   4
BRANCH   3  16
ATOM     15  C   UNL     1       3.454  -1.461  -0.009  0.00  0.00    +0.002 C 
ATOM     16  C   UNL     1       4.513  -0.424   0.370  0.00  0.00    -0.011 C 
ENDBRANCH   3  16
ENDBRANCH   1   3
BRANCH   1  17
ATOM     17  C   UNL     1       1.823  -0.060   2.007  0.00  0.00    -0.042 C 
BRANCH  17  18
ATOM     18  C   UNL     1       1.865  -0.566   3.425  0.00  0.00    -0.064 A 
ATOM     19  C   UNL     1       2.457  -1.783   3.708  0.00  0.00    +0.002 A 
ATOM     20  C   UNL     1       2.500  -2.245   5.010  0.00  0.00    +0.003 A 
ATOM     21  C   UNL     1       1.942  -1.495   6.028  0.00  0.00    -0.050 A 
ATOM     22  C   UNL     1       1.346  -0.280   5.745  0.00  0.00    +0.003 A 
ATOM     23  C   UNL     1       1.307   0.184   4.444  0.00  0.00    +0.002 A 
ATOM     24  C   UNL     1       1.984  -2.001   7.447  0.00  0.00    +0.044 C 
ENDBRANCH  17  18
ENDBRANCH   1  17
BRANCH   1  25
ATOM     25  C   UNL     1       2.787   1.593   0.523  0.00  0.00    -0.036 C 
BRANCH  25  26
ATOM     26  C   UNL     1       1.673   2.595   0.685  0.00  0.00    +0.001 A 
ATOM     27  C   UNL     1       1.960   3.873   1.034  0.00  0.00    +0.017 A 
ATOM     28  C   UNL     1       0.855   4.822   1.183  0.00  0.00    +0.002 A 
ATOM     29  C   UNL     1       1.089   6.155   1.540  0.00  0.00    -0.041 A 
ATOM     30  C   UNL     1       0.036   7.015   1.670  0.00  0.00    +0.004 A 
ATOM     31  C   UNL     1      -1.264   6.580   1.452  0.00  0.00    +0.005 A 
ATOM     32  C   UNL     1      -1.518   5.272   1.099  0.00  0.00    -0.026 A 
ATOM     33  C   UNL     1      -0.462   4.377   0.961  0.00  0.00    +0.052 A 
ATOM     34  N   UNL     1      -0.686   3.064   0.603  0.00  0.00    -0.322 N 
ATOM     35  H   UNL     1      -1.594   2.760   0.447  0.00  0.00    +0.169 HD
ATOM     36  C   UNL     1       0.335   2.199   0.474  0.00  0.00    +0.251 A 
ATOM     37  O   UNL     1       0.099   1.045   0.162  0.00  0.00    -0.268 OA
ATOM     38  C   UNL     1      -2.934   4.813   0.865  0.00  0.00    +0.046 C 
ATOM     39  C   UNL     1       2.496   6.638   1.778  0.00  0.00    +0.044 C 
ENDBRANCH  25  26
ENDBRANCH   1  25
TORSDOF 9
