REMARK  Name = ZINC13564209
REMARK  5 active torsions:
REMARK  status: ('A' for Active; 'I' for Inactive)
REMARK    1  A    between atoms: C_4  and  O_10
REMARK    2  A    between atoms: C_5  and  N_7
REMARK    3  A    between atoms: O_10  and  C_11
REMARK    4  A    between atoms: C_11  and  C_12
REMARK    5  A    between atoms: N_14  and  N_15
REMARK                            x       y       z     vdW  Elec       q    Type
REMARK                         _______ _______ _______ _____ _____    ______ ____
ROOT
ATOM      1  C   UNL     1       5.988  -0.723   0.071  0.00  0.00    +0.270 C 
ATOM      2  O   UNL     1       5.860  -1.902   0.325  0.00  0.00    -0.270 OA
ATOM      3  N   UNL     1       7.215  -0.211  -0.151  0.00  0.00    -0.203 N 
ATOM      4  H   UNL     1       7.317   0.732  -0.354  0.00  0.00    +0.177 HD
ENDROOT
BRANCH   3   5
ATOM      5  N   UNL     1       8.342  -1.041  -0.088  0.00  0.00    -0.174 NA
ATOM      6  C   UNL     1       9.542  -0.525  -0.197  0.00  0.00    +0.153 C 
ATOM      7  C   UNL     1       9.910   0.910  -0.204  0.00  0.00    +0.030 A 
ATOM      8  C   UNL     1       9.169   2.083  -0.107  0.00  0.00    +0.027 A 
ATOM      9  C   UNL     1       9.813   3.305  -0.146  0.00  0.00    +0.020 A 
ATOM     10  C   UNL     1      11.191   3.360  -0.281  0.00  0.00    +0.032 A 
ATOM     11  C   UNL     1      11.934   2.200  -0.378  0.00  0.00    +0.041 A 
ATOM     12  C   UNL     1      11.303   0.961  -0.340  0.00  0.00    +0.057 A 
ATOM     13  N   UNL     1      11.805  -0.335  -0.416  0.00  0.00    -0.279 N 
ATOM     14  C   UNL     1      10.823  -1.248  -0.332  0.00  0.00    +0.269 C 
ATOM     15  O   UNL     1      10.963  -2.456  -0.365  0.00  0.00    -0.268 OA
ATOM     16 BR   UNL     1      13.813   2.296  -0.564  0.00  0.00    -0.048 Br
ATOM     17 BR   UNL     1       8.812   4.904  -0.015  0.00  0.00    -0.050 Br
ATOM     18  H   UNL     1      12.745  -0.551  -0.513  0.00  0.00    +0.155 HD
ENDBRANCH   3   5
BRANCH   1  19
ATOM     19  C   UNL     1       4.775   0.169   0.004  0.00  0.00    +0.326 C 
BRANCH  19  20
ATOM     20  O   UNL     1       3.602  -0.600   0.274  0.00  0.00    -0.480 OA
BRANCH  20  24
ATOM     21  C   UNL     1      -0.006   1.399   0.206  0.00  0.00    +0.002 A 
ATOM     22  C   UNL     1       1.168   2.085  -0.045  0.00  0.00    +0.004 A 
ATOM     23  C   UNL     1       2.377   1.418  -0.023  0.00  0.00    +0.048 A 
ATOM     24  C   UNL     1       2.413   0.059   0.252  0.00  0.00    +0.151 A 
ATOM     25  C   UNL     1       1.234  -0.627   0.504  0.00  0.00    +0.168 A 
ATOM     26  C   UNL     1       0.027   0.045   0.481  0.00  0.00    +0.036 A 
BRANCH  25  27
ATOM     27  N   UNL     1       1.269  -2.077   0.798  0.00  0.00    +0.060 N 
ATOM     28  O   UNL     1       0.241  -2.674   1.018  0.00  0.00    -0.126 OA
ATOM     29  O   UNL     1       2.325  -2.665   0.818  0.00  0.00    -0.126 OA
ENDBRANCH  25  27
ENDBRANCH  20  24
ENDBRANCH  19  20
ENDBRANCH   1  19
TORSDOF 5
