REMARK  Name = ZINC13124477
REMARK  4 active torsions:
REMARK  status: ('A' for Active; 'I' for Inactive)
REMARK    1  A    between atoms: C_3  and  C_6
REMARK    2  A    between atoms: C_9  and  C_29
REMARK    3  A    between atoms: C_13  and  C_16
REMARK    4  A    between atoms: N_18  and  C_19
REMARK                            x       y       z     vdW  Elec       q    Type
REMARK                         _______ _______ _______ _____ _____    ______ ____
ROOT
ATOM      1  C   UNL     1       3.599   0.624  -0.027  0.00  0.00    +0.140 C 
ATOM      2  C   UNL     1       4.132   0.346   1.383  0.00  0.00    +0.066 C 
ATOM      3  C   UNL     1       3.553  -0.973   1.907  0.00  0.00    +0.215 C 
ATOM      4  N   UNL     1       3.739  -2.010   0.886  0.00  0.00    -0.238 N 
ATOM      5  C   UNL     1       3.975  -1.743  -0.420  0.00  0.00    +0.130 A 
ATOM      6  C   UNL     1       4.098  -2.953  -1.078  0.00  0.00    +0.096 A 
ATOM      7  C   UNL     1       3.923  -3.967  -0.103  0.00  0.00    +0.149 A 
ATOM      8  N   UNL     1       3.711  -3.394   1.051  0.00  0.00    -0.177 NA
ATOM      9  N   UNL     1       4.060  -0.453  -0.925  0.00  0.00    -0.319 N 
ATOM     10  H   UNL     1       4.403  -0.268  -1.814  0.00  0.00    +0.148 HD
ENDROOT
BRANCH   1  13
ATOM     11  C   UNL     1      -0.018   1.327   0.033  0.00  0.00    +0.041 A 
ATOM     12  C   UNL     1       1.328   1.760   0.014  0.00  0.00    +0.046 A 
ATOM     13  C   UNL     1       2.093   0.653  -0.003  0.00  0.00    +0.125 A 
ATOM     14  O   UNL     1       1.286  -0.420   0.004  0.00  0.00    -0.466 OA
ATOM     15  C   UNL     1       0.005  -0.018   0.026  0.00  0.00    +0.195 A 
ENDBRANCH   1  13
BRANCH   6  16
ATOM     16  C   UNL     1       4.359  -3.149  -2.509  0.00  0.00    +0.253 C 
ATOM     17  O   UNL     1       4.490  -2.186  -3.241  0.00  0.00    -0.270 OA
ATOM     18  N   UNL     1       4.454  -4.396  -3.011  0.00  0.00    -0.281 N 
ATOM     19  H   UNL     1       4.418  -5.162  -2.418  0.00  0.00    +0.155 HD
BRANCH  18  20
ATOM     20  C   UNL     1       4.606  -4.585  -4.389  0.00  0.00    +0.034 A 
ATOM     21  C   UNL     1       5.354  -3.685  -5.138  0.00  0.00    +0.023 A 
ATOM     22  C   UNL     1       5.500  -3.876  -6.496  0.00  0.00    +0.006 A 
ATOM     23  C   UNL     1       4.904  -4.962  -7.118  0.00  0.00    -0.044 A 
ATOM     24  C   UNL     1       4.159  -5.859  -6.375  0.00  0.00    -0.042 A 
ATOM     25  C   UNL     1       4.014  -5.675  -5.011  0.00  0.00    +0.027 A 
ATOM     26  C   UNL     1       3.619  -6.947  -7.279  0.00  0.00    +0.036 C 
ATOM     27  C   UNL     1       3.745  -6.382  -8.710  0.00  0.00    +0.009 C 
ATOM     28  C   UNL     1       4.916  -5.386  -8.571  0.00  0.00    +0.036 C 
ENDBRANCH  18  20
ENDBRANCH   6  16
BRANCH   3  29
ATOM     29  C   UNL     1       4.279  -1.378   3.191  0.00  0.00    +0.412 C 
ATOM     30  F   UNL     1       4.110  -0.380   4.157  0.00  0.00    -0.168 F 
ATOM     31  F   UNL     1       3.749  -2.582   3.667  0.00  0.00    -0.168 F 
ATOM     32  F   UNL     1       5.643  -1.542   2.924  0.00  0.00    -0.168 F 
ENDBRANCH   3  29
TORSDOF 4
