REMARK  Name = ZINC38777195
REMARK  5 active torsions:
REMARK  status: ('A' for Active; 'I' for Inactive)
REMARK    1  A    between atoms: C_1  and  C_2
REMARK    2  A    between atoms: C_2  and  C_3
REMARK    3  A    between atoms: C_2  and  C_4
REMARK    4  A    between atoms: C_6  and  C_10
REMARK    5  A    between atoms: C_14  and  C_17
REMARK                            x       y       z     vdW  Elec       q    Type
REMARK                         _______ _______ _______ _____ _____    ______ ____
ROOT
ATOM      1  C   UNL     1      -3.607  -3.034  -0.220  0.00  0.00    +0.232 C 
ATOM      2  N   UNL     1      -5.017  -3.276   0.183  0.00  0.00    -0.225 NA
ATOM      3  N   UNL     1      -4.952  -4.540   0.927  0.00  0.00    -0.223 NA
ATOM      4  C   UNL     1      -3.553  -4.668   1.384  0.00  0.00    +0.234 C 
ATOM      5  O   UNL     1      -2.850  -3.499   0.921  0.00  0.00    -0.335 OA
ATOM      6  H   UNL     1      -5.615  -3.362  -0.625  0.00  0.00    +0.143 HD
ATOM      7  H   UNL     1      -5.214  -5.318   0.340  0.00  0.00    +0.144 HD
ENDROOT
BRANCH   4   8
ATOM      8  C   UNL     1      -3.508  -4.736   2.889  0.00  0.00    +0.011 A 
ATOM      9  C   UNL     1      -4.627  -4.406   3.630  0.00  0.00    +0.008 A 
ATOM     10  C   UNL     1      -4.586  -4.469   5.010  0.00  0.00    +0.000 A 
ATOM     11  C   UNL     1      -3.426  -4.862   5.650  0.00  0.00    +0.001 A 
ATOM     12  C   UNL     1      -2.306  -5.193   4.910  0.00  0.00    +0.015 A 
ATOM     13  C   UNL     1      -2.349  -5.135   3.529  0.00  0.00    +0.025 A 
ATOM     14 BR   UNL     1      -0.820  -5.594   2.516  0.00  0.00    -0.050 Br
ENDBRANCH   4   8
BRANCH   1  17
ATOM     15  C   UNL     1      -1.412  -0.526   0.013  0.00  0.00    +0.064 C 
ATOM     16  C   UNL     1      -1.940  -1.303  -0.935  0.00  0.00    +0.030 C 
ATOM     17  C   UNL     1      -3.362  -1.543  -0.460  0.00  0.00    +0.197 C 
ATOM     18  N   UNL     1      -3.420  -0.792   0.805  0.00  0.00    -0.176 NA
ATOM     19  N   UNL     1      -2.315  -0.275   0.986  0.00  0.00    -0.158 NA
BRANCH  15  21
ATOM     20  C   UNL     1      -0.019   1.526   0.010  0.00  0.00    +0.014 C 
ATOM     21  C   UNL     1       0.002  -0.004   0.002  0.00  0.00    +0.033 C 
ATOM     22  C   UNL     1       0.742  -0.511   1.242  0.00  0.00    +0.014 C 
ENDBRANCH  15  21
ENDBRANCH   1  17
TORSDOF 3
