REMARK  Name = ZINC06262624
REMARK  8 active torsions:
REMARK  status: ('A' for Active; 'I' for Inactive)
REMARK    1  A    between atoms: C_1  and  C_2
REMARK    2  A    between atoms: C_2  and  C_3
REMARK    3  A    between atoms: C_2  and  C_4
REMARK    4  A    between atoms: C_2  and  C_5
REMARK    5  A    between atoms: C_12  and  N_16
REMARK    6  A    between atoms: C_13  and  C_14
REMARK    7  A    between atoms: C_17  and  C_19
REMARK    8  A    between atoms: C_22  and  C_24
REMARK                            x       y       z     vdW  Elec       q    Type
REMARK                         _______ _______ _______ _____ _____    ______ ____
ROOT
ATOM      1  C   UNL     1      -0.403   9.059  -5.367  0.00  0.00    -0.000 C 
ATOM      2  C   UNL     1      -1.850   9.288  -4.920  0.00  0.00    +0.009 C 
ATOM      3  C   UNL     1      -2.601   7.955  -4.886  0.00  0.00    +0.037 C 
ATOM      4  C   UNL     1      -1.799   6.962  -4.054  0.00  0.00    -0.018 A 
ATOM      5  C   UNL     1      -0.488   7.169  -3.796  0.00  0.00    -0.004 A 
ATOM      6  S   UNL     1       0.002   5.783  -2.809  0.00  0.00    -0.077 S 
ATOM      7  C   UNL     1      -1.508   4.936  -2.748  0.00  0.00    +0.090 A 
ATOM      8  C   UNL     1      -2.357   5.748  -3.485  0.00  0.00    +0.084 A 
ATOM      9  C   UNL     1       0.350   8.324  -4.249  0.00  0.00    +0.047 C 
ENDROOT
BRANCH   1  11
ATOM     10  C   UNL     1       1.720  10.171  -6.073  0.00  0.00    +0.011 C 
ATOM     11  C   UNL     1       0.271  10.405  -5.641  0.00  0.00    -0.035 C 
ATOM     12  C   UNL     1      -0.482  11.135  -6.755  0.00  0.00    +0.011 C 
ATOM     13  C   UNL     1       0.248  11.255  -4.369  0.00  0.00    +0.011 C 
ENDBRANCH   1  11
BRANCH   7  14
ATOM     14  N   UNL     1      -1.799   3.737  -2.111  0.00  0.00    -0.279 N 
ATOM     15  C   UNL     1      -0.834   3.082  -1.435  0.00  0.00    +0.221 C 
ATOM     16  O   UNL     1       0.288   3.540  -1.383  0.00  0.00    -0.275 OA
ATOM     17  H   UNL     1      -2.696   3.371  -2.152  0.00  0.00    +0.155 HD
BRANCH  15  18
ATOM     18  C   UNL     1      -1.150   1.781  -0.743  0.00  0.00    +0.083 C 
ATOM     19  C   UNL     1      -1.136   1.773   0.788  0.00  0.00    +0.022 C 
ATOM     20  C   UNL     1      -0.013   1.086   0.008  0.00  0.00    +0.032 C 
BRANCH  20  21
ATOM     21  C   UNL     1       1.338   1.754  -0.001  0.00  0.00    -0.043 A 
ATOM     22  C   UNL     1       1.482   3.028   0.516  0.00  0.00    +0.005 A 
ATOM     23  C   UNL     1       2.722   3.639   0.513  0.00  0.00    +0.020 A 
ATOM     24  C   UNL     1       3.816   2.981  -0.018  0.00  0.00    +0.041 A 
ATOM     25  C   UNL     1       3.670   1.708  -0.541  0.00  0.00    +0.020 A 
ATOM     26  C   UNL     1       2.431   1.095  -0.532  0.00  0.00    +0.005 A 
ATOM     27 CL   UNL     1       5.372   3.751  -0.030  0.00  0.00    -0.084 Cl
ENDBRANCH  20  21
ENDBRANCH  15  18
ENDBRANCH   7  14
BRANCH   8  28
ATOM     28  C   UNL     1      -3.732   5.402  -3.678  0.00  0.00    +0.102 C 
ATOM     29  N   UNL     1      -4.824   5.127  -3.832  0.00  0.00    -0.191 NA
ENDBRANCH   8  28
TORSDOF 5
