REMARK  Name = ZINC19300233
REMARK  5 active torsions:
REMARK  status: ('A' for Active; 'I' for Inactive)
REMARK    1  A    between atoms: C_6  and  C_7
REMARK    2  A    between atoms: N_9  and  C_28
REMARK    3  A    between atoms: C_12  and  C_14
REMARK    4  A    between atoms: C_14  and  C_16
REMARK    5  A    between atoms: C_14  and  N_23
REMARK                            x       y       z     vdW  Elec       q    Type
REMARK                         _______ _______ _______ _____ _____    ______ ____
ROOT
ATOM      1  C   UNL     1       2.476   1.077  -0.016  0.00  0.00    +0.078 C 
ATOM      2  N   UNL     1       2.646  -0.206  -0.019  0.00  0.00    -0.176 NA
ATOM      3  N   UNL     1       3.988  -0.572  -0.039  0.00  0.00    -0.160 N 
ATOM      4  C   UNL     1       4.791   0.512  -0.041  0.00  0.00    +0.247 C 
ATOM      5  O   UNL     1       6.004   0.529  -0.052  0.00  0.00    -0.273 OA
ATOM      6  C   UNL     1       3.855   1.705  -0.026  0.00  0.00    +0.119 C 
ENDROOT
BRANCH   1  12
ATOM      7  C   UNL     1      -0.013   1.076   0.008  0.00  0.00    +0.011 A 
ATOM      8  C   UNL     1      -1.215   1.751   0.017  0.00  0.00    +0.020 A 
ATOM      9  C   UNL     1      -1.236   3.135   0.030  0.00  0.00    +0.041 A 
ATOM     10  C   UNL     1      -0.050   3.852   0.022  0.00  0.00    +0.020 A 
ATOM     11  C   UNL     1       1.159   3.189   0.008  0.00  0.00    +0.011 A 
ATOM     12  C   UNL     1       1.187   1.792   0.000  0.00  0.00    -0.001 A 
ATOM     13 CL   UNL     1      -2.754   3.977   0.048  0.00  0.00    -0.084 Cl
ENDBRANCH   1  12
BRANCH   3  14
ATOM     14  C   UNL     1       4.447  -1.894  -0.050  0.00  0.00    +0.060 A 
ATOM     15  C   UNL     1       5.810  -2.158  -0.069  0.00  0.00    +0.027 A 
ATOM     16  C   UNL     1       6.260  -3.464  -0.074  0.00  0.00    +0.022 A 
ATOM     17  C   UNL     1       5.353  -4.509  -0.071  0.00  0.00    +0.041 A 
ATOM     18  C   UNL     1       3.994  -4.249  -0.058  0.00  0.00    +0.022 A 
ATOM     19  C   UNL     1       3.539  -2.946  -0.047  0.00  0.00    +0.027 A 
ATOM     20 CL   UNL     1       5.922  -6.149  -0.085  0.00  0.00    -0.084 Cl
ENDBRANCH   3  14
BRANCH   6  21
ATOM     21  C   UNL     1       4.073   2.544   1.235  0.00  0.00    -0.020 C 
BRANCH  21  22
ATOM     22  C   UNL     1       4.067   1.644   2.444  0.00  0.00    -0.060 A 
ATOM     23  C   UNL     1       5.196   0.916   2.769  0.00  0.00    +0.003 A 
ATOM     24  C   UNL     1       5.194   0.095   3.881  0.00  0.00    +0.020 A 
ATOM     25  C   UNL     1       4.057  -0.006   4.663  0.00  0.00    +0.041 A 
ATOM     26  C   UNL     1       2.925   0.719   4.334  0.00  0.00    +0.020 A 
ATOM     27  C   UNL     1       2.931   1.544   3.225  0.00  0.00    +0.003 A 
ATOM     28 CL   UNL     1       4.050  -1.042   6.056  0.00  0.00    -0.084 Cl
ENDBRANCH  21  22
BRANCH  21  29
ATOM     29  N   UNL     1       5.366   3.235   1.145  0.00  0.00    +0.385 N 
ATOM     30  C   UNL     1       5.430   4.089  -0.069  0.00  0.00    -0.078 C 
ATOM     31  C   UNL     1       6.559   5.095   0.265  0.00  0.00    -0.020 C 
ATOM     32  C   UNL     1       6.348   5.365   1.772  0.00  0.00    -0.020 C 
ATOM     33  C   UNL     1       5.558   4.150   2.292  0.00  0.00    -0.078 C 
ATOM     34  H   UNL     1       6.129   2.443   1.129  0.00  0.00    -0.081 HD
ENDBRANCH  21  29
ENDBRANCH   6  21
TORSDOF 5
