REMARK  Name = ZINC36307693
REMARK  4 active torsions:
REMARK  status: ('A' for Active; 'I' for Inactive)
REMARK    1  A    between atoms: C_8  and  C_27
REMARK    2  A    between atoms: C_10  and  C_18
REMARK    3  A    between atoms: C_22  and  N_24
REMARK    4  A    between atoms: C_27  and  C_29
REMARK                            x       y       z     vdW  Elec       q    Type
REMARK                         _______ _______ _______ _____ _____    ______ ____
ROOT
ATOM      1  C   UNL     1       0.009   1.247   0.317  0.00  0.00    +0.000 A 
ATOM      2  C   UNL     1       1.212   1.928   0.313  0.00  0.00    +0.002 A 
ATOM      3  C   UNL     1       2.404   1.238   0.234  0.00  0.00    +0.023 A 
ATOM      4  C   UNL     1       2.403  -0.154   0.159  0.00  0.00    +0.039 A 
ATOM      5  C   UNL     1       1.187  -0.827   0.165  0.00  0.00    +0.004 A 
ATOM      6  C   UNL     1      -0.001  -0.135   0.242  0.00  0.00    +0.008 A 
ATOM      7  C   UNL     1       1.522  -2.293   0.077  0.00  0.00    +0.137 C 
ATOM      8  C   UNL     1       0.909  -2.921  -1.179  0.00  0.00    +0.103 C 
ATOM      9  C   UNL     1       0.340  -4.275  -0.693  0.00  0.00    +0.050 C 
ATOM     10  C   UNL     1       0.052  -4.019   0.793  0.00  0.00    +0.077 C 
ATOM     11  N   UNL     1       1.018  -3.017   1.256  0.00  0.00    -0.271 NA
ATOM     12  C   UNL     1       2.192  -3.631   1.952  0.00  0.00    +0.155 C 
ATOM     13  S   UNL     1       1.369  -5.030   2.829  0.00  0.00    -0.144 S 
ATOM     14  C   UNL     1       0.053  -5.333   1.589  0.00  0.00    +0.090 C 
ATOM     15  C   UNL     1       3.028  -2.338   0.022  0.00  0.00    +0.243 C 
ATOM     16  O   UNL     1       3.719  -3.332  -0.054  0.00  0.00    -0.273 OA
ATOM     17  N   UNL     1       3.458  -1.064   0.073  0.00  0.00    -0.283 N 
ATOM     18  H   UNL     1       4.394  -0.807   0.053  0.00  0.00    +0.155 HD
ENDROOT
BRANCH   9  19
ATOM     19  C   UNL     1       1.359  -5.372  -0.861  0.00  0.00    -0.040 A 
ATOM     20  C   UNL     1       2.179  -5.722   0.196  0.00  0.00    +0.004 A 
ATOM     21  C   UNL     1       3.114  -6.728   0.043  0.00  0.00    +0.002 A 
ATOM     22  C   UNL     1       3.229  -7.385  -1.168  0.00  0.00    +0.033 A 
ATOM     23  C   UNL     1       2.410  -7.036  -2.225  0.00  0.00    +0.126 A 
ATOM     24  C   UNL     1       1.472  -6.032  -2.070  0.00  0.00    +0.036 A 
BRANCH  23  25
ATOM     25  N   UNL     1       2.534  -7.739  -3.522  0.00  0.00    +0.056 N 
ATOM     26  O   UNL     1       3.353  -8.618  -3.656  0.00  0.00    -0.126 OA
ATOM     27  O   UNL     1       1.817  -7.433  -4.446  0.00  0.00    -0.126 OA
ENDBRANCH  23  25
ENDBRANCH   9  19
BRANCH   8  28
ATOM     28  C   UNL     1      -0.192  -2.047  -1.720  0.00  0.00    +0.176 C 
ATOM     29  O   UNL     1      -1.346  -2.260  -1.407  0.00  0.00    -0.291 OA
BRANCH  28  30
ATOM     30  C   UNL     1       0.117  -0.980  -2.592  0.00  0.00    +0.055 A 
ATOM     31  C   UNL     1      -0.739  -0.061  -3.193  0.00  0.00    +0.019 A 
ATOM     32  C   UNL     1      -0.139   0.871  -4.000  0.00  0.00    +0.008 A 
ATOM     33  C   UNL     1       1.210   0.840  -4.156  0.00  0.00    +0.046 A 
ATOM     34  S   UNL     1       1.706  -0.453  -3.205  0.00  0.00    -0.094 S 
ENDBRANCH  28  30
ENDBRANCH   8  28
TORSDOF 4
