REMARK  Name = ZINC35585466
REMARK  9 active torsions:
REMARK  status: ('A' for Active; 'I' for Inactive)
REMARK    1  A    between atoms: C_1  and  C_2
REMARK    2  A    between atoms: C_2  and  C_3
REMARK    3  A    between atoms: C_3  and  N_4
REMARK    4  A    between atoms: N_4  and  C_5
REMARK    5  A    between atoms: C_5  and  C_7
REMARK    6  A    between atoms: C_5  and  C_14
REMARK    7  A    between atoms: C_15  and  C_22
REMARK    8  A    between atoms: C_17  and  C_21
REMARK    9  A    between atoms: C_19  and  C_20
REMARK                            x       y       z     vdW  Elec       q    Type
REMARK                         _______ _______ _______ _____ _____    ______ ____
ROOT
ATOM      1  C   UNL     1      -2.149  -2.799   0.686  0.00  0.00    -0.008 C 
ENDROOT
BRANCH   1   2
ATOM      2  C   UNL     1      -2.817  -4.139   0.519  0.00  0.00    -0.051 A 
ATOM      3  C   UNL     1      -3.918  -4.463   1.288  0.00  0.00    -0.048 A 
ATOM      4  C   UNL     1      -4.531  -5.693   1.135  0.00  0.00    +0.007 A 
ATOM      5  C   UNL     1      -4.041  -6.599   0.213  0.00  0.00    -0.050 A 
ATOM      6  C   UNL     1      -2.940  -6.275  -0.557  0.00  0.00    +0.007 A 
ATOM      7  C   UNL     1      -2.330  -5.043  -0.407  0.00  0.00    -0.048 A 
ATOM      8  C   UNL     1      -1.133  -4.688  -1.250  0.00  0.00    +0.044 C 
ATOM      9  C   UNL     1      -4.708  -7.941   0.047  0.00  0.00    +0.044 C 
ATOM     10  C   UNL     1      -4.452  -3.476   2.294  0.00  0.00    +0.044 C 
ENDBRANCH   1   2
BRANCH   1  11
ATOM     11  C   UNL     1      -2.355  -1.977  -0.560  0.00  0.00    -0.030 A 
ATOM     12  C   UNL     1      -1.318  -1.786  -1.455  0.00  0.00    +0.031 A 
ATOM     13  C   UNL     1      -1.537  -1.041  -2.567  0.00  0.00    +0.080 A 
ATOM     14  S   UNL     1      -3.252  -0.582  -2.372  0.00  0.00    -0.065 S 
ATOM     15  C   UNL     1      -3.562  -1.417  -0.825  0.00  0.00    +0.081 A 
ATOM     16 CL   UNL     1      -5.028  -1.493   0.102  0.00  0.00    -0.076 Cl
ATOM     17 CL   UNL     1      -0.437  -0.638  -3.848  0.00  0.00    -0.076 Cl
ENDBRANCH   1  11
BRANCH   1  18
ATOM     18  N   UNL     1      -0.711  -2.992   0.912  0.00  0.00    +0.386 N 
ATOM     19  H   UNL     1      -0.285  -3.360   0.075  0.00  0.00    -0.085 HD
ATOM     20  H   UNL     1      -0.575  -3.642   1.672  0.00  0.00    -0.085 HD
BRANCH  18  21
ATOM     21  C   UNL     1      -0.091  -1.705   1.253  0.00  0.00    -0.082 C 
BRANCH  21  23
ATOM     22  C   UNL     1       2.053  -0.565   1.844  0.00  0.00    +0.002 C 
ATOM     23  C   UNL     1       1.407  -1.906   1.489  0.00  0.00    -0.022 C 
ENDBRANCH  21  23
ENDBRANCH  18  21
ENDBRANCH   1  18
TORSDOF 5
