REMARK  Name = ZINC36595056
REMARK  14 active torsions:
REMARK  status: ('A' for Active; 'I' for Inactive)
REMARK    1  A    between atoms: C_1  and  C_2
REMARK    2  A    between atoms: C_5  and  C_7
REMARK    3  A    between atoms: C_7  and  N_8
REMARK    4  A    between atoms: N_8  and  C_9
REMARK    5  A    between atoms: C_9  and  C_11
REMARK    6  A    between atoms: C_9  and  C_18
REMARK    7  A    between atoms: C_15  and  O_17
REMARK    8  A    between atoms: N_20  and  C_21
REMARK    9  A    between atoms: C_21  and  C_22
REMARK   10  A    between atoms: C_21  and  C_23
REMARK   11  A    between atoms: C_21  and  C_24
REMARK   12  A    between atoms: C_25  and  C_27
REMARK   13  A    between atoms: C_29  and  N_36
REMARK   14  A    between atoms: C_31  and  N_33
REMARK                            x       y       z     vdW  Elec       q    Type
REMARK                         _______ _______ _______ _____ _____    ______ ____
ROOT
ATOM      1  N   UNL     1       1.927  -4.033  -1.272  0.00  0.00    -0.275 N 
ATOM      2  C   UNL     1       1.705  -5.117  -2.042  0.00  0.00    +0.248 C 
ATOM      3  O   UNL     1       1.518  -6.201  -1.526  0.00  0.00    -0.270 OA
ENDROOT
BRANCH   2   4
ATOM      4  C   UNL     1       1.689  -4.986  -3.515  0.00  0.00    +0.041 A 
ATOM      5  C   UNL     1       2.452  -3.999  -4.139  0.00  0.00    +0.046 A 
ATOM      6  C   UNL     1       2.433  -3.883  -5.514  0.00  0.00    +0.129 A 
ATOM      7  C   UNL     1       1.659  -4.743  -6.273  0.00  0.00    +0.065 A 
ATOM      8  C   UNL     1       0.900  -5.724  -5.660  0.00  0.00    +0.129 A 
ATOM      9  C   UNL     1       0.915  -5.854  -4.287  0.00  0.00    +0.046 A 
BRANCH   8  10
ATOM     10  N   UNL     1       0.075  -6.639  -6.480  0.00  0.00    +0.057 N 
ATOM     11  O   UNL     1       0.065  -6.529  -7.684  0.00  0.00    -0.126 OA
ATOM     12  O   UNL     1      -0.588  -7.497  -5.946  0.00  0.00    -0.126 OA
ENDBRANCH   8  10
BRANCH   6  13
ATOM     13  N   UNL     1       3.241  -2.836  -6.178  0.00  0.00    +0.057 N 
ATOM     14  O   UNL     1       3.917  -2.084  -5.516  0.00  0.00    -0.126 OA
ATOM     15  O   UNL     1       3.225  -2.733  -7.383  0.00  0.00    -0.126 OA
ENDBRANCH   6  13
ENDBRANCH   2   4
BRANCH   1  16
ATOM     16  C   UNL     1       1.491  -4.027   0.127  0.00  0.00    +0.183 C 
BRANCH  16  21
ATOM     17  C   UNL     1       4.364  -7.145   2.858  0.00  0.00    +0.086 C 
ATOM     18  C   UNL     1       3.855  -5.894   2.190  0.00  0.00    +0.102 A 
ATOM     19  C   UNL     1       4.430  -4.679   2.253  0.00  0.00    +0.045 A 
ATOM     20  C   UNL     1       3.625  -3.805   1.487  0.00  0.00    +0.046 A 
ATOM     21  C   UNL     1       2.606  -4.538   1.002  0.00  0.00    +0.122 A 
ATOM     22  O   UNL     1       2.754  -5.803   1.427  0.00  0.00    -0.463 OA
ENDBRANCH  16  21
ENDBRANCH   1  16
BRANCH   1  23
ATOM     23  C   UNL     1       2.603  -2.861  -1.834  0.00  0.00    +0.193 C 
BRANCH  23  24
ATOM     24  C   UNL     1       2.873  -1.863  -0.738  0.00  0.00    -0.015 A 
ATOM     25  C   UNL     1       1.825  -1.361   0.013  0.00  0.00    +0.006 A 
ATOM     26  C   UNL     1       2.070  -0.445   1.019  0.00  0.00    +0.004 A 
ATOM     27  C   UNL     1       3.362  -0.029   1.278  0.00  0.00    +0.045 A 
ATOM     28  C   UNL     1       4.414  -0.532   0.527  0.00  0.00    +0.117 A 
ATOM     29  C   UNL     1       4.167  -1.456  -0.479  0.00  0.00    +0.051 A 
BRANCH  28  30
ATOM     30  O   UNL     1       5.686  -0.125   0.779  0.00  0.00    -0.507 OA
ATOM     31  H   UNL     1       6.151  -0.668   1.431  0.00  0.00    +0.292 HD
ENDBRANCH  28  30
ENDBRANCH  23  24
BRANCH  23  32
ATOM     32  C   UNL     1       1.725  -2.229  -2.883  0.00  0.00    +0.239 C 
ATOM     33  O   UNL     1       0.593  -2.630  -3.048  0.00  0.00    -0.273 OA
ATOM     34  N   UNL     1       2.199  -1.219  -3.639  0.00  0.00    -0.309 N 
ATOM     35  H   UNL     1       3.105  -0.898  -3.507  0.00  0.00    +0.149 HD
BRANCH  34  36
ATOM     36  C   UNL     1       1.346  -0.605  -4.659  0.00  0.00    +0.026 C 
ATOM     37  C   UNL     1       0.099  -0.017  -3.995  0.00  0.00    +0.031 C 
ATOM     38  C   UNL     1       2.119   0.508  -5.368  0.00  0.00    +0.031 C 
ATOM     39  C   UNL     1       0.927  -1.665  -5.680  0.00  0.00    +0.031 C 
ENDBRANCH  34  36
ENDBRANCH  23  32
ENDBRANCH   1  23
TORSDOF 10
