REMARK  Name = ZINC09358929
REMARK  12 active torsions:
REMARK  status: ('A' for Active; 'I' for Inactive)
REMARK    1  A    between atoms: C_1  and  C_2
REMARK    2  A    between atoms: C_5  and  C_43
REMARK    3  A    between atoms: C_9  and  C_10
REMARK    4  A    between atoms: C_9  and  N_87
REMARK    5  A    between atoms: C_10  and  C_11
REMARK    6  A    between atoms: C_11  and  O_13
REMARK    7  A    between atoms: O_13  and  C_14
REMARK    8  A    between atoms: C_18  and  C_42
REMARK    9  A    between atoms: C_23  and  C_41
REMARK   10  A    between atoms: C_33  and  C_40
REMARK   11  A    between atoms: C_35  and  C_37
REMARK   12  A    between atoms: C_37  and  C_39
REMARK                            x       y       z     vdW  Elec       q    Type
REMARK                         _______ _______ _______ _____ _____    ______ ____
ROOT
ATOM      1  C   UNL     1       7.536  -3.146  -1.969  0.00  0.00    +0.180 C 
ATOM      2  C   UNL     1       6.237  -3.778  -2.469  0.00  0.00    +0.046 C 
ATOM      3  C   UNL     1       5.071  -2.799  -2.326  0.00  0.00    +0.015 C 
ATOM      4  C   UNL     1       4.881  -2.382  -0.866  0.00  0.00    -0.008 C 
ATOM      5  C   UNL     1       3.752  -1.381  -0.740  0.00  0.00    +0.003 C 
ATOM      6  C   UNL     1       3.516  -0.588  -2.017  0.00  0.00    +0.005 C 
ATOM      7  C   UNL     1       2.230   0.253  -1.885  0.00  0.00    +0.008 C 
ATOM      8  C   UNL     1       2.393   1.206  -0.729  0.00  0.00    -0.019 C 
ATOM      9  C   UNL     1       2.722   0.433   0.562  0.00  0.00    -0.000 C 
ATOM     10  C   UNL     1       3.923  -0.458   0.470  0.00  0.00    +0.000 C 
ATOM     11  C   UNL     1       5.261   0.260   0.399  0.00  0.00    +0.031 C 
ATOM     12  C   UNL     1       6.358  -0.770   0.298  0.00  0.00    -0.027 C 
ATOM     13  C   UNL     1       6.189  -1.906  -0.308  0.00  0.00    -0.064 C 
ATOM     14  C   UNL     1       7.403  -2.804  -0.481  0.00  0.00    +0.075 C 
ATOM     15  C   UNL     1       2.713   1.556   1.606  0.00  0.00    +0.008 C 
ATOM     16  C   UNL     1       1.478   2.401   1.178  0.00  0.00    -0.003 C 
ATOM     17  C   UNL     1       1.152   2.000  -0.285  0.00  0.00    +0.064 C 
ATOM     18  C   UNL     1       0.288   2.090   2.087  0.00  0.00    +0.008 C 
ATOM     19  C   UNL     1       3.451   2.260  -1.079  0.00  0.00    +0.012 C 
ATOM     20  C   UNL     1       4.460  -3.631  -0.071  0.00  0.00    +0.016 C 
ENDROOT
BRANCH  17  21
ATOM     21  C   UNL     1      -0.095   1.167  -0.345  0.00  0.00    +0.134 C 
ATOM     22  O   UNL     1      -0.033  -0.026  -0.170  0.00  0.00    -0.297 OA
ATOM     23  C   UNL     1      -1.424   1.819  -0.628  0.00  0.00    +0.086 C 
ENDBRANCH  17  21
BRANCH   1  24
ATOM     24  O   UNL     1       7.812  -1.934  -2.718  0.00  0.00    -0.461 OA
BRANCH  24  25
ATOM     25  C   UNL     1       9.101  -1.602  -2.887  0.00  0.00    +0.306 C 
ATOM     26  O   UNL     1       9.971  -2.302  -2.424  0.00  0.00    -0.251 OA
BRANCH  25  27
ATOM     27  C   UNL     1       9.465  -0.357  -3.654  0.00  0.00    +0.102 C 
BRANCH  27  28
ATOM     28  C   UNL     1      10.988  -0.212  -3.699  0.00  0.00    -0.068 C 
BRANCH  28  36
ATOM     29  C   UNL     1      10.359   3.309  -5.920  0.00  0.00    +0.005 C 
ATOM     30  C   UNL     1      11.205   2.213  -6.572  0.00  0.00    -0.031 C 
ATOM     31  C   UNL     1      12.688   2.576  -6.459  0.00  0.00    +0.003 C 
ATOM     32  C   UNL     1      13.077   2.647  -4.980  0.00  0.00    -0.031 C 
ATOM     33  C   UNL     1      12.773   1.304  -4.312  0.00  0.00    -0.076 C 
ATOM     34  C   UNL     1      10.955   0.882  -5.858  0.00  0.00    -0.076 C 
ATOM     35  C   UNL     1      14.571   2.951  -4.858  0.00  0.00    +0.005 C 
ATOM     36  N   UNL     1      11.326   1.024  -4.434  0.00  0.00    +0.380 N 
ATOM     37  H   UNL     1      10.800   1.808  -4.030  0.00  0.00    -0.082 HD
ENDBRANCH  28  36
ENDBRANCH  27  28
ENDBRANCH  25  27
ENDBRANCH  24  25
ENDBRANCH   1  24
TORSDOF 6
