REMARK  Name = ZINC66151714
REMARK  6 active torsions:
REMARK  status: ('A' for Active; 'I' for Inactive)
REMARK    1  A    between atoms: C_1  and  C_2
REMARK    2  A    between atoms: C_7  and  O_8
REMARK    3  A    between atoms: O_8  and  C_9
REMARK    4  A    between atoms: C_9  and  C_10
REMARK    5  A    between atoms: C_16  and  C_19
REMARK    6  A    between atoms: N_21  and  N_22
REMARK                            x       y       z     vdW  Elec       q    Type
REMARK                         _______ _______ _______ _____ _____    ______ ____
ROOT
ATOM      1  C   UNL     1      -1.046   1.013   4.254  0.00  0.00    +0.253 C 
ATOM      2  O   UNL     1       0.075   1.257   4.646  0.00  0.00    -0.272 OA
ATOM      3  N   UNL     1      -2.113   1.404   4.978  0.00  0.00    -0.298 N 
ATOM      4  C   UNL     1      -3.478   1.111   4.519  0.00  0.00    +0.108 C 
ATOM      5  C   UNL     1      -4.277   2.417   4.481  0.00  0.00    +0.020 C 
ATOM      6  C   UNL     1      -4.207   3.093   5.852  0.00  0.00    +0.016 C 
ATOM      7  C   UNL     1      -2.751   3.427   6.184  0.00  0.00    +0.094 C 
ATOM      8  C   UNL     1      -1.934   2.128   6.244  0.00  0.00    +0.120 C 
ENDROOT
BRANCH   7   9
ATOM      9  C   UNL     1      -2.686   4.123   7.519  0.00  0.00    +0.231 C 
ATOM     10  O   UNL     1      -3.704   4.331   8.144  0.00  0.00    -0.274 OA
ATOM     11  N   UNL     1      -1.497   4.514   8.019  0.00  0.00    -0.253 N 
ATOM     12  H   UNL     1      -0.683   4.347   7.519  0.00  0.00    +0.169 HD
BRANCH  11  13
ATOM     13  N   UNL     1      -1.438   5.144   9.229  0.00  0.00    -0.254 NA
ATOM     14  H   UNL     1      -1.869   4.584   9.950  0.00  0.00    +0.140 HD
ATOM     15  H   UNL     1      -0.486   5.375   9.471  0.00  0.00    +0.140 HD
ENDBRANCH  11  13
ENDBRANCH   7   9
BRANCH   1  16
ATOM     16  C   UNL     1      -1.246   0.272   2.957  0.00  0.00    +0.324 C 
BRANCH  16  17
ATOM     17  O   UNL     1       0.025  -0.032   2.381  0.00  0.00    -0.481 OA
BRANCH  17  24
ATOM     18  C   UNL     1      -0.018   1.503   0.010  0.00  0.00    +0.047 C 
ATOM     19  C   UNL     1       0.002  -0.004   0.002  0.00  0.00    -0.007 A 
ATOM     20  C   UNL     1       0.006  -0.689  -1.198  0.00  0.00    +0.022 A 
ATOM     21  C   UNL     1       0.024  -2.072  -1.207  0.00  0.00    +0.019 A 
ATOM     22  C   UNL     1       0.040  -2.773  -0.014  0.00  0.00    +0.034 A 
ATOM     23  C   UNL     1       0.035  -2.092   1.188  0.00  0.00    +0.061 A 
ATOM     24  C   UNL     1       0.023  -0.704   1.199  0.00  0.00    +0.138 A 
ATOM     25 BR   UNL     1       0.055  -3.051   2.818  0.00  0.00    -0.046 Br
ATOM     26 BR   UNL     1       0.029  -3.006  -2.851  0.00  0.00    -0.050 Br
ENDBRANCH  17  24
ENDBRANCH  16  17
ENDBRANCH   1  16
TORSDOF 5
