REMARK  Name = ZINC41154057
REMARK  11 active torsions:
REMARK  status: ('A' for Active; 'I' for Inactive)
REMARK    1  A    between atoms: C_1  and  C_2
REMARK    2  A    between atoms: C_7  and  C_9
REMARK    3  A    between atoms: C_7  and  N_23
REMARK    4  A    between atoms: C_11  and  C_14
REMARK    5  A    between atoms: C_14  and  C_15
REMARK    6  A    between atoms: C_15  and  C_17
REMARK    7  A    between atoms: C_15  and  C_18
REMARK    8  A    between atoms: C_18  and  C_19
REMARK    9  A    between atoms: C_19  and  C_20
REMARK   10  A    between atoms: C_19  and  C_21
REMARK   11  A    between atoms: C_19  and  C_22
REMARK                            x       y       z     vdW  Elec       q    Type
REMARK                         _______ _______ _______ _____ _____    ______ ____
ROOT
ATOM      1  C   UNL     1       0.184  -1.393   3.880  0.00  0.00    +0.161 A 
ATOM      2  N   UNL     1       0.034  -1.709   5.171  0.00  0.00    -0.198 NA
ATOM      3  C   UNL     1       1.176  -2.090   5.674  0.00  0.00    +0.228 A 
ATOM      4  O   UNL     1       2.101  -2.028   4.707  0.00  0.00    -0.338 OA
ATOM      5  N   UNL     1       1.428  -1.575   3.542  0.00  0.00    -0.063 NA
ENDROOT
BRANCH   1  11
ATOM      6  C   UNL     1      -1.922   0.901   0.440  0.00  0.00    +0.007 C 
ATOM      7  C   UNL     1      -1.304  -0.496   0.466  0.00  0.00    -0.015 C 
ATOM      8  C   UNL     1      -2.390  -1.563   0.492  0.00  0.00    +0.003 C 
ATOM      9  C   UNL     1      -3.048  -1.632   1.869  0.00  0.00    -0.001 C 
ATOM     10  C   UNL     1      -1.988  -1.991   2.909  0.00  0.00    -0.005 C 
ATOM     11  C   UNL     1      -0.911  -0.910   2.964  0.00  0.00    -0.006 C 
ATOM     12  C   UNL     1      -0.304  -0.644   1.596  0.00  0.00    -0.002 C 
BRANCH  11  13
ATOM     13  N   UNL     1      -1.465   0.321   3.544  0.00  0.00    +0.387 N 
ATOM     14  H   UNL     1      -1.795   0.133   4.479  0.00  0.00    -0.089 HD
ATOM     15  H   UNL     1      -0.748   1.030   3.576  0.00  0.00    -0.089 HD
ATOM     16  H   UNL     1      -2.233   0.645   2.975  0.00  0.00    -0.089 HD
ENDBRANCH  11  13
ENDBRANCH   1  11
BRANCH   3  17
ATOM     17  C   UNL     1       1.413  -2.525   7.097  0.00  0.00    +0.102 C 
BRANCH  17  18
ATOM     18  C   UNL     1       1.200  -4.036   7.210  0.00  0.00    -0.005 C 
ATOM     19  C   UNL     1       2.261  -4.764   6.382  0.00  0.00    +0.008 C 
BRANCH  18  20
ATOM     20  C   UNL     1       1.319  -4.459   8.676  0.00  0.00    +0.010 C 
BRANCH  20  21
ATOM     21  C   UNL     1       0.921  -5.930   8.816  0.00  0.00    -0.037 C 
ATOM     22  C   UNL     1       1.950  -6.807   8.101  0.00  0.00    +0.010 C 
ATOM     23  C   UNL     1       0.873  -6.306  10.298  0.00  0.00    +0.010 C 
ATOM     24  C   UNL     1      -0.458  -6.147   8.189  0.00  0.00    +0.010 C 
ENDBRANCH  20  21
ENDBRANCH  18  20
ENDBRANCH  17  18
ENDBRANCH   3  17
TORSDOF 6
