REMARK  Name = ZINC12161393
REMARK  8 active torsions:
REMARK  status: ('A' for Active; 'I' for Inactive)
REMARK    1  A    between atoms: C_4  and  C_7
REMARK    2  A    between atoms: C_7  and  O_8
REMARK    3  A    between atoms: O_8  and  C_9
REMARK    4  A    between atoms: C_13  and  C_15
REMARK    5  A    between atoms: C_15  and  N_68
REMARK    6  A    between atoms: N_27  and  C_28
REMARK    7  A    between atoms: C_28  and  C_29
REMARK    8  A    between atoms: C_33  and  C_35
REMARK                            x       y       z     vdW  Elec       q    Type
REMARK                         _______ _______ _______ _____ _____    ______ ____
ROOT
ATOM      1  C   UNL     1      -0.202   3.141   5.079  0.00  0.00    -0.077 C 
ATOM      2  C   UNL     1      -1.040   4.350   5.500  0.00  0.00    +0.004 C 
ATOM      3  C   UNL     1      -0.399   5.635   4.970  0.00  0.00    +0.076 C 
ATOM      4  C   UNL     1       1.048   5.733   5.455  0.00  0.00    -0.007 C 
ATOM      5  C   UNL     1       1.818   4.473   5.050  0.00  0.00    -0.073 C 
ATOM      6  C   UNL     1       1.701   6.947   4.779  0.00  0.00    +0.013 C 
ATOM      7  C   UNL     1       1.827   6.655   3.282  0.00  0.00    +0.096 C 
ATOM      8  C   UNL     1       0.520   6.149   2.744  0.00  0.00    +0.216 C 
ATOM      9  O   UNL     1       0.343   6.175   1.544  0.00  0.00    -0.276 OA
ATOM     10  N   UNL     1      -0.458   5.672   3.517  0.00  0.00    -0.294 N 
ATOM     11  N   UNL     1       1.157   3.290   5.639  0.00  0.00    +0.383 N 
ATOM     12  H   UNL     1       1.087   3.419   6.655  0.00  0.00    -0.081 HD
ENDROOT
BRANCH  11  13
ATOM     13  C   UNL     1       1.954   2.077   5.362  0.00  0.00    -0.043 C 
BRANCH  13  18
ATOM     14  C   UNL     1       1.306  -0.375   8.163  0.00  0.00    +0.121 A 
ATOM     15  C   UNL     1       0.328  -1.182   7.600  0.00  0.00    +0.045 A 
ATOM     16  C   UNL     1      -0.119  -0.931   6.318  0.00  0.00    +0.004 A 
ATOM     17  C   UNL     1       0.407   0.123   5.595  0.00  0.00    +0.002 A 
ATOM     18  C   UNL     1       1.382   0.929   6.153  0.00  0.00    -0.060 A 
ATOM     19  C   UNL     1       1.837   0.678   7.433  0.00  0.00    +0.047 A 
BRANCH  14  20
ATOM     20  O   UNL     1       1.748  -0.620   9.425  0.00  0.00    -0.487 OA
BRANCH  20  21
ATOM     21  C   UNL     1       1.161  -1.726  10.114  0.00  0.00    +0.264 C 
BRANCH  21  25
ATOM     22  C   UNL     1       2.888  -2.055  14.007  0.00  0.00    +0.000 A 
ATOM     23  C   UNL     1       1.761  -1.279  13.815  0.00  0.00    +0.000 A 
ATOM     24  C   UNL     1       1.202  -1.172  12.555  0.00  0.00    +0.007 A 
ATOM     25  C   UNL     1       1.771  -1.842  11.488  0.00  0.00    -0.010 A 
ATOM     26  C   UNL     1       2.895  -2.623  11.681  0.00  0.00    +0.007 A 
ATOM     27  C   UNL     1       3.457  -2.725  12.940  0.00  0.00    +0.000 A 
ENDBRANCH  21  25
ENDBRANCH  20  21
ENDBRANCH  14  20
ENDBRANCH  13  18
ENDBRANCH  11  13
BRANCH  10  28
ATOM     28  C   UNL     1      -1.666   5.161   2.863  0.00  0.00    +0.143 C 
BRANCH  28  29
ATOM     29  C   UNL     1      -2.713   6.244   2.826  0.00  0.00    -0.030 A 
ATOM     30  C   UNL     1      -2.759   7.125   1.761  0.00  0.00    +0.005 A 
ATOM     31  C   UNL     1      -3.720   8.118   1.727  0.00  0.00    +0.001 A 
ATOM     32  C   UNL     1      -4.634   8.231   2.758  0.00  0.00    +0.012 A 
ATOM     33  C   UNL     1      -4.588   7.351   3.822  0.00  0.00    +0.055 A 
ATOM     34  C   UNL     1      -3.624   6.360   3.859  0.00  0.00    +0.017 A 
BRANCH  33  35
ATOM     35  C   UNL     1      -5.585   7.474   4.946  0.00  0.00    +0.417 C 
ATOM     36  F   UNL     1      -6.447   8.545   4.689  0.00  0.00    -0.166 F 
ATOM     37  F   UNL     1      -4.906   7.700   6.148  0.00  0.00    -0.166 F 
ATOM     38  F   UNL     1      -6.325   6.291   5.044  0.00  0.00    -0.166 F 
ENDBRANCH  33  35
ENDBRANCH  28  29
ENDBRANCH  10  28
TORSDOF 8
