REMARK  Name = ZINC09477882
REMARK  11 active torsions:
REMARK  status: ('A' for Active; 'I' for Inactive)
REMARK    1  A    between atoms: C_1  and  C_2
REMARK    2  A    between atoms: C_7  and  N_8
REMARK    3  A    between atoms: C_9  and  C_11
REMARK    4  A    between atoms: C_11  and  S_12
REMARK    5  A    between atoms: S_12  and  C_13
REMARK    6  A    between atoms: C_19  and  C_23
REMARK    7  A    between atoms: C_23  and  C_24
REMARK    8  A    between atoms: C_24  and  C_25
REMARK    9  A    between atoms: C_24  and  C_26
REMARK   10  A    between atoms: C_29  and  C_31
REMARK   11  A    between atoms: C_29  and  C_32
REMARK                            x       y       z     vdW  Elec       q    Type
REMARK                         _______ _______ _______ _____ _____    ______ ____
ROOT
ATOM      1  C   UNL     1       0.158   0.934   2.735  0.00  0.00    +0.115 A 
ATOM      2  C   UNL     1      -0.117   1.119   4.084  0.00  0.00    +0.072 A 
ATOM      3  C   UNL     1       0.697   0.547   5.068  0.00  0.00    +0.092 A 
ATOM      4  C   UNL     1       0.305   0.814   6.465  0.00  0.00    +0.037 A 
ATOM      5  C   UNL     1       0.944   0.364   7.642  0.00  0.00    -0.026 A 
ATOM      6  C   UNL     1       0.430   0.717   8.865  0.00  0.00    +0.003 A 
ATOM      7  C   UNL     1      -0.712   1.507   8.932  0.00  0.00    +0.048 A 
ATOM      8  N   UNL     1      -1.305   1.923   7.831  0.00  0.00    -0.244 NA
ATOM      9  C   UNL     1      -0.842   1.608   6.641  0.00  0.00    +0.111 A 
ATOM     10  S   UNL     1      -1.371   1.985   4.988  0.00  0.00    -0.064 S 
ATOM     11  C   UNL     1       1.081   0.268  10.148  0.00  0.00    +0.197 C 
ATOM     12  O   UNL     1       1.984  -0.807   9.892  0.00  0.00    -0.369 OA
ATOM     13  C   UNL     1       2.923  -0.522   8.849  0.00  0.00    +0.068 C 
ATOM     14  C   UNL     1       2.173  -0.496   7.515  0.00  0.00    +0.070 C 
ATOM     15  C   UNL     1       3.998  -1.609   8.813  0.00  0.00    +0.041 C 
ATOM     16  C   UNL     1       3.572   0.841   9.100  0.00  0.00    +0.041 C 
ATOM     17  N   UNL     1       1.746  -0.182   4.622  0.00  0.00    -0.234 NA
ATOM     18  C   UNL     1       1.975  -0.334   3.342  0.00  0.00    +0.223 A 
ATOM     19  N   UNL     1       1.214   0.194   2.401  0.00  0.00    -0.228 NA
ENDROOT
BRANCH   1  20
ATOM     20  S   UNL     1      -0.869   1.655   1.497  0.00  0.00    -0.095 S 
BRANCH  20  21
ATOM     21  C   UNL     1      -0.021   1.073   0.008  0.00  0.00    +0.172 C 
BRANCH  21  23
ATOM     22  N   UNL     1      -0.288   1.272  -2.443  0.00  0.00    -0.285 N 
ATOM     23  C   UNL     1      -0.743   1.582  -1.213  0.00  0.00    +0.227 C 
ATOM     24  O   UNL     1      -1.734   2.271  -1.088  0.00  0.00    -0.275 OA
ATOM     25  H   UNL     1       0.547   0.790  -2.544  0.00  0.00    +0.155 HD
BRANCH  22  32
ATOM     26  C   UNL     1       1.104   1.578  -4.906  0.00  0.00    +0.045 C 
ATOM     27  C   UNL     1      -0.382   1.807  -4.796  0.00  0.00    -0.029 A 
ATOM     28  C   UNL     1      -1.108   2.176  -5.912  0.00  0.00    +0.005 A 
ATOM     29  C   UNL     1      -2.471   2.386  -5.812  0.00  0.00    +0.000 A 
ATOM     30  C   UNL     1      -3.112   2.226  -4.597  0.00  0.00    +0.002 A 
ATOM     31  C   UNL     1      -2.392   1.853  -3.479  0.00  0.00    +0.023 A 
ATOM     32  C   UNL     1      -1.022   1.646  -3.575  0.00  0.00    +0.036 A 
ENDBRANCH  22  32
ENDBRANCH  21  23
ENDBRANCH  20  21
ENDBRANCH   1  20
BRANCH   7  33
ATOM     33  C   UNL     1      -1.277   1.891  10.276  0.00  0.00    +0.058 C 
BRANCH  33  34
ATOM     34  C   UNL     1      -0.647   3.207  10.736  0.00  0.00    -0.011 C 
ATOM     35  C   UNL     1      -1.064   4.331   9.786  0.00  0.00    +0.007 C 
ATOM     36  C   UNL     1      -1.126   3.533  12.153  0.00  0.00    +0.007 C 
ENDBRANCH  33  34
ENDBRANCH   7  33
TORSDOF 6
