REMARK  Name = ZINC09242912
REMARK  4 active torsions:
REMARK  status: ('A' for Active; 'I' for Inactive)
REMARK    1  A    between atoms: C_1  and  C_2
REMARK    2  A    between atoms: C_2  and  C_3
REMARK    3  A    between atoms: N_24  and  C_27
REMARK    4  A    between atoms: C_32  and  C_33
REMARK                            x       y       z     vdW  Elec       q    Type
REMARK                         _______ _______ _______ _____ _____    ______ ____
ROOT
ATOM      1  C   UNL     1      -1.413   4.492  -0.559  0.00  0.00    -0.026 A 
ATOM      2  C   UNL     1      -0.815   5.734  -0.604  0.00  0.00    +0.005 A 
ATOM      3  C   UNL     1       0.559   5.852  -0.504  0.00  0.00    +0.001 A 
ATOM      4  C   UNL     1       1.339   4.717  -0.360  0.00  0.00    +0.004 A 
ATOM      5  C   UNL     1       0.746   3.475  -0.316  0.00  0.00    -0.027 A 
ATOM      6  C   UNL     1      -0.636   3.345  -0.414  0.00  0.00    +0.039 A 
ATOM      7  N   UNL     1      -1.000   1.998  -0.350  0.00  0.00    -0.286 N 
ATOM      8  C   UNL     1       0.067   1.190  -0.201  0.00  0.00    +0.212 C 
ATOM      9  O   UNL     1       0.052  -0.019  -0.113  0.00  0.00    -0.277 OA
ATOM     10  C   UNL     1       1.282   2.078  -0.173  0.00  0.00    +0.053 C 
ATOM     11  C   UNL     1       2.066   1.910   1.133  0.00  0.00    +0.089 C 
ATOM     12  C   UNL     1       3.228   0.944   0.773  0.00  0.00    +0.074 C 
ATOM     13  C   UNL     1       3.036   0.622  -0.720  0.00  0.00    -0.054 C 
ATOM     14  C   UNL     1       3.220   2.851  -1.459  0.00  0.00    -0.076 C 
ATOM     15  C   UNL     1       4.510   2.157  -1.940  0.00  0.00    -0.020 C 
ATOM     16  C   UNL     1       4.395   0.704  -1.438  0.00  0.00    -0.016 C 
ATOM     17  C   UNL     1       4.462   1.826   0.950  0.00  0.00    +0.228 C 
ATOM     18  O   UNL     1       5.606   1.471   0.766  0.00  0.00    -0.275 OA
ATOM     19  N   UNL     1       4.086   3.048   1.345  0.00  0.00    -0.210 N 
ATOM     20  C   UNL     1       2.764   3.206   1.480  0.00  0.00    +0.229 C 
ATOM     21  O   UNL     1       2.213   4.228   1.827  0.00  0.00    -0.275 OA
ATOM     22  H   UNL     1      -1.915   1.682  -0.403  0.00  0.00    +0.155 HD
ATOM     23  N   UNL     1       2.268   1.729  -1.221  0.00  0.00    +0.395 N 
ATOM     24  H   UNL     1       1.787   1.482  -2.094  0.00  0.00    -0.079 HD
ENDROOT
BRANCH  19  25
ATOM     25  C   UNL     1       5.003   4.079   1.596  0.00  0.00    +0.048 A 
ATOM     26  C   UNL     1       5.351   4.962   0.583  0.00  0.00    +0.024 A 
ATOM     27  C   UNL     1       6.251   5.979   0.834  0.00  0.00    +0.003 A 
ATOM     28  C   UNL     1       6.812   6.114   2.091  0.00  0.00    +0.020 A 
ATOM     29  C   UNL     1       6.471   5.233   3.101  0.00  0.00    +0.046 A 
ATOM     30  C   UNL     1       5.567   4.216   2.857  0.00  0.00    -0.010 A 
ATOM     31  C   UNL     1       5.195   3.256   3.958  0.00  0.00    +0.047 C 
ATOM     32 CL   UNL     1       7.177   5.406   4.678  0.00  0.00    -0.083 Cl
ENDBRANCH  19  25
BRANCH   1  34
ATOM     33  C   UNL     1      -3.522   4.316   0.734  0.00  0.00    +0.009 C 
ATOM     34  C   UNL     1      -2.912   4.376  -0.668  0.00  0.00    +0.033 C 
ENDBRANCH   1  34
TORSDOF 2
