REMARK  Name = ZINC36071959
REMARK  11 active torsions:
REMARK  status: ('A' for Active; 'I' for Inactive)
REMARK    1  A    between atoms: C_1  and  C_2
REMARK    2  A    between atoms: C_3  and  C_28
REMARK    3  A    between atoms: C_4  and  C_21
REMARK    4  A    between atoms: C_7  and  C_12
REMARK    5  A    between atoms: C_13  and  N_15
REMARK    6  A    between atoms: N_15  and  C_16
REMARK    7  A    between atoms: C_16  and  C_17
REMARK    8  A    between atoms: C_17  and  N_18
REMARK    9  A    between atoms: N_18  and  C_19
REMARK   10  A    between atoms: N_18  and  C_20
REMARK   11  A    between atoms: N_30  and  C_31
REMARK                            x       y       z     vdW  Elec       q    Type
REMARK                         _______ _______ _______ _____ _____    ______ ____
ROOT
ATOM      1  C   UNL     1      -1.723   1.211   1.372  0.00  0.00    +0.066 C 
ATOM      2  C   UNL     1      -1.052  -0.028   0.838  0.00  0.00    +0.051 C 
ATOM      3  C   UNL     1      -1.819  -1.077   0.372  0.00  0.00    +0.061 C 
ATOM      4  C   UNL     1      -1.100  -2.298  -0.154  0.00  0.00    +0.148 C 
ATOM      5  N   UNL     1       0.387  -2.272  -0.128  0.00  0.00    -0.267 N 
ATOM      6  C   UNL     1       1.244  -3.267  -0.554  0.00  0.00    +0.048 C 
ATOM      7  C   UNL     1       2.571  -3.042  -0.442  0.00  0.00    +0.072 C 
ATOM      8  S   UNL     1       2.609  -1.409   0.272  0.00  0.00    -0.060 S 
ATOM      9  C   UNL     1       0.957  -1.135   0.375  0.00  0.00    +0.166 C 
ATOM     10  N   UNL     1       0.270  -0.101   0.814  0.00  0.00    -0.230 NA
ENDROOT
BRANCH   4  11
ATOM     11  C   UNL     1      -1.557  -3.488   0.650  0.00  0.00    -0.022 A 
ATOM     12  C   UNL     1      -1.157  -3.627   1.966  0.00  0.00    +0.007 A 
ATOM     13  C   UNL     1      -1.576  -4.718   2.704  0.00  0.00    +0.020 A 
ATOM     14  C   UNL     1      -2.395  -5.671   2.126  0.00  0.00    +0.041 A 
ATOM     15  C   UNL     1      -2.794  -5.532   0.808  0.00  0.00    +0.020 A 
ATOM     16  C   UNL     1      -2.379  -4.437   0.073  0.00  0.00    +0.007 A 
ATOM     17 CL   UNL     1      -2.921  -7.042   3.052  0.00  0.00    -0.084 Cl
ENDBRANCH   4  11
BRANCH   3  18
ATOM     18  C   UNL     1      -3.220  -1.011   0.386  0.00  0.00    +0.248 C 
ATOM     19  O   UNL     1      -3.782  -0.074   0.929  0.00  0.00    -0.270 OA
ATOM     20  N   UNL     1      -3.946  -1.984  -0.200  0.00  0.00    -0.282 N 
ATOM     21  H   UNL     1      -3.506  -2.774  -0.549  0.00  0.00    +0.155 HD
BRANCH  20  22
ATOM     22  C   UNL     1      -5.335  -1.853  -0.304  0.00  0.00    +0.034 A 
ATOM     23  C   UNL     1      -5.905  -0.599  -0.480  0.00  0.00    +0.023 A 
ATOM     24  C   UNL     1      -7.276  -0.473  -0.583  0.00  0.00    +0.002 A 
ATOM     25  C   UNL     1      -8.082  -1.595  -0.511  0.00  0.00    +0.000 A 
ATOM     26  C   UNL     1      -7.518  -2.845  -0.336  0.00  0.00    +0.002 A 
ATOM     27  C   UNL     1      -6.146  -2.978  -0.238  0.00  0.00    +0.023 A 
ENDBRANCH  20  22
ENDBRANCH   3  18
BRANCH   6  28
ATOM     28  C   UNL     1       0.730  -4.527  -1.109  0.00  0.00    +0.091 C 
ATOM     29  C   UNL     1       1.579  -5.534  -1.391  0.00  0.00    +0.239 C 
ATOM     30  O   UNL     1       2.916  -5.349  -1.267  0.00  0.00    -0.271 OA
BRANCH  29  31
ATOM     31  N   UNL     1       1.086  -6.759  -1.808  0.00  0.00    -0.314 N 
ATOM     32  H   UNL     1       0.136  -6.870  -1.969  0.00  0.00    +0.149 HD
BRANCH  31  33
ATOM     33  C   UNL     1       1.999  -7.887  -2.008  0.00  0.00    +0.086 C 
BRANCH  33  34
ATOM     34  C   UNL     1       1.225  -9.075  -2.583  0.00  0.00    -0.061 C 
BRANCH  34  35
ATOM     35  N   UNL     1       2.141 -10.206  -2.783  0.00  0.00    +0.377 N 
ATOM     36  C   UNL     1       1.378 -11.382  -3.221  0.00  0.00    -0.097 C 
ATOM     37  C   UNL     1       3.134  -9.857  -3.808  0.00  0.00    -0.097 C 
ATOM     38  H   UNL     1       2.612 -10.415  -1.915  0.00  0.00    -0.083 HD
ENDBRANCH  34  35
ENDBRANCH  33  34
ENDBRANCH  31  33
ENDBRANCH  29  31
ENDBRANCH   6  28
TORSDOF 8
