REMARK  Name = ZINC32944176
REMARK  9 active torsions:
REMARK  status: ('A' for Active; 'I' for Inactive)
REMARK    1  A    between atoms: C_1  and  C_2
REMARK    2  A    between atoms: C_5  and  C_35
REMARK    3  A    between atoms: C_6  and  C_8
REMARK    4  A    between atoms: C_9  and  C_10
REMARK    5  A    between atoms: C_11  and  S_16
REMARK    6  A    between atoms: C_12  and  C_15
REMARK    7  A    between atoms: S_16  and  N_19
REMARK    8  A    between atoms: C_23  and  C_26
REMARK    9  A    between atoms: N_28  and  C_29
REMARK                            x       y       z     vdW  Elec       q    Type
REMARK                         _______ _______ _______ _____ _____    ______ ____
ROOT
ATOM      1  S   UNL     1      -4.200   3.198   0.040  0.00  0.00    +0.066 S 
ATOM      2  O   UNL     1      -5.506   3.246   0.597  0.00  0.00    -0.153 OA
ATOM      3  O   UNL     1      -3.110   3.925   0.591  0.00  0.00    -0.153 OA
ENDROOT
BRANCH   1   5
ATOM      4  C   UNL     1      -2.447   0.983   0.019  0.00  0.00    +0.187 A 
ATOM      5  C   UNL     1      -3.719   1.503   0.028  0.00  0.00    +0.174 A 
ATOM      6  C   UNL     1      -4.548   0.365   0.025  0.00  0.00    +0.107 A 
ATOM      7  N   UNL     1      -3.759  -0.672   0.015  0.00  0.00    -0.081 NA
ATOM      8  O   UNL     1      -2.593  -0.355   0.006  0.00  0.00    -0.353 OA
ATOM      9  C   UNL     1      -6.055   0.350   0.031  0.00  0.00    +0.071 C 
BRANCH   4  11
ATOM     10  C   UNL     1      -0.013   1.076   0.008  0.00  0.00    +0.012 C 
ATOM     11  C   UNL     1      -1.188   1.733   0.017  0.00  0.00    +0.051 C 
BRANCH  10  17
ATOM     12  C   UNL     1       2.413   5.433   0.005  0.00  0.00    +0.044 C 
ATOM     13  C   UNL     1       2.426   3.926  -0.001  0.00  0.00    -0.050 A 
ATOM     14  C   UNL     1       3.632   3.247  -0.017  0.00  0.00    +0.003 A 
ATOM     15  C   UNL     1       3.655   1.863  -0.023  0.00  0.00    +0.004 A 
ATOM     16  C   UNL     1       2.474   1.151  -0.015  0.00  0.00    -0.043 A 
ATOM     17  C   UNL     1       1.253   1.829  -0.000  0.00  0.00    -0.022 A 
ATOM     18  C   UNL     1       1.238   3.228   0.002  0.00  0.00    +0.011 A 
ATOM     19  C   UNL     1       2.502  -0.356  -0.024  0.00  0.00    +0.044 C 
ENDBRANCH  10  17
ENDBRANCH   4  11
ENDBRANCH   1   5
BRANCH   1  20
ATOM     20  N   UNL     1      -4.340   3.679  -1.538  0.00  0.00    -0.176 NA
ATOM     21  C   UNL     1      -3.189   4.247  -2.253  0.00  0.00    +0.109 C 
ATOM     22  C   UNL     1      -2.983   3.455  -3.554  0.00  0.00    +0.018 C 
ATOM     23  C   UNL     1      -4.285   3.457  -4.357  0.00  0.00    +0.015 C 
ATOM     24  C   UNL     1      -5.388   2.772  -3.547  0.00  0.00    +0.091 C 
ATOM     25  C   UNL     1      -5.620   3.551  -2.248  0.00  0.00    +0.122 C 
BRANCH  24  26
ATOM     26  C   UNL     1      -6.662   2.746  -4.352  0.00  0.00    +0.218 C 
ATOM     27  O   UNL     1      -7.657   3.295  -3.931  0.00  0.00    -0.275 OA
ATOM     28  N   UNL     1      -6.694   2.112  -5.541  0.00  0.00    -0.312 N 
ATOM     29  H   UNL     1      -5.791   1.613  -5.924  0.00  0.00    +0.149 HD
BRANCH  28  30
ATOM     30  C   UNL     1      -7.932   2.086  -6.324  0.00  0.00    +0.073 C 
ATOM     31  C   UNL     1      -8.812   0.929  -5.848  0.00  0.00    +0.022 C 
ATOM     32  C   UNL     1     -10.105   0.902  -6.666  0.00  0.00    +0.002 C 
ATOM     33  C   UNL     1      -9.769   0.712  -8.146  0.00  0.00    +0.000 C 
ATOM     34  C   UNL     1      -8.888   1.869  -8.622  0.00  0.00    +0.002 C 
ATOM     35  C   UNL     1      -7.595   1.896  -7.804  0.00  0.00    +0.022 C 
ENDBRANCH  28  30
ENDBRANCH  24  26
ENDBRANCH   1  20
TORSDOF 6
