REMARK  Name = ZINC19874006
REMARK  10 active torsions:
REMARK  status: ('A' for Active; 'I' for Inactive)
REMARK    1  A    between atoms: C_1  and  C_2
REMARK    2  A    between atoms: C_2  and  O_3
REMARK    3  A    between atoms: O_3  and  C_4
REMARK    4  A    between atoms: C_4  and  C_6
REMARK    5  A    between atoms: C_7  and  C_31
REMARK    6  A    between atoms: C_11  and  C_13
REMARK    7  A    between atoms: C_15  and  C_18
REMARK    8  A    between atoms: C_18  and  S_19
REMARK    9  A    between atoms: S_19  and  C_20
REMARK   10  A    between atoms: N_24  and  C_25
REMARK                            x       y       z     vdW  Elec       q    Type
REMARK                         _______ _______ _______ _____ _____    ______ ____
ROOT
ATOM      1  C   UNL     1      -2.798  -2.433   0.237  0.00  0.00    +0.066 C 
ATOM      2  C   UNL     1      -2.942  -3.729  -0.086  0.00  0.00    +0.016 C 
ATOM      3  N   UNL     1      -4.186  -4.257  -0.297  0.00  0.00    -0.321 N 
ATOM      4  C   UNL     1      -5.301  -3.628   0.188  0.00  0.00    +0.015 C 
ATOM      5  C   UNL     1      -5.259  -2.321   0.523  0.00  0.00    +0.024 C 
ATOM      6  C   UNL     1      -3.987  -1.528   0.375  0.00  0.00    +0.099 C 
ATOM      7  C   UNL     1      -6.398  -1.662   1.019  0.00  0.00    +0.162 C 
ATOM      8  O   UNL     1      -6.322  -0.489   1.327  0.00  0.00    -0.292 OA
ATOM      9  C   UNL     1      -7.709  -2.383   1.176  0.00  0.00    +0.080 C 
ATOM     10  C   UNL     1      -7.782  -3.515   0.145  0.00  0.00    +0.014 C 
ATOM     11  C   UNL     1      -6.570  -4.429   0.342  0.00  0.00    +0.051 C 
ATOM     12  C   UNL     1      -1.725  -4.608  -0.219  0.00  0.00    +0.061 C 
ATOM     13  H   UNL     1      -4.279  -5.084  -0.795  0.00  0.00    +0.152 HD
ENDROOT
BRANCH   6  14
ATOM     14  C   UNL     1      -4.092  -0.659  -0.852  0.00  0.00    +0.002 A 
ATOM     15  C   UNL     1      -4.050   0.693  -0.946  0.00  0.00    +0.016 A 
ATOM     16  C   UNL     1      -4.167   1.281  -2.192  0.00  0.00    -0.030 A 
ATOM     17  C   UNL     1      -4.321   0.490  -3.281  0.00  0.00    +0.050 A 
ATOM     18  S   UNL     1      -4.296  -1.142  -2.558  0.00  0.00    -0.100 S 
BRANCH  16  19
ATOM     19  C   UNL     1      -4.125   2.781  -2.336  0.00  0.00    +0.113 C 
BRANCH  19  20
ATOM     20  S   UNL     1      -2.409   3.316  -2.584  0.00  0.00    -0.080 S 
BRANCH  20  21
ATOM     21  C   UNL     1      -2.527   5.068  -2.733  0.00  0.00    +0.209 A 
ATOM     22  N   UNL     1      -3.627   5.786  -2.666  0.00  0.00    -0.102 NA
ATOM     23  N   UNL     1      -3.360   7.033  -2.815  0.00  0.00    -0.022 NA
ATOM     24  N   UNL     1      -2.094   7.203  -2.985  0.00  0.00    -0.043 NA
ATOM     25  N   UNL     1      -1.502   5.929  -2.932  0.00  0.00    -0.223 N 
ATOM     26  C   UNL     1      -0.080   5.603  -3.067  0.00  0.00    +0.177 C 
ENDBRANCH  20  21
ENDBRANCH  19  20
ENDBRANCH  16  19
ENDBRANCH   6  14
BRANCH   1  27
ATOM     27  C   UNL     1      -1.502  -1.913   0.459  0.00  0.00    +0.338 C 
ATOM     28  O   UNL     1      -0.541  -2.660   0.476  0.00  0.00    -0.245 OA
BRANCH  27  29
ATOM     29  O   UNL     1      -1.329  -0.589   0.650  0.00  0.00    -0.462 OA
BRANCH  29  31
ATOM     30  C   UNL     1       0.004   1.384   1.064  0.00  0.00    +0.048 C 
ATOM     31  C   UNL     1       0.008  -0.133   0.868  0.00  0.00    +0.229 C 
ENDBRANCH  29  31
ENDBRANCH  27  29
ENDBRANCH   1  27
TORSDOF 7
