REMARK  Name = ZINC05487188
REMARK  6 active torsions:
REMARK  status: ('A' for Active; 'I' for Inactive)
REMARK    1  A    between atoms: C_1  and  C_2
REMARK    2  A    between atoms: C_6  and  C_9
REMARK    3  A    between atoms: C_10  and  C_11
REMARK    4  A    between atoms: C_10  and  N_50
REMARK    5  A    between atoms: C_17  and  O_28
REMARK    6  A    between atoms: C_18  and  C_22
REMARK                            x       y       z     vdW  Elec       q    Type
REMARK                         _______ _______ _______ _____ _____    ______ ____
ROOT
ATOM      1  C   UNL     1       1.187   2.041   0.002  0.00  0.00    +0.026 A 
ATOM      2  C   UNL     1      -0.016   1.329   0.009  0.00  0.00    +0.184 A 
ATOM      3  O   UNL     1       0.002  -0.004   0.002  0.00  0.00    -0.288 OA
ATOM      4  C   UNL     1      -1.247   2.013   0.019  0.00  0.00    +0.052 A 
ATOM      5  C   UNL     1      -1.278   3.370   0.031  0.00  0.00    +0.019 A 
ATOM      6  C   UNL     1      -0.075   4.099   0.024  0.00  0.00    +0.060 A 
ATOM      7  C   UNL     1      -0.085   5.511   0.031  0.00  0.00    +0.138 A 
ATOM      8  C   UNL     1       1.156   6.186   0.023  0.00  0.00    +0.059 A 
ATOM      9  C   UNL     1       2.324   5.460   0.008  0.00  0.00    +0.207 A 
ATOM     10  O   UNL     1       2.318   4.125   0.001  0.00  0.00    -0.462 OA
ATOM     11  C   UNL     1       1.166   3.423   0.009  0.00  0.00    +0.143 A 
ENDROOT
BRANCH   8  12
ATOM     12  C   UNL     1       1.199   7.669   0.030  0.00  0.00    -0.011 A 
ATOM     13  C   UNL     1       0.440   8.395  -0.885  0.00  0.00    +0.009 A 
ATOM     14  C   UNL     1       0.479   9.775  -0.870  0.00  0.00    +0.001 A 
ATOM     15  C   UNL     1       1.278  10.436   0.044  0.00  0.00    +0.000 A 
ATOM     16  C   UNL     1       2.038   9.720   0.952  0.00  0.00    +0.001 A 
ATOM     17  C   UNL     1       2.002   8.341   0.950  0.00  0.00    +0.009 A 
ENDBRANCH   8  12
BRANCH   7  18
ATOM     18  O   UNL     1      -1.247   6.196   0.045  0.00  0.00    -0.505 OA
ATOM     19  H   UNL     1      -1.578   6.391   0.932  0.00  0.00    +0.292 HD
ENDBRANCH   7  18
BRANCH   1  20
ATOM     20  C   UNL     1       2.501   1.304  -0.014  0.00  0.00    -0.035 C 
BRANCH  20  28
ATOM     21  C   UNL     1       6.115  -0.197  -3.000  0.00  0.00    +0.036 C 
ATOM     22  C   UNL     1       4.707   0.398  -2.930  0.00  0.00    +0.099 C 
ATOM     23  C   UNL     1       4.297   0.570  -1.465  0.00  0.00    -0.047 C 
ATOM     24  C   UNL     1       1.995   0.145  -2.080  0.00  0.00    -0.047 C 
ATOM     25  C   UNL     1       2.429  -0.022  -3.539  0.00  0.00    +0.099 C 
ATOM     26  O   UNL     1       3.783  -0.480  -3.579  0.00  0.00    -0.378 OA
ATOM     27  C   UNL     1       1.524  -1.046  -4.227  0.00  0.00    +0.036 C 
ATOM     28  N   UNL     1       2.916   1.094  -1.418  0.00  0.00    +0.386 N 
ATOM     29  H   UNL     1       2.882   1.993  -1.914  0.00  0.00    -0.081 HD
ENDBRANCH  20  28
ENDBRANCH   1  20
TORSDOF 4
