REMARK  Name = ZINC01375136
REMARK  12 active torsions:
REMARK  status: ('A' for Active; 'I' for Inactive)
REMARK    1  A    between atoms: C_1  and  C_2
REMARK    2  A    between atoms: C_2  and  C_3
REMARK    3  A    between atoms: C_3  and  C_5
REMARK    4  A    between atoms: C_3  and  N_18
REMARK    5  A    between atoms: N_9  and  C_10
REMARK    6  A    between atoms: C_10  and  C_11
REMARK    7  A    between atoms: N_18  and  C_19
REMARK    8  A    between atoms: N_18  and  C_29
REMARK    9  A    between atoms: C_19  and  C_20
REMARK   10  A    between atoms: C_29  and  C_30
REMARK   11  A    between atoms: C_34  and  C_43
REMARK   12  A    between atoms: C_35  and  C_42
REMARK                            x       y       z     vdW  Elec       q    Type
REMARK                         _______ _______ _______ _____ _____    ______ ____
ROOT
ATOM      1  N   UNL     1       2.131   0.556  -0.979  0.00  0.00    -0.284 NA
ENDROOT
BRANCH   1   2
ATOM      2  C   UNL     1       1.631  -0.811  -0.784  0.00  0.00    +0.127 C 
BRANCH   2   3
ATOM      3  C   UNL     1       1.073  -0.948   0.609  0.00  0.00    +0.169 A 
ATOM      4  N   UNL     1       0.796   0.026   1.441  0.00  0.00    -0.112 NA
ATOM      5  N   UNL     1       0.339  -0.495   2.527  0.00  0.00    -0.023 NA
ATOM      6  N   UNL     1       0.316  -1.777   2.409  0.00  0.00    -0.044 NA
ATOM      7  N   UNL     1       0.756  -2.095   1.239  0.00  0.00    -0.223 N 
BRANCH   7   8
ATOM      8  C   UNL     1       0.889  -3.450   0.699  0.00  0.00    +0.182 C 
BRANCH   8   9
ATOM      9  C   UNL     1       2.255  -3.993   1.034  0.00  0.00    -0.026 A 
ATOM     10  C   UNL     1       3.312  -3.786   0.168  0.00  0.00    +0.008 A 
ATOM     11  C   UNL     1       4.565  -4.283   0.475  0.00  0.00    +0.038 A 
ATOM     12  C   UNL     1       4.760  -4.988   1.651  0.00  0.00    +0.123 A 
ATOM     13  C   UNL     1       3.700  -5.194   2.518  0.00  0.00    +0.038 A 
ATOM     14  C   UNL     1       2.450  -4.692   2.211  0.00  0.00    +0.008 A 
ATOM     15  F   UNL     1       5.984  -5.475   1.952  0.00  0.00    -0.205 F 
ENDBRANCH   8   9
ENDBRANCH   7   8
ENDBRANCH   2   3
BRANCH   2  17
ATOM     16  C   UNL     1       1.094  -0.957  -3.220  0.00  0.00    +0.006 C 
ATOM     17  C   UNL     1       0.529  -1.101  -1.805  0.00  0.00    +0.023 C 
ENDBRANCH   2  17
ENDBRANCH   1   2
BRANCH   1  18
ATOM     18  C   UNL     1       3.145   0.599  -2.042  0.00  0.00    +0.120 C 
BRANCH  18  19
ATOM     19  C   UNL     1       3.921   1.887  -1.944  0.00  0.00    -0.030 A 
ATOM     20  C   UNL     1       3.589   2.956  -2.755  0.00  0.00    +0.009 A 
ATOM     21  C   UNL     1       4.298   4.139  -2.668  0.00  0.00    +0.050 A 
ATOM     22  C   UNL     1       5.344   4.256  -1.768  0.00  0.00    +0.166 A 
ATOM     23  C   UNL     1       5.679   3.180  -0.950  0.00  0.00    +0.167 A 
ATOM     24  C   UNL     1       4.960   1.998  -1.038  0.00  0.00    +0.054 A 
ATOM     25  O   UNL     1       6.731   3.542  -0.160  0.00  0.00    -0.453 OA
ATOM     26  C   UNL     1       7.299   4.707  -0.787  0.00  0.00    +0.466 C 
ATOM     27  O   UNL     1       6.187   5.293  -1.490  0.00  0.00    -0.453 OA
ENDBRANCH  18  19
ENDBRANCH   1  18
BRANCH   1  28
ATOM     28  C   UNL     1       1.030   1.484  -1.264  0.00  0.00    +0.126 C 
BRANCH  28  29
ATOM     29  C   UNL     1       0.333   1.847   0.023  0.00  0.00    +0.031 A 
ATOM     30  C   UNL     1       0.900   2.741   0.869  0.00  0.00    +0.020 A 
ATOM     31  C   UNL     1       0.198   3.072   2.110  0.00  0.00    -0.001 A 
ATOM     32  C   UNL     1       0.733   3.988   3.023  0.00  0.00    +0.013 A 
ATOM     33  C   UNL     1       0.052   4.275   4.171  0.00  0.00    -0.047 A 
ATOM     34  C   UNL     1      -1.166   3.667   4.442  0.00  0.00    -0.046 A 
ATOM     35  C   UNL     1      -1.712   2.762   3.558  0.00  0.00    +0.030 A 
ATOM     36  C   UNL     1      -1.038   2.454   2.381  0.00  0.00    +0.049 A 
ATOM     37  N   UNL     1      -1.561   1.552   1.478  0.00  0.00    -0.322 N 
ATOM     38  H   UNL     1      -2.412   1.127   1.666  0.00  0.00    +0.169 HD
ATOM     39  C   UNL     1      -0.911   1.259   0.339  0.00  0.00    +0.254 A 
ATOM     40  O   UNL     1      -1.405   0.461  -0.439  0.00  0.00    -0.268 OA
ATOM     41  C   UNL     1      -1.899   3.999   5.716  0.00  0.00    +0.044 C 
ATOM     42  C   UNL     1       0.628   5.262   5.154  0.00  0.00    +0.044 C 
ENDBRANCH  28  29
ENDBRANCH   1  28
TORSDOF 9
