REMARK  Name = ZINC61594602
REMARK  8 active torsions:
REMARK  status: ('A' for Active; 'I' for Inactive)
REMARK    1  A    between atoms: C_1  and  C_2
REMARK    2  A    between atoms: C_6  and  C_7
REMARK    3  A    between atoms: C_7  and  C_9
REMARK    4  A    between atoms: C_7  and  S_13
REMARK    5  A    between atoms: C_9  and  C_11
REMARK    6  A    between atoms: C_9  and  N_12
REMARK    7  A    between atoms: S_13  and  C_14
REMARK    8  A    between atoms: N_20  and  C_21
REMARK                            x       y       z     vdW  Elec       q    Type
REMARK                         _______ _______ _______ _____ _____    ______ ____
ROOT
ATOM      1  C   UNL     1       0.017  -0.189   2.569  0.00  0.00    +0.076 C 
ENDROOT
BRANCH   1   7
ATOM      2  C   UNL     1       0.002   1.905   0.321  0.00  0.00    +0.044 C 
ATOM      3  C   UNL     1       0.134   0.426   0.061  0.00  0.00    -0.039 A 
ATOM      4  C   UNL     1       0.262  -0.051  -1.230  0.00  0.00    +0.011 A 
ATOM      5  C   UNL     1       0.378  -1.386  -1.429  0.00  0.00    +0.046 A 
ATOM      6  S   UNL     1       0.308  -2.016   0.240  0.00  0.00    -0.100 S 
ATOM      7  C   UNL     1       0.134  -0.456   1.091  0.00  0.00    +0.004 A 
ENDBRANCH   1   7
BRANCH   1   8
ATOM      8  C   UNL     1      -1.386  -0.572   3.047  0.00  0.00    -0.060 C 
ATOM      9  C   UNL     1      -1.591  -2.078   2.871  0.00  0.00    -0.013 C 
BRANCH   8  10
ATOM     10  N   UNL     1      -2.388   0.154   2.255  0.00  0.00    +0.381 N 
ATOM     11  H   UNL     1      -2.344  -0.151   1.294  0.00  0.00    -0.090 HD
ATOM     12  H   UNL     1      -3.308  -0.031   2.625  0.00  0.00    -0.090 HD
ATOM     13  H   UNL     1      -2.200   1.145   2.302  0.00  0.00    -0.090 HD
ENDBRANCH   8  10
ENDBRANCH   1   8
BRANCH   1  14
ATOM     14  S   UNL     1       1.250  -1.176   3.462  0.00  0.00    -0.079 S 
BRANCH  14  15
ATOM     15  C   UNL     1       1.153  -0.583   5.118  0.00  0.00    +0.193 A 
ATOM     16  N   UNL     1       0.427   0.419   5.524  0.00  0.00    -0.145 NA
ATOM     17  N   UNL     1       0.628   0.569   6.904  0.00  0.00    -0.226 N 
ATOM     18  H   UNL     1       0.216   1.236   7.475  0.00  0.00    +0.194 HD
ATOM     19  C   UNL     1       1.500  -0.385   7.290  0.00  0.00    +0.345 A 
ATOM     20  O   UNL     1       1.914  -0.565   8.422  0.00  0.00    -0.245 OA
ATOM     21  N   UNL     1       1.826  -1.105   6.199  0.00  0.00    -0.268 N 
BRANCH  21  22
ATOM     22  C   UNL     1       2.744  -2.246   6.167  0.00  0.00    +0.094 C 
ATOM     23  C   UNL     1       3.235  -2.796   7.508  0.00  0.00    +0.027 C 
ATOM     24  C   UNL     1       4.188  -2.004   6.611  0.00  0.00    +0.027 C 
ENDBRANCH  21  22
ENDBRANCH  14  15
ENDBRANCH   1  14
TORSDOF 6
