REMARK  Name = ZINC00701037
REMARK  13 active torsions:
REMARK  status: ('A' for Active; 'I' for Inactive)
REMARK    1  A    between atoms: C_1  and  C_2
REMARK    2  A    between atoms: C_2  and  C_3
REMARK    3  A    between atoms: C_2  and  C_4
REMARK    4  A    between atoms: C_2  and  C_5
REMARK    5  A    between atoms: C_8  and  C_11
REMARK    6  A    between atoms: C_11  and  N_12
REMARK    7  A    between atoms: N_12  and  C_13
REMARK    8  A    between atoms: N_12  and  C_23
REMARK    9  A    between atoms: C_13  and  C_14
REMARK   10  A    between atoms: C_23  and  C_24
REMARK   11  A    between atoms: C_26  and  C_29
REMARK   12  A    between atoms: N_31  and  C_32
REMARK   13  A    between atoms: C_32  and  C_33
REMARK                            x       y       z     vdW  Elec       q    Type
REMARK                         _______ _______ _______ _____ _____    ______ ____
ROOT
ATOM      1  N   UNL     1       6.208  -1.064   1.357  0.00  0.00    +0.389 N 
ATOM      2  H   UNL     1       5.709  -0.190   0.915  0.00  0.00    -0.080 HD
ENDROOT
BRANCH   1   3
ATOM      3  C   UNL     1       7.652  -0.794   1.383  0.00  0.00    -0.042 C 
BRANCH   3   7
ATOM      4  C   UNL     1       8.320   3.280   2.478  0.00  0.00    -0.042 A 
ATOM      5  C   UNL     1       8.253   2.304   3.455  0.00  0.00    +0.004 A 
ATOM      6  C   UNL     1       8.037   0.985   3.101  0.00  0.00    +0.002 A 
ATOM      7  C   UNL     1       7.888   0.643   1.770  0.00  0.00    -0.064 A 
ATOM      8  C   UNL     1       7.960   1.618   0.793  0.00  0.00    +0.002 A 
ATOM      9  C   UNL     1       8.171   2.938   1.148  0.00  0.00    +0.004 A 
BRANCH   4  11
ATOM     10  C   UNL     1       9.893   4.836   3.599  0.00  0.00    +0.015 C 
ATOM     11  C   UNL     1       8.556   4.718   2.865  0.00  0.00    -0.013 C 
ATOM     12  C   UNL     1       8.586   5.586   1.605  0.00  0.00    +0.015 C 
ATOM     13  C   UNL     1       7.426   5.190   3.783  0.00  0.00    +0.015 C 
ENDBRANCH   4  11
ENDBRANCH   3   7
ENDBRANCH   1   3
BRANCH   1  14
ATOM     14  C   UNL     1       5.682  -1.246   2.717  0.00  0.00    -0.042 C 
BRANCH  14  15
ATOM     15  C   UNL     1       6.299  -2.474   3.334  0.00  0.00    -0.060 A 
ATOM     16  C   UNL     1       7.515  -2.382   3.986  0.00  0.00    +0.005 A 
ATOM     17  C   UNL     1       8.085  -3.506   4.554  0.00  0.00    +0.050 A 
ATOM     18  C   UNL     1       7.438  -4.729   4.471  0.00  0.00    +0.166 A 
ATOM     19  C   UNL     1       6.213  -4.822   3.815  0.00  0.00    +0.166 A 
ATOM     20  C   UNL     1       5.648  -3.691   3.248  0.00  0.00    +0.051 A 
ATOM     21  O   UNL     1       5.786  -6.117   3.870  0.00  0.00    -0.453 OA
ATOM     22  C   UNL     1       6.560  -6.733   4.916  0.00  0.00    +0.466 C 
ATOM     23  O   UNL     1       7.778  -5.966   4.937  0.00  0.00    -0.453 OA
ENDBRANCH  14  15
ENDBRANCH   1  14
BRANCH   1  24
ATOM     24  C   UNL     1       5.906  -2.230   0.516  0.00  0.00    -0.014 C 
BRANCH  24  25
ATOM     25  C   UNL     1       4.472  -2.159   0.057  0.00  0.00    +0.063 A 
ATOM     26  N   UNL     1       3.994  -1.665  -1.055  0.00  0.00    -0.241 NA
ATOM     27  C   UNL     1       2.681  -1.696  -1.288  0.00  0.00    +0.133 A 
ATOM     28  C   UNL     1       1.879  -2.249  -0.323  0.00  0.00    +0.079 A 
ATOM     29  S   UNL     1       3.046  -2.708   0.876  0.00  0.00    -0.082 S 
BRANCH  27  30
ATOM     30  C   UNL     1       2.114  -1.152  -2.533  0.00  0.00    +0.263 C 
ATOM     31  O   UNL     1       0.912  -1.188  -2.721  0.00  0.00    -0.269 OA
ATOM     32  N   UNL     1       2.925  -0.614  -3.465  0.00  0.00    -0.304 N 
ATOM     33  H   UNL     1       4.012  -0.581  -3.296  0.00  0.00    +0.149 HD
BRANCH  32  34
ATOM     34  C   UNL     1       2.361  -0.072  -4.704  0.00  0.00    +0.160 C 
BRANCH  34  35
ATOM     35  C   UNL     1       3.471   0.466  -5.569  0.00  0.00    +0.058 A 
ATOM     36  C   UNL     1       4.018  -0.335  -6.555  0.00  0.00    +0.025 A 
ATOM     37  C   UNL     1       5.038   0.169  -7.346  0.00  0.00    +0.003 A 
ATOM     38  C   UNL     1       5.473   1.466  -7.115  0.00  0.00    +0.020 A 
ATOM     39  C   UNL     1       4.879   2.206  -6.111  0.00  0.00    +0.111 A 
ATOM     40  N   UNL     1       3.906   1.696  -5.381  0.00  0.00    -0.258 NA
ENDBRANCH  34  35
ENDBRANCH  32  34
ENDBRANCH  27  30
ENDBRANCH  24  25
ENDBRANCH   1  24
TORSDOF 10
