REMARK  Name = ZINC53110738
REMARK  11 active torsions:
REMARK  status: ('A' for Active; 'I' for Inactive)
REMARK    1  A    between atoms: C_1  and  C_2
REMARK    2  A    between atoms: C_2  and  N_3
REMARK    3  A    between atoms: N_3  and  C_4
REMARK    4  A    between atoms: C_4  and  C_5
REMARK    5  A    between atoms: C_5  and  C_7
REMARK    6  A    between atoms: C_5  and  C_8
REMARK    7  A    between atoms: C_10  and  C_12
REMARK    8  A    between atoms: C_12  and  S_13
REMARK    9  A    between atoms: S_13  and  C_14
REMARK   10  A    between atoms: N_27  and  C_28
REMARK   11  A    between atoms: C_28  and  C_29
REMARK                            x       y       z     vdW  Elec       q    Type
REMARK                         _______ _______ _______ _____ _____    ______ ____
ROOT
ATOM      1  C   UNL     1      -1.394  -0.566   5.299  0.00  0.00    +0.198 A 
ATOM      2  N   UNL     1      -0.166  -0.107   5.302  0.00  0.00    -0.120 NA
ATOM      3  N   UNL     1       0.243   0.029   6.634  0.00  0.00    -0.109 NA
ATOM      4  C   UNL     1      -0.750  -0.351   7.407  0.00  0.00    +0.240 A 
ATOM      5  N   UNL     1      -1.789  -0.724   6.600  0.00  0.00    -0.256 N 
ATOM      6  C   UNL     1      -2.989  -1.171   7.151  0.00  0.00    +0.064 A 
ATOM      7  C   UNL     1      -4.047  -1.555   6.341  0.00  0.00    +0.027 A 
ATOM      8  C   UNL     1      -5.224  -1.995   6.913  0.00  0.00    +0.002 A 
ATOM      9  C   UNL     1      -5.359  -2.056   8.291  0.00  0.00    +0.001 A 
ATOM     10  C   UNL     1      -4.317  -1.678   9.111  0.00  0.00    +0.015 A 
ATOM     11  C   UNL     1      -3.123  -1.233   8.546  0.00  0.00    +0.064 A 
ATOM     12  C   UNL     1      -1.985  -0.820   9.387  0.00  0.00    +0.263 A 
ATOM     13  O   UNL     1      -2.066  -0.861  10.601  0.00  0.00    -0.267 OA
ATOM     14  N   UNL     1      -0.850  -0.406   8.789  0.00  0.00    -0.273 N 
ENDROOT
BRANCH   1  15
ATOM     15  S   UNL     1      -2.367  -0.912   3.871  0.00  0.00    -0.076 S 
BRANCH  15  16
ATOM     16  C   UNL     1      -1.274  -0.497   2.484  0.00  0.00    +0.173 C 
BRANCH  16  18
ATOM     17  N   UNL     1      -1.372  -0.511   0.012  0.00  0.00    -0.300 N 
ATOM     18  C   UNL     1      -1.993  -0.751   1.184  0.00  0.00    +0.226 C 
ATOM     19  O   UNL     1      -3.131  -1.171   1.193  0.00  0.00    -0.275 OA
BRANCH  17  21
ATOM     20  C   UNL     1      -0.019   1.526   0.010  0.00  0.00    +0.024 C 
ATOM     21  C   UNL     1       0.002  -0.004   0.002  0.00  0.00    +0.104 C 
ENDBRANCH  17  21
BRANCH  17  22
ATOM     22  C   UNL     1      -2.072  -0.758  -1.251  0.00  0.00    +0.125 C 
BRANCH  22  23
ATOM     23  C   UNL     1      -1.816  -2.197  -1.703  0.00  0.00    +0.106 C 
ATOM     24  C   UNL     1      -0.330  -2.375  -2.021  0.00  0.00    +0.025 C 
BRANCH  23  25
ATOM     25  C   UNL     1      -2.613  -2.482  -2.907  0.00  0.00    +0.067 C 
ATOM     26  N   UNL     1      -3.229  -2.703  -3.836  0.00  0.00    -0.196 NA
ENDBRANCH  23  25
ENDBRANCH  22  23
ENDBRANCH  17  22
ENDBRANCH  16  18
ENDBRANCH  15  16
ENDBRANCH   1  15
BRANCH  14  27
ATOM     27  C   UNL     1       0.289   0.009   9.612  0.00  0.00    +0.155 C 
BRANCH  27  28
ATOM     28  C   UNL     1       0.182   1.482   9.911  0.00  0.00    -0.013 C 
ATOM     29  C   UNL     1       0.202   1.902  11.152  0.00  0.00    +0.005 C 
ENDBRANCH  27  28
ENDBRANCH  14  27
TORSDOF 9
