REMARK  Name = ZINC12500345
REMARK  9 active torsions:
REMARK  status: ('A' for Active; 'I' for Inactive)
REMARK    1  A    between atoms: C_1  and  C_2
REMARK    2  A    between atoms: C_5  and  N_22
REMARK    3  A    between atoms: C_7  and  S_8
REMARK    4  A    between atoms: S_8  and  N_11
REMARK    5  A    between atoms: N_11  and  C_12
REMARK    6  A    between atoms: C_15  and  S_18
REMARK    7  A    between atoms: S_18  and  C_19
REMARK    8  A    between atoms: N_25  and  C_26
REMARK    9  A    between atoms: C_29  and  N_32
REMARK                            x       y       z     vdW  Elec       q    Type
REMARK                         _______ _______ _______ _____ _____    ______ ____
ROOT
ATOM      1  C   UNL     1       2.607  -1.664  -0.991  0.00  0.00    +0.046 C 
ATOM      2  C   UNL     1       2.146  -0.261  -0.689  0.00  0.00    -0.024 A 
ATOM      3  C   UNL     1       3.007   0.804  -0.877  0.00  0.00    +0.007 A 
ATOM      4  C   UNL     1       2.586   2.091  -0.603  0.00  0.00    +0.024 A 
ATOM      5  C   UNL     1       1.297   2.314  -0.137  0.00  0.00    +0.037 A 
ATOM      6  C   UNL     1       0.435   1.242   0.051  0.00  0.00    +0.052 A 
ATOM      7  C   UNL     1       0.861  -0.042  -0.226  0.00  0.00    +0.113 A 
ENDROOT
BRANCH   5   8
ATOM      8  N   UNL     1       0.869   3.616   0.143  0.00  0.00    -0.269 N 
ATOM      9  C   UNL     1       1.745   4.529   0.608  0.00  0.00    +0.308 C 
ATOM     10  O   UNL     1       2.886   4.199   0.869  0.00  0.00    -0.252 OA
ATOM     11  N   UNL     1       1.357   5.808   0.782  0.00  0.00    -0.269 N 
ATOM     12  H   UNL     1      -0.059   3.862   0.004  0.00  0.00    +0.156 HD
ATOM     13  H   UNL     1       0.431   6.058   0.639  0.00  0.00    +0.156 HD
BRANCH  11  14
ATOM     14  C   UNL     1       2.290   6.775   1.171  0.00  0.00    +0.035 A 
ATOM     15  C   UNL     1       3.305   6.445   2.060  0.00  0.00    +0.025 A 
ATOM     16  C   UNL     1       4.228   7.401   2.437  0.00  0.00    +0.034 A 
ATOM     17  C   UNL     1       4.135   8.688   1.940  0.00  0.00    +0.126 A 
ATOM     18  C   UNL     1       3.123   9.021   1.060  0.00  0.00    +0.034 A 
ATOM     19  C   UNL     1       2.200   8.069   0.674  0.00  0.00    +0.025 A 
BRANCH  17  20
ATOM     20  N   UNL     1       5.123   9.712   2.352  0.00  0.00    +0.056 N 
ATOM     21  O   UNL     1       5.042  10.846   1.915  0.00  0.00    -0.126 OA
ATOM     22  O   UNL     1       6.015   9.420   3.127  0.00  0.00    -0.126 OA
ENDBRANCH  17  20
ENDBRANCH  11  14
ENDBRANCH   5   8
BRANCH   7  23
ATOM     23  S   UNL     1      -0.232  -1.403   0.012  0.00  0.00    +0.073 S 
ATOM     24  O   UNL     1      -1.441  -0.867   0.532  0.00  0.00    -0.150 OA
ATOM     25  O   UNL     1      -0.191  -2.171  -1.183  0.00  0.00    -0.150 OA
BRANCH  23  26
ATOM     26  N   UNL     1       0.417  -2.350   1.206  0.00  0.00    -0.216 N 
ATOM     27  H   UNL     1       0.741  -3.240   0.997  0.00  0.00    +0.174 HD
BRANCH  26  28
ATOM     28  C   UNL     1       0.498  -1.866   2.517  0.00  0.00    +0.048 A 
ATOM     29  C   UNL     1       0.984  -0.587   2.756  0.00  0.00    +0.025 A 
ATOM     30  C   UNL     1       1.059  -0.107   4.049  0.00  0.00    +0.017 A 
ATOM     31  C   UNL     1       0.660  -0.908   5.111  0.00  0.00    +0.013 A 
ATOM     32  C   UNL     1       0.179  -2.190   4.872  0.00  0.00    +0.017 A 
ATOM     33  C   UNL     1       0.099  -2.667   3.579  0.00  0.00    +0.025 A 
BRANCH  31  34
ATOM     34  S   UNL     1       0.761  -0.299   6.761  0.00  0.00    -0.056 S 
BRANCH  34  35
ATOM     35  C   UNL     1       1.431   1.376   6.570  0.00  0.00    +0.404 C 
ATOM     36  F   UNL     1       2.686   1.310   5.954  0.00  0.00    -0.197 F 
ATOM     37  F   UNL     1       0.564   2.138   5.779  0.00  0.00    -0.197 F 
ENDBRANCH  34  35
ENDBRANCH  31  34
ENDBRANCH  26  28
ENDBRANCH  23  26
ENDBRANCH   7  23
TORSDOF 8
