REMARK  Name = ZINC22324994
REMARK  10 active torsions:
REMARK  status: ('A' for Active; 'I' for Inactive)
REMARK    1  A    between atoms: C_1  and  C_2
REMARK    2  A    between atoms: C_5  and  C_31
REMARK    3  A    between atoms: N_8  and  C_10
REMARK    4  A    between atoms: C_10  and  C_11
REMARK    5  A    between atoms: N_16  and  C_17
REMARK    6  A    between atoms: C_17  and  C_19
REMARK    7  A    between atoms: C_22  and  N_28
REMARK    8  A    between atoms: C_23  and  N_25
REMARK    9  A    between atoms: N_28  and  C_29
REMARK   10  A    between atoms: N_28  and  C_30
REMARK                            x       y       z     vdW  Elec       q    Type
REMARK                         _______ _______ _______ _____ _____    ______ ____
ROOT
ATOM      1  C   UNL     1       2.971  -2.034   2.241  0.00  0.00    +0.008 A 
ATOM      2  C   UNL     1       3.536  -1.180   3.102  0.00  0.00    +0.067 A 
ATOM      3  S   UNL     1       5.192  -1.044   2.456  0.00  0.00    -0.061 S 
ATOM      4  C   UNL     1       5.040  -2.084   1.143  0.00  0.00    +0.163 A 
ATOM      5  N   UNL     1       3.749  -2.507   1.231  0.00  0.00    -0.341 N 
ATOM      6  N   UNL     1       5.960  -2.416   0.239  0.00  0.00    -0.152 NA
ATOM      7  H   UNL     1       3.389  -3.133   0.582  0.00  0.00    +0.167 HD
ENDROOT
BRANCH   6   8
ATOM      8  C   UNL     1       7.189  -1.899   0.317  0.00  0.00    +0.270 C 
ATOM      9  O   UNL     1       7.469  -1.123   1.215  0.00  0.00    -0.268 OA
BRANCH   8  10
ATOM     10  C   UNL     1       8.211  -2.268  -0.686  0.00  0.00    +0.041 A 
ATOM     11  C   UNL     1       7.891  -3.153  -1.719  0.00  0.00    +0.015 A 
ATOM     12  C   UNL     1       8.844  -3.495  -2.651  0.00  0.00    +0.026 A 
ATOM     13  C   UNL     1      10.126  -2.960  -2.566  0.00  0.00    +0.060 A 
ATOM     14  C   UNL     1      10.448  -2.079  -1.538  0.00  0.00    +0.148 A 
ATOM     15  C   UNL     1       9.496  -1.729  -0.606  0.00  0.00    +0.047 A 
BRANCH  14  16
ATOM     16  N   UNL     1      11.813  -1.513  -1.450  0.00  0.00    +0.058 N 
ATOM     17  O   UNL     1      12.093  -0.748  -0.557  0.00  0.00    -0.126 OA
ATOM     18  O   UNL     1      12.647  -1.817  -2.270  0.00  0.00    -0.126 OA
ENDBRANCH  14  16
BRANCH  13  19
ATOM     19  N   UNL     1      11.088  -3.308  -3.509  0.00  0.00    -0.334 N 
ATOM     20  C   UNL     1      11.236  -2.515  -4.732  0.00  0.00    +0.129 C 
ATOM     21  C   UNL     1      11.953  -4.468  -3.280  0.00  0.00    +0.129 C 
ENDBRANCH  13  19
ENDBRANCH   8  10
ENDBRANCH   6   8
BRANCH   1  22
ATOM     22  C   UNL     1       1.534  -2.461   2.390  0.00  0.00    -0.024 C 
BRANCH  22  28
ATOM     23  C   UNL     1      -0.019   1.526   0.010  0.00  0.00    +0.005 C 
ATOM     24  C   UNL     1       0.002  -0.004   0.002  0.00  0.00    -0.031 C 
ATOM     25  C   UNL     1      -1.434  -0.535   0.015  0.00  0.00    +0.003 C 
ATOM     26  C   UNL     1      -1.402  -2.064   0.086  0.00  0.00    -0.031 C 
ATOM     27  C   UNL     1      -0.613  -2.496   1.324  0.00  0.00    -0.075 C 
ATOM     28  N   UNL     1       0.758  -1.980   1.239  0.00  0.00    +0.384 N 
ATOM     29  C   UNL     1       0.740  -0.512   1.242  0.00  0.00    -0.075 C 
ATOM     30  C   UNL     1      -2.832  -2.602   0.177  0.00  0.00    +0.005 C 
ATOM     31  H   UNL     1       1.188  -2.307   0.386  0.00  0.00    -0.081 HD
ENDBRANCH  22  28
ENDBRANCH   1  22
TORSDOF 6
