REMARK  Name = ZINC04904391
REMARK  9 active torsions:
REMARK  status: ('A' for Active; 'I' for Inactive)
REMARK    1  A    between atoms: C_1  and  C_2
REMARK    2  A    between atoms: C_3  and  C_27
REMARK    3  A    between atoms: C_4  and  C_10
REMARK    4  A    between atoms: N_12  and  C_21
REMARK    5  A    between atoms: C_14  and  C_15
REMARK    6  A    between atoms: C_27  and  O_29
REMARK    7  A    between atoms: O_29  and  C_30
REMARK    8  A    between atoms: C_30  and  C_31
REMARK    9  A    between atoms: C_30  and  C_32
REMARK                            x       y       z     vdW  Elec       q    Type
REMARK                         _______ _______ _______ _____ _____    ______ ____
ROOT
ATOM      1  C   UNL     1      -1.436  -2.585   1.192  0.00  0.00    +0.023 A 
ATOM      2  C   UNL     1      -0.783  -2.438   2.365  0.00  0.00    +0.121 A 
ATOM      3  N   UNL     1      -1.714  -2.344   3.350  0.00  0.00    -0.239 N 
ATOM      4  N   UNL     1      -2.981  -2.437   2.761  0.00  0.00    -0.166 NA
ATOM      5  C   UNL     1      -2.819  -2.576   1.462  0.00  0.00    +0.098 A 
ENDROOT
BRANCH   1   9
ATOM      6  C   UNL     1       3.054  -2.729  -0.297  0.00  0.00    +0.061 C 
ATOM      7  C   UNL     1       1.609  -3.146  -0.391  0.00  0.00    +0.021 C 
ATOM      8  C   UNL     1       0.641  -2.267  -0.057  0.00  0.00    +0.078 C 
ATOM      9  C   UNL     1      -0.799  -2.728  -0.166  0.00  0.00    +0.147 C 
ATOM     10  N   UNL     1      -1.024  -4.107  -0.631  0.00  0.00    -0.288 N 
ATOM     11  C   UNL     1       0.048  -4.867  -0.927  0.00  0.00    +0.304 C 
ATOM     12  O   UNL     1      -0.127  -6.007  -1.311  0.00  0.00    -0.252 OA
ATOM     13  N   UNL     1       1.301  -4.406  -0.817  0.00  0.00    -0.273 N 
ATOM     14  H   UNL     1      -1.923  -4.460  -0.721  0.00  0.00    +0.151 HD
ATOM     15  H   UNL     1       2.030  -5.002  -1.050  0.00  0.00    +0.156 HD
BRANCH   8  16
ATOM     16  C   UNL     1       0.959  -0.959   0.380  0.00  0.00    +0.339 C 
ATOM     17  O   UNL     1       2.120  -0.643   0.556  0.00  0.00    -0.245 OA
BRANCH  16  18
ATOM     18  O   UNL     1      -0.026  -0.064   0.601  0.00  0.00    -0.459 OA
BRANCH  18  19
ATOM     19  C   UNL     1       0.357   1.199   1.150  0.00  0.00    +0.171 C 
ATOM     20  C   UNL     1       0.578   2.202   0.016  0.00  0.00    +0.052 C 
ATOM     21  C   UNL     1      -0.750   1.710   2.074  0.00  0.00    +0.052 C 
ENDBRANCH  18  19
ENDBRANCH  16  18
ENDBRANCH   8  16
ENDBRANCH   1   9
BRANCH   5  22
ATOM     22  C   UNL     1      -3.904  -2.706   0.457  0.00  0.00    +0.002 A 
ATOM     23  C   UNL     1      -3.822  -2.020  -0.753  0.00  0.00    +0.010 A 
ATOM     24  C   UNL     1      -4.834  -2.144  -1.683  0.00  0.00    +0.001 A 
ATOM     25  C   UNL     1      -5.927  -2.948  -1.417  0.00  0.00    +0.000 A 
ATOM     26  C   UNL     1      -6.014  -3.631  -0.217  0.00  0.00    +0.001 A 
ATOM     27  C   UNL     1      -5.005  -3.519   0.718  0.00  0.00    +0.010 A 
ENDBRANCH   5  22
BRANCH   3  28
ATOM     28  C   UNL     1      -1.452  -2.183   4.718  0.00  0.00    +0.065 A 
ATOM     29  C   UNL     1      -0.142  -2.099   5.170  0.00  0.00    +0.028 A 
ATOM     30  C   UNL     1       0.113  -1.940   6.518  0.00  0.00    +0.002 A 
ATOM     31  C   UNL     1      -0.934  -1.864   7.417  0.00  0.00    +0.000 A 
ATOM     32  C   UNL     1      -2.240  -1.948   6.970  0.00  0.00    +0.002 A 
ATOM     33  C   UNL     1      -2.502  -2.100   5.622  0.00  0.00    +0.028 A 
ENDBRANCH   3  28
TORSDOF 6
