REMARK  Name = ZINC01081039
REMARK  6 active torsions:
REMARK  status: ('A' for Active; 'I' for Inactive)
REMARK    1  A    between atoms: C_1  and  C_2
REMARK    2  A    between atoms: C_5  and  N_8
REMARK    3  A    between atoms: C_9  and  C_11
REMARK    4  A    between atoms: C_15  and  N_16
REMARK    5  A    between atoms: C_17  and  C_19
REMARK    6  A    between atoms: C_22  and  N_25
REMARK                            x       y       z     vdW  Elec       q    Type
REMARK                         _______ _______ _______ _____ _____    ______ ____
ROOT
ATOM      1  C   UNL     1      -0.024   1.462   0.010  0.00  0.00    +0.069 A 
ATOM      2  C   UNL     1      -1.290   2.195   0.026  0.00  0.00    -0.023 A 
ATOM      3  C   UNL     1      -1.173   3.535   0.038  0.00  0.00    -0.004 A 
ATOM      4  S   UNL     1       0.578   3.837   0.014  0.00  0.00    -0.077 S 
ATOM      5  C   UNL     1       1.146   2.202  -0.003  0.00  0.00    +0.085 A 
ATOM      6  C   UNL     1      -2.513   4.218   0.065  0.00  0.00    +0.043 C 
ATOM      7  C   UNL     1      -3.502   3.118   0.508  0.00  0.00    +0.010 C 
ATOM      8  C   UNL     1      -2.776   1.838   0.046  0.00  0.00    +0.037 C 
ENDROOT
BRANCH   1  10
ATOM      9  N   UNL     1       0.001  -0.672  -1.169  0.00  0.00    -0.281 N 
ATOM     10  C   UNL     1       0.004  -0.004   0.002  0.00  0.00    +0.251 C 
ATOM     11  O   UNL     1       0.031  -0.618   1.053  0.00  0.00    -0.270 OA
ATOM     12  H   UNL     1      -0.088  -0.186  -2.004  0.00  0.00    +0.155 HD
BRANCH   9  17
ATOM     13  C   UNL     1       0.505  -6.322  -1.213  0.00  0.00    +0.044 C 
ATOM     14  C   UNL     1       0.371  -4.821  -1.202  0.00  0.00    -0.050 A 
ATOM     15  C   UNL     1      -0.322  -4.198  -0.180  0.00  0.00    +0.005 A 
ATOM     16  C   UNL     1      -0.447  -2.822  -0.166  0.00  0.00    +0.023 A 
ATOM     17  C   UNL     1       0.125  -2.065  -1.180  0.00  0.00    +0.034 A 
ATOM     18  C   UNL     1       0.816  -2.694  -2.207  0.00  0.00    +0.023 A 
ATOM     19  C   UNL     1       0.942  -4.069  -2.212  0.00  0.00    +0.005 A 
ENDBRANCH   9  17
ENDBRANCH   1  10
BRANCH   5  20
ATOM     20  N   UNL     1       2.454   1.746  -0.025  0.00  0.00    -0.275 N 
ATOM     21  C   UNL     1       3.475   2.625  -0.035  0.00  0.00    +0.249 C 
ATOM     22  O   UNL     1       3.248   3.820  -0.026  0.00  0.00    -0.270 OA
ATOM     23  H   UNL     1       2.635   0.793  -0.033  0.00  0.00    +0.156 HD
BRANCH  21  24
ATOM     24  C   UNL     1       4.870   2.138  -0.058  0.00  0.00    +0.037 A 
ATOM     25  C   UNL     1       5.134   0.767  -0.063  0.00  0.00    +0.015 A 
ATOM     26  C   UNL     1       6.438   0.319  -0.090  0.00  0.00    +0.033 A 
ATOM     27  C   UNL     1       7.484   1.225  -0.100  0.00  0.00    +0.126 A 
ATOM     28  C   UNL     1       7.229   2.585  -0.090  0.00  0.00    +0.033 A 
ATOM     29  C   UNL     1       5.929   3.047  -0.069  0.00  0.00    +0.015 A 
BRANCH  27  30
ATOM     30  N   UNL     1       8.881   0.737  -0.122  0.00  0.00    +0.056 N 
ATOM     31  O   UNL     1       9.804   1.532  -0.131  0.00  0.00    -0.126 OA
ATOM     32  O   UNL     1       9.108  -0.459  -0.131  0.00  0.00    -0.126 OA
ENDBRANCH  27  30
ENDBRANCH  21  24
ENDBRANCH   5  20
TORSDOF 5
