REMARK  Name = ZINC39195755
REMARK  9 active torsions:
REMARK  status: ('A' for Active; 'I' for Inactive)
REMARK    1  A    between atoms: C_1  and  S_2
REMARK    2  A    between atoms: S_2  and  C_5
REMARK    3  A    between atoms: C_8  and  C_11
REMARK    4  A    between atoms: C_11  and  C_13
REMARK    5  A    between atoms: C_11  and  N_22
REMARK    6  A    between atoms: C_23  and  C_25
REMARK    7  A    between atoms: C_25  and  C_27
REMARK    8  A    between atoms: C_25  and  C_34
REMARK    9  A    between atoms: C_27  and  C_28
REMARK                            x       y       z     vdW  Elec       q    Type
REMARK                         _______ _______ _______ _____ _____    ______ ____
ROOT
ATOM      1  C   UNL     1       2.890  -1.488  -5.084  0.00  0.00    +0.134 C 
ENDROOT
BRANCH   1   2
ATOM      2  C   UNL     1       3.509  -0.255  -5.689  0.00  0.00    -0.022 A 
ATOM      3  C   UNL     1       4.707   0.232  -5.199  0.00  0.00    +0.009 A 
ATOM      4  C   UNL     1       5.280   1.358  -5.753  0.00  0.00    +0.046 A 
ATOM      5  C   UNL     1       4.655   2.015  -6.810  0.00  0.00    +0.124 A 
ATOM      6  C   UNL     1       3.449   1.521  -7.288  0.00  0.00    -0.002 A 
ATOM      7  C   UNL     1       2.883   0.391  -6.740  0.00  0.00    +0.013 A 
ATOM      8  C   UNL     1       3.003   2.443  -8.407  0.00  0.00    +0.080 C 
ATOM      9  C   UNL     1       3.908   3.678  -8.184  0.00  0.00    +0.234 C 
ATOM     10  O   UNL     1       5.045   3.120  -7.504  0.00  0.00    -0.491 OA
ENDBRANCH   1   2
BRANCH   1  14
ATOM     11  C   UNL     1       0.845  -0.437  -1.483  0.00  0.00    +0.088 A 
ATOM     12  C   UNL     1       0.135  -0.613  -2.656  0.00  0.00    +0.027 A 
ATOM     13  C   UNL     1       0.796  -0.953  -3.821  0.00  0.00    +0.007 A 
ATOM     14  C   UNL     1       2.169  -1.117  -3.814  0.00  0.00    -0.023 A 
ATOM     15  C   UNL     1       2.880  -0.941  -2.641  0.00  0.00    +0.007 A 
ATOM     16  C   UNL     1       2.219  -0.596  -1.477  0.00  0.00    +0.027 A 
BRANCH  11  18
ATOM     17  C   UNL     1      -0.022   1.810   0.012  0.00  0.00    +0.200 C 
ATOM     18  S   UNL     1       0.002  -0.004   0.002  0.00  0.00    -0.006 S 
ATOM     19  O   UNL     1       0.835  -0.488   1.046  0.00  0.00    -0.170 OA
ATOM     20  O   UNL     1      -1.315  -0.510  -0.168  0.00  0.00    -0.170 OA
ENDBRANCH  11  18
ENDBRANCH   1  14
BRANCH   1  21
ATOM     21  N   UNL     1       3.941  -2.463  -4.781  0.00  0.00    -0.304 N 
ATOM     22  C   UNL     1       4.372  -3.308  -5.739  0.00  0.00    +0.221 C 
ATOM     23  O   UNL     1       3.891  -3.260  -6.851  0.00  0.00    -0.275 OA
ATOM     24  H   UNL     1       4.325  -2.502  -3.892  0.00  0.00    +0.150 HD
BRANCH  22  25
ATOM     25  C   UNL     1       5.453  -4.311  -5.428  0.00  0.00    +0.109 C 
BRANCH  25  26
ATOM     26  C   UNL     1       4.989  -5.223  -4.322  0.00  0.00    -0.035 A 
ATOM     27  C   UNL     1       3.858  -5.999  -4.495  0.00  0.00    +0.004 A 
ATOM     28  C   UNL     1       3.432  -6.835  -3.480  0.00  0.00    +0.000 A 
ATOM     29  C   UNL     1       4.137  -6.896  -2.292  0.00  0.00    +0.000 A 
ATOM     30  C   UNL     1       5.268  -6.120  -2.119  0.00  0.00    +0.000 A 
ATOM     31  C   UNL     1       5.696  -5.287  -3.136  0.00  0.00    +0.004 A 
ENDBRANCH  25  26
BRANCH  25  32
ATOM     32  C   UNL     1       5.755  -5.139  -6.678  0.00  0.00    +0.052 C 
BRANCH  32  33
ATOM     33  C   UNL     1       6.918  -6.057  -6.404  0.00  0.00    -0.046 A 
ATOM     34  C   UNL     1       8.210  -5.630  -6.650  0.00  0.00    +0.003 A 
ATOM     35  C   UNL     1       9.276  -6.472  -6.398  0.00  0.00    +0.000 A 
ATOM     36  C   UNL     1       9.052  -7.741  -5.900  0.00  0.00    +0.000 A 
ATOM     37  C   UNL     1       7.761  -8.169  -5.652  0.00  0.00    +0.000 A 
ATOM     38  C   UNL     1       6.694  -7.325  -5.900  0.00  0.00    +0.003 A 
ENDBRANCH  32  33
ENDBRANCH  25  32
ENDBRANCH  22  25
ENDBRANCH   1  21
TORSDOF 8
