REMARK  Name = ZINC11979903
REMARK  6 active torsions:
REMARK  status: ('A' for Active; 'I' for Inactive)
REMARK    1  A    between atoms: C_4  and  O_7
REMARK    2  A    between atoms: O_7  and  C_8
REMARK    3  A    between atoms: C_8  and  C_9
REMARK    4  A    between atoms: N_11  and  C_12
REMARK    5  A    between atoms: C_21  and  O_23
REMARK    6  A    between atoms: C_28  and  N_67
REMARK                            x       y       z     vdW  Elec       q    Type
REMARK                         _______ _______ _______ _____ _____    ______ ____
ROOT
ATOM      1  C   UNL     1       2.207   0.742  -0.323  0.00  0.00    +0.133 C 
ATOM      2  C   UNL     1       1.282  -0.446  -0.156  0.00  0.00    -0.021 A 
ATOM      3  C   UNL     1       1.544  -1.804  -0.228  0.00  0.00    +0.006 A 
ATOM      4  C   UNL     1       0.528  -2.719  -0.039  0.00  0.00    +0.000 A 
ATOM      5  C   UNL     1      -0.756  -2.279   0.223  0.00  0.00    +0.000 A 
ATOM      6  C   UNL     1      -1.020  -0.926   0.295  0.00  0.00    +0.004 A 
ATOM      7  C   UNL     1      -0.003  -0.005   0.106  0.00  0.00    -0.034 A 
ATOM      8  C   UNL     1      -0.024   1.504   0.133  0.00  0.00    +0.021 C 
ATOM      9  C   UNL     1       1.445   1.937   0.290  0.00  0.00    +0.149 C 
ATOM     10  C   UNL     1      -0.845   2.005   1.318  0.00  0.00    -0.005 C 
ATOM     11  C   UNL     1      -0.876   3.536   1.303  0.00  0.00    -0.077 C 
ATOM     12  C   UNL     1      -0.630   3.580  -1.109  0.00  0.00    -0.077 C 
ATOM     13  C   UNL     1      -0.592   2.051  -1.174  0.00  0.00    -0.005 C 
ATOM     14  N   UNL     1      -1.479   3.989   0.031  0.00  0.00    +0.382 N 
ATOM     15  H   UNL     1      -2.404   3.557  -0.071  0.00  0.00    -0.081 HD
ENDROOT
BRANCH  14  16
ATOM     16  C   UNL     1      -1.634   5.459   0.042  0.00  0.00    -0.060 C 
ATOM     17  C   UNL     1      -2.610   5.883   1.160  0.00  0.00    +0.020 C 
ATOM     18  C   UNL     1      -3.383   7.052   0.588  0.00  0.00    -0.046 A 
ATOM     19  C   UNL     1      -4.147   8.018   1.221  0.00  0.00    +0.004 A 
ATOM     20  C   UNL     1      -4.770   9.005   0.483  0.00  0.00    +0.000 A 
ATOM     21  C   UNL     1      -4.630   9.030  -0.892  0.00  0.00    +0.000 A 
ATOM     22  C   UNL     1      -3.868   8.068  -1.525  0.00  0.00    +0.004 A 
ATOM     23  C   UNL     1      -3.243   7.077  -0.787  0.00  0.00    -0.046 A 
ATOM     24  C   UNL     1      -2.367   5.927  -1.233  0.00  0.00    +0.020 C 
ENDBRANCH  14  16
BRANCH   1  27
ATOM     25  C   UNL     1       3.475   0.327  -2.362  0.00  0.00    +0.251 C 
ATOM     26  O   UNL     1       4.156  -0.463  -1.743  0.00  0.00    -0.272 OA
ATOM     27  N   UNL     1       2.473   0.982  -1.743  0.00  0.00    -0.303 N 
ATOM     28  H   UNL     1       1.928   1.614  -2.239  0.00  0.00    +0.149 HD
BRANCH  25  29
ATOM     29  C   UNL     1       3.748   0.575  -3.823  0.00  0.00    +0.324 C 
BRANCH  29  30
ATOM     30  O   UNL     1       4.850  -0.232  -4.245  0.00  0.00    -0.483 OA
BRANCH  30  34
ATOM     31  C   UNL     1       6.001   0.086  -8.194  0.00  0.00    +0.000 A 
ATOM     32  C   UNL     1       6.675  -0.773  -7.346  0.00  0.00    +0.004 A 
ATOM     33  C   UNL     1       6.292  -0.881  -6.023  0.00  0.00    +0.045 A 
ATOM     34  C   UNL     1       5.229  -0.127  -5.546  0.00  0.00    +0.121 A 
ATOM     35  C   UNL     1       4.551   0.730  -6.400  0.00  0.00    +0.045 A 
ATOM     36  C   UNL     1       4.942   0.839  -7.721  0.00  0.00    +0.004 A 
ENDBRANCH  30  34
ENDBRANCH  29  30
ENDBRANCH  25  29
ENDBRANCH   1  27
BRANCH   9  37
ATOM     37  O   UNL     1       1.782   2.102   1.669  0.00  0.00    -0.389 OA
ATOM     38  H   UNL     1       2.698   2.374   1.819  0.00  0.00    +0.210 HD
ENDBRANCH   9  37
TORSDOF 6
