REMARK  Name = ZINC36922920
REMARK  5 active torsions:
REMARK  status: ('A' for Active; 'I' for Inactive)
REMARK    1  A    between atoms: C_1  and  C_2
REMARK    2  A    between atoms: C_7  and  N_12
REMARK    3  A    between atoms: C_9  and  C_11
REMARK    4  A    between atoms: N_12  and  C_13
REMARK    5  A    between atoms: C_13  and  C_14
REMARK                            x       y       z     vdW  Elec       q    Type
REMARK                         _______ _______ _______ _____ _____    ______ ____
ROOT
ATOM      1  C   UNL     1      -0.596  -4.014   1.356  0.00  0.00    -0.007 C 
ENDROOT
BRANCH   1   2
ATOM      2  C   UNL     1      -2.010  -4.535   1.367  0.00  0.00    +0.093 A 
ATOM      3  N   UNL     1      -2.203  -5.877   1.471  0.00  0.00    -0.311 N 
ATOM      4  H   UNL     1      -1.444  -6.477   1.537  0.00  0.00    +0.170 HD
ATOM      5  C   UNL     1      -3.466  -6.367   1.483  0.00  0.00    +0.266 A 
ATOM      6  O   UNL     1      -3.673  -7.565   1.576  0.00  0.00    -0.267 OA
ATOM      7  C   UNL     1      -4.524  -5.462   1.386  0.00  0.00    +0.102 A 
ATOM      8  C   UNL     1      -4.296  -4.079   1.279  0.00  0.00    +0.085 A 
ATOM      9  N   UNL     1      -2.981  -3.684   1.282  0.00  0.00    -0.235 NA
ATOM     10  C   UNL     1      -5.447  -3.283   1.189  0.00  0.00    +0.036 A 
ATOM     11  C   UNL     1      -6.670  -3.854   1.208  0.00  0.00    +0.048 A 
ATOM     12  S   UNL     1      -6.292  -5.592   1.357  0.00  0.00    -0.090 S 
ENDBRANCH   1   2
BRANCH   1  13
ATOM     13  N   UNL     1      -0.615  -2.549   1.244  0.00  0.00    +0.386 N 
ATOM     14  H   UNL     1      -1.112  -2.158   2.030  0.00  0.00    -0.085 HD
ATOM     15  H   UNL     1      -1.078  -2.284   0.387  0.00  0.00    -0.085 HD
BRANCH  13  21
ATOM     16  C   UNL     1      -0.019   1.526   0.010  0.00  0.00    +0.008 C 
ATOM     17  C   UNL     1       0.002  -0.004   0.002  0.00  0.00    -0.013 C 
ATOM     18  C   UNL     1       0.718  -0.497  -1.257  0.00  0.00    +0.003 C 
ATOM     19  C   UNL     1       0.739  -2.027  -1.265  0.00  0.00    -0.001 C 
ATOM     20  C   UNL     1       1.479  -2.534  -0.026  0.00  0.00    -0.015 C 
ATOM     21  C   UNL     1       0.763  -2.041   1.233  0.00  0.00    -0.068 C 
ATOM     22  C   UNL     1       0.742  -0.511   1.242  0.00  0.00    -0.025 C 
ATOM     23  C   UNL     1       0.026  -0.018   2.500  0.00  0.00    +0.006 C 
ENDBRANCH  13  21
ENDBRANCH   1  13
TORSDOF 3
