REMARK  Name = ZINC39675566
REMARK  12 active torsions:
REMARK  status: ('A' for Active; 'I' for Inactive)
REMARK    1  A    between atoms: C_1  and  C_2
REMARK    2  A    between atoms: C_2  and  C_3
REMARK    3  A    between atoms: C_3  and  C_4
REMARK    4  A    between atoms: C_4  and  C_6
REMARK    5  A    between atoms: C_4  and  C_7
REMARK    6  A    between atoms: C_11  and  C_20
REMARK    7  A    between atoms: N_22  and  C_23
REMARK    8  A    between atoms: C_23  and  C_24
REMARK    9  A    between atoms: C_24  and  C_26
REMARK   10  A    between atoms: C_24  and  N_32
REMARK   11  A    between atoms: N_32  and  C_33
REMARK   12  A    between atoms: N_32  and  C_34
REMARK                            x       y       z     vdW  Elec       q    Type
REMARK                         _______ _______ _______ _____ _____    ______ ____
ROOT
ATOM      1  C   UNL     1       1.101  -2.329  -3.120  0.00  0.00    +0.218 C 
ATOM      2  O   UNL     1       1.687  -1.611  -3.902  0.00  0.00    -0.275 OA
ATOM      3  N   UNL     1       1.219  -3.668  -3.217  0.00  0.00    -0.300 N 
ATOM      4  C   UNL     1       0.492  -4.702  -2.443  0.00  0.00    +0.121 C 
ATOM      5  C   UNL     1       0.188  -5.816  -3.470  0.00  0.00    +0.100 C 
ATOM      6  C   UNL     1       1.250  -5.639  -4.567  0.00  0.00    -0.004 C 
ATOM      7  C   UNL     1       2.101  -4.440  -4.125  0.00  0.00    +0.115 C 
ATOM      8  C   UNL     1       0.583  -5.340  -5.906  0.00  0.00    -0.010 C 
ATOM      9  C   UNL     1       1.656  -5.226  -6.992  0.00  0.00    -0.082 C 
ATOM     10  N   UNL     1       2.413  -6.481  -7.069  0.00  0.00    +0.379 N 
ATOM     11  C   UNL     1       3.127  -6.714  -5.808  0.00  0.00    -0.082 C 
ATOM     12  C   UNL     1       2.116  -6.891  -4.672  0.00  0.00    -0.010 C 
ATOM     13  H   UNL     1       1.777  -7.245  -7.240  0.00  0.00    -0.086 HD
ATOM     14  H   UNL     1       3.078  -6.425  -7.826  0.00  0.00    -0.086 HD
ENDROOT
BRANCH   5  15
ATOM     15  C   UNL     1       0.315  -7.173  -2.826  0.00  0.00    +0.218 C 
ATOM     16  O   UNL     1       1.111  -7.345  -1.927  0.00  0.00    -0.275 OA
ATOM     17  N   UNL     1      -0.454  -8.195  -3.250  0.00  0.00    -0.316 N 
ATOM     18  H   UNL     1      -1.090  -8.057  -3.969  0.00  0.00    +0.149 HD
BRANCH  17  19
ATOM     19  C   UNL     1      -0.330  -9.514  -2.624  0.00  0.00    +0.093 C 
BRANCH  19  20
ATOM     20  C   UNL     1      -1.207 -10.518  -3.373  0.00  0.00    -0.021 C 
BRANCH  20  21
ATOM     21  C   UNL     1      -0.708 -10.665  -4.787  0.00  0.00    -0.059 A 
ATOM     22  C   UNL     1       0.380 -11.475  -5.056  0.00  0.00    +0.002 A 
ATOM     23  C   UNL     1       0.838 -11.610  -6.353  0.00  0.00    +0.000 A 
ATOM     24  C   UNL     1       0.209 -10.934  -7.382  0.00  0.00    +0.000 A 
ATOM     25  C   UNL     1      -0.879 -10.125  -7.114  0.00  0.00    +0.000 A 
ATOM     26  C   UNL     1      -1.340  -9.994  -5.817  0.00  0.00    +0.002 A 
ENDBRANCH  20  21
BRANCH  20  27
ATOM     27  N   UNL     1      -1.149 -11.820  -2.696  0.00  0.00    +0.382 N 
ATOM     28  C   UNL     1      -1.653 -11.681  -1.323  0.00  0.00    -0.096 C 
ATOM     29  C   UNL     1      -1.977 -12.790  -3.425  0.00  0.00    -0.096 C 
ATOM     30  H   UNL     1      -0.194 -12.145  -2.672  0.00  0.00    -0.082 HD
ENDBRANCH  20  27
ENDBRANCH  19  20
ENDBRANCH  17  19
ENDBRANCH   5  15
BRANCH   1  31
ATOM     31  C   UNL     1       0.241  -1.725  -2.040  0.00  0.00    +0.072 C 
ATOM     32  C   UNL     1      -1.194  -1.579  -2.553  0.00  0.00    +0.017 C 
BRANCH  31  33
ATOM     33  C   UNL     1       0.790  -0.347  -1.663  0.00  0.00    +0.012 C 
BRANCH  33  35
ATOM     34  C   UNL     1       0.542   1.590  -0.104  0.00  0.00    +0.004 C 
ATOM     35  C   UNL     1      -0.007   0.213  -0.482  0.00  0.00    -0.003 C 
ENDBRANCH  33  35
ENDBRANCH  31  33
ENDBRANCH   1  31
TORSDOF 8
