REMARK  Name = ZINC36660259
REMARK  12 active torsions:
REMARK  status: ('A' for Active; 'I' for Inactive)
REMARK    1  A    between atoms: C_1  and  C_2
REMARK    2  A    between atoms: C_2  and  C_3
REMARK    3  A    between atoms: C_3  and  N_4
REMARK    4  A    between atoms: C_10  and  N_17
REMARK    5  A    between atoms: C_11  and  C_12
REMARK    6  A    between atoms: C_12  and  O_14
REMARK    7  A    between atoms: O_14  and  C_15
REMARK    8  A    between atoms: C_15  and  C_16
REMARK    9  A    between atoms: C_18  and  C_20
REMARK   10  A    between atoms: N_25  and  S_26
REMARK   11  A    between atoms: S_26  and  C_29
REMARK   12  A    between atoms: C_32  and  C_35
REMARK                            x       y       z     vdW  Elec       q    Type
REMARK                         _______ _______ _______ _____ _____    ______ ____
ROOT
ATOM      1  N   UNL     1      -1.463  -7.845  -1.957  0.00  0.00    -0.278 N 
ATOM      2  C   UNL     1      -2.747  -8.121  -1.653  0.00  0.00    +0.236 C 
ATOM      3  O   UNL     1      -3.497  -7.228  -1.321  0.00  0.00    -0.274 OA
ATOM      4  H   UNL     1      -0.864  -8.560  -2.223  0.00  0.00    +0.155 HD
ENDROOT
BRANCH   1  11
ATOM      5  N   UNL     1       0.738  -1.966  -1.265  0.00  0.00    +0.383 N 
ATOM      6  C   UNL     1       1.532  -2.438  -2.407  0.00  0.00    -0.074 C 
ATOM      7  C   UNL     1       1.827  -3.935  -2.263  0.00  0.00    +0.018 C 
ATOM      8  C   UNL     1       0.507  -4.650  -2.013  0.00  0.00    -0.025 A 
ATOM      9  C   UNL     1      -0.580  -3.951  -1.616  0.00  0.00    -0.021 A 
ATOM     10  S   UNL     1      -1.856  -5.162  -1.455  0.00  0.00    -0.079 S 
ATOM     11  C   UNL     1      -1.000  -6.541  -1.889  0.00  0.00    +0.086 A 
ATOM     12  C   UNL     1       0.279  -6.074  -2.162  0.00  0.00    +0.091 A 
ATOM     13  C   UNL     1      -0.641  -2.475  -1.376  0.00  0.00    -0.035 C 
ATOM     14  H   UNL     1       1.152  -2.301  -0.408  0.00  0.00    -0.081 HD
BRANCH  12  15
ATOM     15  C   UNL     1       1.349  -6.980  -2.584  0.00  0.00    +0.342 C 
ATOM     16  O   UNL     1       2.064  -7.505  -1.752  0.00  0.00    -0.245 OA
BRANCH  15  17
ATOM     17  O   UNL     1       1.542  -7.232  -3.895  0.00  0.00    -0.461 OA
BRANCH  17  18
ATOM     18  C   UNL     1       2.605  -8.125  -4.234  0.00  0.00    +0.229 C 
ATOM     19  C   UNL     1       2.670  -8.287  -5.754  0.00  0.00    +0.048 C 
ENDBRANCH  17  18
ENDBRANCH  15  17
ENDBRANCH  12  15
BRANCH   5  20
ATOM     20  C   UNL     1       0.718  -0.497  -1.257  0.00  0.00    -0.079 C 
BRANCH  20  22
ATOM     21  C   UNL     1      -0.019   1.526   0.010  0.00  0.00    +0.002 C 
ATOM     22  C   UNL     1       0.002  -0.004   0.002  0.00  0.00    -0.022 C 
ENDBRANCH  20  22
ENDBRANCH   5  20
ENDBRANCH   1  11
BRANCH   2  23
ATOM     23  C   UNL     1      -3.251  -9.539  -1.728  0.00  0.00    +0.166 C 
ATOM     24  C   UNL     1      -2.475 -10.425  -0.730  0.00  0.00    +0.031 C 
ATOM     25  C   UNL     1      -3.419 -10.470   0.501  0.00  0.00    +0.019 C 
ATOM     26  C   UNL     1      -4.812 -10.476  -0.175  0.00  0.00    +0.110 C 
ATOM     27  N   UNL     1      -4.670  -9.586  -1.346  0.00  0.00    -0.165 NA
BRANCH  27  28
ATOM     28  S   UNL     1      -5.900  -8.776  -2.103  0.00  0.00    +0.062 S 
ATOM     29  O   UNL     1      -6.942  -8.634  -1.146  0.00  0.00    -0.153 OA
ATOM     30  O   UNL     1      -5.310  -7.661  -2.757  0.00  0.00    -0.153 OA
BRANCH  28  31
ATOM     31  C   UNL     1      -6.520  -9.833  -3.369  0.00  0.00    +0.106 A 
ATOM     32  C   UNL     1      -5.975  -9.784  -4.638  0.00  0.00    +0.029 A 
ATOM     33  C   UNL     1      -6.462 -10.614  -5.631  0.00  0.00    +0.005 A 
ATOM     34  C   UNL     1      -7.492 -11.493  -5.355  0.00  0.00    -0.050 A 
ATOM     35  C   UNL     1      -8.037 -11.542  -4.085  0.00  0.00    +0.005 A 
ATOM     36  C   UNL     1      -7.548 -10.716  -3.091  0.00  0.00    +0.029 A 
ATOM     37  C   UNL     1      -8.023 -12.396  -6.438  0.00  0.00    +0.044 C 
ENDBRANCH  28  31
ENDBRANCH  27  28
ENDBRANCH   2  23
TORSDOF 9
