REMARK  Name = ZINC39226329
REMARK  10 active torsions:
REMARK  status: ('A' for Active; 'I' for Inactive)
REMARK    1  A    between atoms: C_1  and  C_2
REMARK    2  A    between atoms: C_2  and  O_3
REMARK    3  A    between atoms: O_3  and  C_4
REMARK    4  A    between atoms: C_4  and  C_5
REMARK    5  A    between atoms: C_5  and  N_6
REMARK    6  A    between atoms: C_7  and  C_9
REMARK    7  A    between atoms: C_13  and  C_15
REMARK    8  A    between atoms: N_28  and  C_31
REMARK    9  A    between atoms: C_31  and  C_32
REMARK   10  A    between atoms: C_31  and  C_33
REMARK                            x       y       z     vdW  Elec       q    Type
REMARK                         _______ _______ _______ _____ _____    ______ ____
ROOT
ATOM      1  C   UNL     1       0.735  -1.783   9.876  0.00  0.00    -0.017 A 
ATOM      2  C   UNL     1       1.964  -2.424  10.049  0.00  0.00    +0.012 A 
ATOM      3  C   UNL     1       2.455  -2.668  11.313  0.00  0.00    +0.047 A 
ATOM      4  C   UNL     1       1.731  -2.277  12.433  0.00  0.00    +0.132 A 
ATOM      5  C   UNL     1       0.496  -1.629  12.264  0.00  0.00    +0.060 A 
ATOM      6  C   UNL     1       0.001  -1.379  10.984  0.00  0.00    +0.023 A 
ATOM      7  C   UNL     1      -0.261  -1.207  13.457  0.00  0.00    +0.170 C 
ATOM      8  O   UNL     1      -1.217  -0.466  13.376  0.00  0.00    -0.292 OA
ATOM      9  C   UNL     1       0.219  -1.750  14.791  0.00  0.00    +0.127 C 
ATOM     10  C   UNL     1       1.754  -1.730  14.761  0.00  0.00    +0.114 C 
ATOM     11  O   UNL     1       2.218  -2.525  13.671  0.00  0.00    -0.485 OA
ATOM     12  C   UNL     1       2.236  -0.287  14.587  0.00  0.00    +0.030 C 
ATOM     13  C   UNL     1       3.765  -0.255  14.647  0.00  0.00    -0.075 C 
ATOM     14  N   UNL     1       4.218  -0.775  15.943  0.00  0.00    +0.381 N 
ATOM     15  C   UNL     1       3.822  -2.181  16.082  0.00  0.00    -0.075 C 
ATOM     16  C   UNL     1       2.296  -2.289  16.078  0.00  0.00    +0.030 C 
ATOM     17  H   UNL     1       3.800  -0.234  16.685  0.00  0.00    -0.081 HD
ENDROOT
BRANCH   1  22
ATOM     18  C   UNL     1       0.459  -1.688   6.118  0.00  0.00    +0.037 A 
ATOM     19  C   UNL     1      -0.768  -1.041   5.957  0.00  0.00    +0.013 A 
ATOM     20  C   UNL     1      -1.491  -0.644   7.063  0.00  0.00    +0.001 A 
ATOM     21  C   UNL     1      -1.007  -0.883   8.335  0.00  0.00    +0.008 A 
ATOM     22  C   UNL     1       0.217  -1.528   8.509  0.00  0.00    -0.017 A 
ATOM     23  C   UNL     1       0.949  -1.937   7.399  0.00  0.00    +0.021 A 
BRANCH  18  25
ATOM     24  N   UNL     1       0.759  -1.872   3.695  0.00  0.00    -0.309 N 
ATOM     25  C   UNL     1       1.234  -2.113   4.932  0.00  0.00    +0.244 C 
ATOM     26  O   UNL     1       2.300  -2.680   5.074  0.00  0.00    -0.270 OA
ATOM     27  H   UNL     1      -0.091  -1.419   3.581  0.00  0.00    +0.149 HD
BRANCH  24  28
ATOM     28  C   UNL     1       1.526  -2.293   2.520  0.00  0.00    +0.132 C 
BRANCH  28  29
ATOM     29  C   UNL     1       0.770  -1.902   1.249  0.00  0.00    +0.178 C 
BRANCH  29  30
ATOM     30  O   UNL     1       0.693  -0.477   1.160  0.00  0.00    -0.378 OA
BRANCH  30  32
ATOM     31  C   UNL     1      -0.019   1.526   0.010  0.00  0.00    +0.034 C 
ATOM     32  C   UNL     1       0.002  -0.004   0.002  0.00  0.00    +0.156 C 
ENDBRANCH  30  32
ENDBRANCH  29  30
ENDBRANCH  28  29
ENDBRANCH  24  28
ENDBRANCH  18  25
ENDBRANCH   1  22
BRANCH  14  33
ATOM     33  C   UNL     1       5.681  -0.669  16.027  0.00  0.00    -0.075 C 
ATOM     34  C   UNL     1       6.094   0.798  15.891  0.00  0.00    -0.014 C 
ATOM     35  C   UNL     1       6.155  -1.210  17.377  0.00  0.00    -0.014 C 
ENDBRANCH  14  33
TORSDOF 7
