REMARK  Name = ZINC36597229
REMARK  18 active torsions:
REMARK  status: ('A' for Active; 'I' for Inactive)
REMARK    1  A    between atoms: C_1  and  C_2
REMARK    2  A    between atoms: C_5  and  C_7
REMARK    3  A    between atoms: C_7  and  N_8
REMARK    4  A    between atoms: N_8  and  C_9
REMARK    5  A    between atoms: C_9  and  C_11
REMARK    6  A    between atoms: C_9  and  C_20
REMARK    7  A    between atoms: C_11  and  C_13
REMARK    8  A    between atoms: C_11  and  C_14
REMARK    9  A    between atoms: N_22  and  C_23
REMARK   10  A    between atoms: C_23  and  C_24
REMARK   11  A    between atoms: C_23  and  C_25
REMARK   12  A    between atoms: C_23  and  C_26
REMARK   13  A    between atoms: C_26  and  C_27
REMARK   14  A    between atoms: C_27  and  C_28
REMARK   15  A    between atoms: C_27  and  C_29
REMARK   16  A    between atoms: C_27  and  C_30
REMARK   17  A    between atoms: C_31  and  C_33
REMARK   18  A    between atoms: C_36  and  O_39
REMARK                            x       y       z     vdW  Elec       q    Type
REMARK                         _______ _______ _______ _____ _____    ______ ____
ROOT
ATOM      1  C   UNL     1       3.204  -2.237  -2.927  0.00  0.00    +0.170 C 
ENDROOT
BRANCH   1   2
ATOM      2  C   UNL     1       4.156  -3.397  -2.784  0.00  0.00    +0.235 C 
ATOM      3  O   UNL     1       3.749  -4.533  -2.901  0.00  0.00    -0.274 OA
ATOM      4  N   UNL     1       5.459  -3.171  -2.524  0.00  0.00    -0.309 N 
ATOM      5  H   UNL     1       5.772  -2.266  -2.364  0.00  0.00    +0.149 HD
BRANCH   4   6
ATOM      6  C   UNL     1       6.403  -4.290  -2.485  0.00  0.00    +0.030 C 
ATOM      7  C   UNL     1       6.066  -5.199  -1.301  0.00  0.00    +0.031 C 
ATOM      8  C   UNL     1       6.302  -5.089  -3.786  0.00  0.00    +0.031 C 
BRANCH   6   9
ATOM      9  C   UNL     1       7.826  -3.752  -2.326  0.00  0.00    +0.031 C 
BRANCH   9  10
ATOM     10  C   UNL     1       8.254  -3.051  -3.617  0.00  0.00    -0.036 C 
ATOM     11  C   UNL     1       7.102  -2.186  -4.133  0.00  0.00    +0.010 C 
ATOM     12  C   UNL     1       9.471  -2.168  -3.339  0.00  0.00    +0.010 C 
ATOM     13  C   UNL     1       8.614  -4.101  -4.671  0.00  0.00    +0.010 C 
ENDBRANCH   9  10
ENDBRANCH   6   9
ENDBRANCH   4   6
ENDBRANCH   1   2
BRANCH   1  14
ATOM     14  N   UNL     1       1.901  -2.729  -3.383  0.00  0.00    -0.278 N 
ATOM     15  C   UNL     1       1.386  -2.289  -4.548  0.00  0.00    +0.248 C 
ATOM     16  O   UNL     1       2.029  -1.534  -5.251  0.00  0.00    -0.270 OA
BRANCH  15  17
ATOM     17  C   UNL     1       0.040  -2.723  -4.971  0.00  0.00    +0.037 A 
ATOM     18  C   UNL     1      -0.901  -3.119  -4.016  0.00  0.00    +0.016 A 
ATOM     19  C   UNL     1      -2.155  -3.523  -4.414  0.00  0.00    +0.046 A 
ATOM     20  C   UNL     1      -2.487  -3.539  -5.764  0.00  0.00    +0.117 A 
ATOM     21  C   UNL     1      -1.554  -3.146  -6.717  0.00  0.00    +0.046 A 
ATOM     22  C   UNL     1      -0.299  -2.735  -6.326  0.00  0.00    +0.016 A 
BRANCH  20  23
ATOM     23  O   UNL     1      -3.724  -3.939  -6.152  0.00  0.00    -0.507 OA
ATOM     24  H   UNL     1      -4.371  -3.222  -6.204  0.00  0.00    +0.292 HD
ENDBRANCH  20  23
ENDBRANCH  15  17
BRANCH  14  25
ATOM     25  C   UNL     1       1.159  -3.698  -2.574  0.00  0.00    +0.183 C 
BRANCH  25  30
ATOM     26  C   UNL     1      -0.427  -2.408   2.037  0.00  0.00    +0.086 C 
ATOM     27  C   UNL     1      -0.253  -2.417   0.540  0.00  0.00    +0.102 A 
ATOM     28  C   UNL     1      -0.854  -1.582  -0.326  0.00  0.00    +0.045 A 
ATOM     29  C   UNL     1      -0.409  -1.943  -1.619  0.00  0.00    +0.046 A 
ATOM     30  C   UNL     1       0.436  -2.978  -1.465  0.00  0.00    +0.122 A 
ATOM     31  O   UNL     1       0.531  -3.257  -0.154  0.00  0.00    -0.463 OA
ENDBRANCH  25  30
ENDBRANCH  14  25
ENDBRANCH   1  14
BRANCH   1  32
ATOM     32  C   UNL     1       3.040  -1.541  -1.574  0.00  0.00    +0.045 C 
ATOM     33  C   UNL     1       2.015  -0.413  -1.702  0.00  0.00    +0.015 C 
BRANCH  32  34
ATOM     34  C   UNL     1       4.365  -0.969  -1.140  0.00  0.00    -0.042 A 
ATOM     35  C   UNL     1       4.926   0.083  -1.839  0.00  0.00    +0.004 A 
ATOM     36  C   UNL     1       6.142   0.608  -1.442  0.00  0.00    +0.000 A 
ATOM     37  C   UNL     1       6.796   0.080  -0.344  0.00  0.00    +0.000 A 
ATOM     38  C   UNL     1       6.235  -0.972   0.355  0.00  0.00    +0.000 A 
ATOM     39  C   UNL     1       5.018  -1.494  -0.040  0.00  0.00    +0.004 A 
ENDBRANCH  32  34
ENDBRANCH   1  32
TORSDOF 11
