REMARK  Name = ZINC35062801
REMARK  8 active torsions:
REMARK  status: ('A' for Active; 'I' for Inactive)
REMARK    1  A    between atoms: C_1  and  C_2
REMARK    2  A    between atoms: C_5  and  N_8
REMARK    3  A    between atoms: C_18  and  C_19
REMARK    4  A    between atoms: C_19  and  C_21
REMARK    5  A    between atoms: C_19  and  N_22
REMARK    6  A    between atoms: N_22  and  C_23
REMARK    7  A    between atoms: N_26  and  C_27
REMARK    8  A    between atoms: C_32  and  C_33
REMARK                            x       y       z     vdW  Elec       q    Type
REMARK                         _______ _______ _______ _____ _____    ______ ____
ROOT
ATOM      1  N   UNL     1       1.167  -4.799   0.338  0.00  0.00    -0.263 N 
ATOM      2  C   UNL     1       1.188  -5.432  -0.858  0.00  0.00    +0.266 A 
ATOM      3  O   UNL     1       2.111  -5.284  -1.637  0.00  0.00    -0.267 OA
ATOM      4  C   UNL     1       0.050  -6.306  -1.181  0.00  0.00    +0.065 A 
ATOM      5  C   UNL     1      -0.025  -7.003  -2.385  0.00  0.00    +0.015 A 
ATOM      6  C   UNL     1      -1.114  -7.809  -2.636  0.00  0.00    +0.001 A 
ATOM      7  C   UNL     1      -2.133  -7.931  -1.700  0.00  0.00    +0.002 A 
ATOM      8  C   UNL     1      -2.078  -7.251  -0.504  0.00  0.00    +0.028 A 
ATOM      9  C   UNL     1      -0.984  -6.428  -0.226  0.00  0.00    +0.078 A 
ATOM     10  N   UNL     1      -0.889  -5.741   0.939  0.00  0.00    -0.231 NA
ATOM     11  C   UNL     1       0.130  -4.980   1.200  0.00  0.00    +0.138 A 
ENDROOT
BRANCH   1  16
ATOM     12  C   UNL     1       5.458  -1.378   1.782  0.00  0.00    +0.044 C 
ATOM     13  C   UNL     1       4.319  -2.287   1.399  0.00  0.00    -0.050 A 
ATOM     14  C   UNL     1       3.060  -1.759   1.176  0.00  0.00    +0.005 A 
ATOM     15  C   UNL     1       2.014  -2.589   0.825  0.00  0.00    +0.026 A 
ATOM     16  C   UNL     1       2.227  -3.955   0.694  0.00  0.00    +0.051 A 
ATOM     17  C   UNL     1       3.492  -4.482   0.918  0.00  0.00    +0.026 A 
ATOM     18  C   UNL     1       4.535  -3.646   1.264  0.00  0.00    +0.005 A 
ENDBRANCH   1  16
BRANCH  11  19
ATOM     19  C   UNL     1       0.163  -4.256   2.521  0.00  0.00    +0.141 C 
ATOM     20  C   UNL     1      -1.106  -3.416   2.674  0.00  0.00    +0.036 C 
BRANCH  19  21
ATOM     21  N   UNL     1       0.238  -5.231   3.611  0.00  0.00    -0.279 N 
ATOM     22  C   UNL     1      -0.826  -6.225   3.779  0.00  0.00    +0.134 C 
ATOM     23  C   UNL     1       1.284  -5.215   4.460  0.00  0.00    +0.307 C 
ATOM     24  O   UNL     1       2.167  -4.390   4.321  0.00  0.00    -0.252 OA
ATOM     25  N   UNL     1       1.353  -6.112   5.463  0.00  0.00    -0.269 N 
ATOM     26  H   UNL     1       0.615  -6.722   5.619  0.00  0.00    +0.156 HD
BRANCH  25  27
ATOM     27  C   UNL     1       2.489  -6.165   6.278  0.00  0.00    +0.046 A 
ATOM     28  C   UNL     1       3.709  -5.701   5.803  0.00  0.00    +0.024 A 
ATOM     29  C   UNL     1       4.828  -5.754   6.611  0.00  0.00    +0.002 A 
ATOM     30  C   UNL     1       4.735  -6.269   7.891  0.00  0.00    +0.001 A 
ATOM     31  C   UNL     1       3.522  -6.732   8.367  0.00  0.00    +0.014 A 
ATOM     32  C   UNL     1       2.398  -6.676   7.566  0.00  0.00    +0.076 A 
BRANCH  32  33
ATOM     33  C   UNL     1       1.075  -7.175   8.088  0.00  0.00    +0.419 C 
ATOM     34  F   UNL     1       1.235  -7.638   9.398  0.00  0.00    -0.166 F 
ATOM     35  F   UNL     1       0.143  -6.132   8.072  0.00  0.00    -0.166 F 
ATOM     36  F   UNL     1       0.618  -8.220   7.277  0.00  0.00    -0.166 F 
ENDBRANCH  32  33
ENDBRANCH  25  27
ENDBRANCH  19  21
ENDBRANCH  11  19
TORSDOF 5
