REMARK  Name = ZINC20884671
REMARK  7 active torsions:
REMARK  status: ('A' for Active; 'I' for Inactive)
REMARK    1  A    between atoms: C_1  and  C_2
REMARK    2  A    between atoms: C_2  and  O_3
REMARK    3  A    between atoms: O_3  and  C_4
REMARK    4  A    between atoms: C_7  and  C_12
REMARK    5  A    between atoms: C_9  and  O_10
REMARK    6  A    between atoms: O_10  and  C_11
REMARK    7  A    between atoms: C_17  and  C_23
REMARK                            x       y       z     vdW  Elec       q    Type
REMARK                         _______ _______ _______ _____ _____    ______ ____
ROOT
ATOM      1  C   UNL     1      -1.151   3.289   0.716  0.00  0.00    +0.032 C 
ATOM      2  C   UNL     1      -0.055   4.066  -0.016  0.00  0.00    +0.059 C 
ATOM      3  C   UNL     1       1.225   3.268  -0.005  0.00  0.00    +0.018 C 
ATOM      4  C   UNL     1       1.199   1.919   0.001  0.00  0.00    +0.020 C 
ATOM      5  C   UNL     1       2.494   1.141  -0.000  0.00  0.00    +0.063 C 
ATOM      6  C   UNL     1       3.541   1.896   0.821  0.00  0.00    +0.109 C 
ATOM      7  C   UNL     1       3.557   3.340   0.391  0.00  0.00    +0.218 C 
ATOM      8  O   UNL     1       4.597   3.963   0.403  0.00  0.00    -0.275 OA
ATOM      9  N   UNL     1       2.421   3.940  -0.005  0.00  0.00    -0.289 N 
ATOM     10  C   UNL     1      -0.014   1.211   0.009  0.00  0.00    +0.162 C 
ATOM     11  O   UNL     1       0.002  -0.004   0.002  0.00  0.00    -0.292 OA
ATOM     12  C   UNL     1      -1.335   1.934   0.019  0.00  0.00    +0.088 C 
ATOM     13  H   UNL     1       2.462   4.989  -0.333  0.00  0.00    +0.155 HD
ENDROOT
BRANCH   5  14
ATOM     14  C   UNL     1       2.984   0.982  -1.417  0.00  0.00    -0.039 A 
ATOM     15  C   UNL     1       3.260   2.100  -2.181  0.00  0.00    +0.005 A 
ATOM     16  C   UNL     1       3.714   1.956  -3.479  0.00  0.00    +0.015 A 
ATOM     17  C   UNL     1       3.882   0.692  -4.016  0.00  0.00    +0.018 A 
ATOM     18  C   UNL     1       3.600  -0.426  -3.252  0.00  0.00    +0.015 A 
ATOM     19  C   UNL     1       3.151  -0.281  -1.953  0.00  0.00    +0.005 A 
ATOM     20 BR   UNL     1       4.495   0.493  -5.793  0.00  0.00    -0.050 Br
ENDBRANCH   5  14
BRANCH   1  24
ATOM     21  C   UNL     1      -4.817   5.485   0.556  0.00  0.00    +0.162 A 
ATOM     22  C   UNL     1      -4.197   5.080  -0.615  0.00  0.00    +0.050 A 
ATOM     23  C   UNL     1      -3.012   4.370  -0.560  0.00  0.00    +0.008 A 
ATOM     24  C   UNL     1      -2.443   4.063   0.662  0.00  0.00    -0.040 A 
ATOM     25  C   UNL     1      -3.059   4.460   1.834  0.00  0.00    +0.053 A 
ATOM     26  C   UNL     1      -4.244   5.176   1.786  0.00  0.00    +0.162 A 
BRANCH  26  27
ATOM     27  O   UNL     1      -4.848   5.572   2.938  0.00  0.00    -0.491 OA
ATOM     28  C   UNL     1      -4.203   5.220   4.164  0.00  0.00    +0.277 C 
ENDBRANCH  26  27
BRANCH  21  29
ATOM     29  O   UNL     1      -5.983   6.183   0.504  0.00  0.00    -0.489 OA
BRANCH  29  31
ATOM     30  C   UNL     1      -7.819   7.250  -0.651  0.00  0.00    +0.048 C 
ATOM     31  C   UNL     1      -6.514   6.463  -0.793  0.00  0.00    +0.226 C 
ENDBRANCH  29  31
ENDBRANCH  21  29
ENDBRANCH   1  24
TORSDOF 5
