REMARK  Name = ZINC39909777
REMARK  4 active torsions:
REMARK  status: ('A' for Active; 'I' for Inactive)
REMARK    1  A    between atoms: C_7  and  C_10
REMARK    2  A    between atoms: N_14  and  C_18
REMARK    3  A    between atoms: C_21  and  O_27
REMARK    4  A    between atoms: C_22  and  C_24
REMARK                            x       y       z     vdW  Elec       q    Type
REMARK                         _______ _______ _______ _____ _____    ______ ____
ROOT
ATOM      1  C   UNL     1       1.026  -3.304   1.177  0.00  0.00    +0.026 C 
ATOM      2  C   UNL     1       1.350  -4.508   0.585  0.00  0.00    +0.077 C 
ATOM      3  C   UNL     1       0.629  -5.806   0.621  0.00  0.00    +0.263 C 
ATOM      4  O   UNL     1      -0.413  -5.943   1.233  0.00  0.00    -0.269 OA
ATOM      5  N   UNL     1       1.180  -6.804  -0.049  0.00  0.00    -0.224 N 
ATOM      6  C   UNL     1       2.335  -6.646  -0.726  0.00  0.00    +0.125 C 
ATOM      7  S   UNL     1       3.195  -7.809  -1.643  0.00  0.00    -0.027 S 
ATOM      8  S   UNL     1       2.749  -4.932  -0.444  0.00  0.00    -0.061 S 
ENDROOT
BRANCH   1  15
ATOM      9  C   UNL     1       0.757   0.952   2.714  0.00  0.00    +0.001 A 
ATOM     10  C   UNL     1       1.818   1.764   2.299  0.00  0.00    +0.002 A 
ATOM     11  C   UNL     1       2.813   1.293   1.512  0.00  0.00    +0.026 A 
ATOM     12  C   UNL     1       2.796  -0.064   1.088  0.00  0.00    +0.043 A 
ATOM     13  N   UNL     1       3.627  -0.752   0.336  0.00  0.00    -0.380 N 
ATOM     14  C   UNL     1       3.139  -2.128   0.206  0.00  0.00    +0.149 C 
ATOM     15  C   UNL     1       1.856  -2.194   1.004  0.00  0.00    -0.018 C 
ATOM     16  C   UNL     1       1.676  -0.915   1.530  0.00  0.00    +0.003 A 
ATOM     17  C   UNL     1       0.674  -0.352   2.349  0.00  0.00    +0.010 A 
ATOM     18  H   UNL     1       4.437  -0.403  -0.069  0.00  0.00    +0.160 HD
ENDBRANCH   1  15
BRANCH   5  19
ATOM     19  C   UNL     1       0.549  -8.056  -0.054  0.00  0.00    +0.044 A 
ATOM     20  C   UNL     1       0.855  -8.992   0.930  0.00  0.00    +0.027 A 
ATOM     21  C   UNL     1       0.240 -10.227   0.934  0.00  0.00    +0.048 A 
ATOM     22  C   UNL     1      -0.690 -10.545  -0.045  0.00  0.00    +0.131 A 
ATOM     23  C   UNL     1      -1.005  -9.608  -1.040  0.00  0.00    +0.106 A 
ATOM     24  C   UNL     1      -0.381  -8.356  -1.033  0.00  0.00    +0.042 A 
BRANCH  23  25
ATOM     25  C   UNL     1      -1.990  -9.937  -2.082  0.00  0.00    +0.390 C 
ATOM     26  O   UNL     1      -2.262  -9.117  -2.948  0.00  0.00    -0.240 OA
ATOM     27  O   UNL     1      -2.537 -11.032  -2.082  0.00  0.00    -0.240 OA
ENDBRANCH  23  25
BRANCH  22  28
ATOM     28  O   UNL     1      -1.293 -11.760  -0.040  0.00  0.00    -0.506 OA
ATOM     29  H   UNL     1      -2.114 -11.790   0.470  0.00  0.00    +0.292 HD
ENDBRANCH  22  28
ENDBRANCH   5  19
TORSDOF 4
