REMARK  Name = ZINC08773127
REMARK  5 active torsions:
REMARK  status: ('A' for Active; 'I' for Inactive)
REMARK    1  A    between atoms: C_1  and  C_2
REMARK    2  A    between atoms: C_9  and  C_27
REMARK    3  A    between atoms: C_11  and  C_18
REMARK    4  A    between atoms: C_22  and  N_24
REMARK    5  A    between atoms: C_27  and  C_29
REMARK                            x       y       z     vdW  Elec       q    Type
REMARK                         _______ _______ _______ _____ _____    ______ ____
ROOT
ATOM      1  C   UNL     1       2.115   2.051   7.267  0.00  0.00    +0.044 C 
ATOM      2  C   UNL     1       1.762   2.979   6.133  0.00  0.00    -0.050 A 
ATOM      3  C   UNL     1       1.639   4.338   6.362  0.00  0.00    +0.005 A 
ATOM      4  C   UNL     1       1.317   5.192   5.328  0.00  0.00    +0.024 A 
ATOM      5  C   UNL     1       1.110   4.692   4.044  0.00  0.00    +0.036 A 
ATOM      6  C   UNL     1       1.234   3.324   3.827  0.00  0.00    -0.027 A 
ATOM      7  C   UNL     1       1.558   2.474   4.861  0.00  0.00    +0.008 A 
ATOM      8  C   UNL     1       0.953   3.109   2.364  0.00  0.00    +0.052 C 
ATOM      9  C   UNL     1      -0.254   2.183   2.167  0.00  0.00    +0.069 C 
ATOM     10  C   UNL     1       0.071   1.438   0.853  0.00  0.00    +0.016 C 
ATOM     11  C   UNL     1       1.608   1.448   0.782  0.00  0.00    -0.047 C 
ATOM     12  C   UNL     1       2.946   3.541   1.068  0.00  0.00    -0.005 C 
ATOM     13  S   UNL     1       3.538   2.686  -0.458  0.00  0.00    -0.181 S 
ATOM     14  C   UNL     1       2.031   1.628  -0.694  0.00  0.00    +0.052 C 
ATOM     15  C   UNL     1       0.670   4.486   1.820  0.00  0.00    +0.212 C 
ATOM     16  O   UNL     1       0.396   4.768   0.673  0.00  0.00    -0.277 OA
ATOM     17  N   UNL     1       0.780   5.342   2.853  0.00  0.00    -0.286 N 
ATOM     18  H   UNL     1       0.646   6.300   2.779  0.00  0.00    +0.155 HD
ATOM     19  N   UNL     1       2.101   2.479   1.734  0.00  0.00    +0.401 N 
ATOM     20  H   UNL     1       2.670   2.015   2.451  0.00  0.00    -0.078 HD
ENDROOT
BRANCH  10  21
ATOM     21  C   UNL     1      -0.445   0.023   0.907  0.00  0.00    -0.043 A 
ATOM     22  C   UNL     1       0.329  -0.974   1.472  0.00  0.00    +0.004 A 
ATOM     23  C   UNL     1      -0.146  -2.270   1.527  0.00  0.00    +0.002 A 
ATOM     24  C   UNL     1      -1.391  -2.572   1.007  0.00  0.00    +0.033 A 
ATOM     25  C   UNL     1      -2.162  -1.577   0.437  0.00  0.00    +0.126 A 
ATOM     26  C   UNL     1      -1.689  -0.279   0.387  0.00  0.00    +0.036 A 
BRANCH  25  27
ATOM     27  N   UNL     1      -3.495  -1.901  -0.120  0.00  0.00    +0.056 N 
ATOM     28  O   UNL     1      -4.175  -1.024  -0.622  0.00  0.00    -0.126 OA
ATOM     29  O   UNL     1      -3.912  -3.044  -0.076  0.00  0.00    -0.126 OA
ENDBRANCH  25  27
ENDBRANCH  10  21
BRANCH   9  30
ATOM     30  C   UNL     1      -0.369   1.212   3.313  0.00  0.00    +0.166 C 
ATOM     31  O   UNL     1       0.505   0.394   3.505  0.00  0.00    -0.292 OA
BRANCH  30  32
ATOM     32  C   UNL     1      -1.543   1.256   4.200  0.00  0.00    +0.018 A 
ATOM     33  C   UNL     1      -2.551   2.201   3.986  0.00  0.00    +0.011 A 
ATOM     34  C   UNL     1      -3.649   2.233   4.819  0.00  0.00    +0.001 A 
ATOM     35  C   UNL     1      -3.752   1.339   5.870  0.00  0.00    +0.000 A 
ATOM     36  C   UNL     1      -2.756   0.403   6.091  0.00  0.00    +0.001 A 
ATOM     37  C   UNL     1      -1.654   0.355   5.264  0.00  0.00    +0.011 A 
ENDBRANCH  30  32
ENDBRANCH   9  30
TORSDOF 4
