REMARK  Name = ZINC14607721
REMARK  4 active torsions:
REMARK  status: ('A' for Active; 'I' for Inactive)
REMARK    1  A    between atoms: C_1  and  C_2
REMARK    2  A    between atoms: C_3  and  C_24
REMARK    3  A    between atoms: C_12  and  C_17
REMARK    4  A    between atoms: C_22  and  O_23
REMARK                            x       y       z     vdW  Elec       q    Type
REMARK                         _______ _______ _______ _____ _____    ______ ____
ROOT
ATOM      1  C   UNL     1      -2.583   1.805   0.022  0.00  0.00    +0.068 C 
ATOM      2  C   UNL     1      -1.157   2.293   0.019  0.00  0.00    +0.070 A 
ATOM      3  C   UNL     1      -0.018   1.478   0.010  0.00  0.00    +0.051 A 
ATOM      4  C   UNL     1       1.095   2.321   0.004  0.00  0.00    +0.186 A 
ATOM      5  N   UNL     1       2.414   2.094  -0.009  0.00  0.00    -0.128 NA
ATOM      6  N   UNL     1       3.258   3.065  -0.013  0.00  0.00    -0.142 NA
ATOM      7  C   UNL     1       2.849   4.348  -0.006  0.00  0.00    +0.150 A 
ATOM      8  C   UNL     1       1.502   4.645   0.013  0.00  0.00    +0.076 A 
ATOM      9  N   UNL     1       0.615   3.609   0.015  0.00  0.00    -0.214 N 
ATOM     10  N   UNL     1      -0.781   3.549   0.029  0.00  0.00    -0.169 NA
ATOM     11  C   UNL     1       0.996   6.059   0.037  0.00  0.00    +0.066 C 
ATOM     12  C   UNL     1       2.040   7.030  -0.507  0.00  0.00    +0.036 C 
ATOM     13  C   UNL     1       3.356   6.841   0.260  0.00  0.00    +0.090 C 
ATOM     14  C   UNL     1       3.844   5.434  -0.019  0.00  0.00    +0.185 C 
ATOM     15  O   UNL     1       5.014   5.210  -0.245  0.00  0.00    -0.290 OA
ENDROOT
BRANCH   3  16
ATOM     16  C   UNL     1       0.002  -0.004   0.002  0.00  0.00    -0.012 A 
ATOM     17  C   UNL     1       0.506  -0.691  -1.102  0.00  0.00    +0.011 A 
ATOM     18  C   UNL     1       0.526  -2.070  -1.103  0.00  0.00    +0.039 A 
ATOM     19  C   UNL     1       0.038  -2.773  -0.014  0.00  0.00    +0.123 A 
ATOM     20  C   UNL     1      -0.467  -2.096   1.084  0.00  0.00    +0.039 A 
ATOM     21  C   UNL     1      -0.488  -0.716   1.096  0.00  0.00    +0.011 A 
ATOM     22  F   UNL     1       0.056  -4.124  -0.021  0.00  0.00    -0.205 F 
ENDBRANCH   3  16
BRANCH  12  23
ATOM     23  C   UNL     1       1.553   8.445  -0.329  0.00  0.00    -0.002 A 
ATOM     24  C   UNL     1       1.274   8.926   0.936  0.00  0.00    +0.007 A 
ATOM     25  C   UNL     1       0.827  10.224   1.100  0.00  0.00    +0.001 A 
ATOM     26  C   UNL     1       0.658  11.044  -0.001  0.00  0.00    +0.004 A 
ATOM     27  C   UNL     1       0.936  10.568  -1.267  0.00  0.00    +0.046 A 
ATOM     28  C   UNL     1       1.390   9.267  -1.434  0.00  0.00    +0.120 A 
BRANCH  28  29
ATOM     29  O   UNL     1       1.670   8.799  -2.679  0.00  0.00    -0.506 OA
ATOM     30  H   UNL     1       0.916   8.386  -3.122  0.00  0.00    +0.292 HD
ENDBRANCH  28  29
ENDBRANCH  12  23
TORSDOF 3
