REMARK  Name = ZINC60339684
REMARK  13 active torsions:
REMARK  status: ('A' for Active; 'I' for Inactive)
REMARK    1  A    between atoms: C_1  and  C_2
REMARK    2  A    between atoms: C_2  and  C_4
REMARK    3  A    between atoms: C_2  and  N_18
REMARK    4  A    between atoms: N_6  and  C_7
REMARK    5  A    between atoms: C_12  and  C_13
REMARK    6  A    between atoms: C_22  and  C_25
REMARK    7  A    between atoms: C_25  and  N_26
REMARK    8  A    between atoms: N_26  and  C_27
REMARK    9  A    between atoms: C_28  and  O_30
REMARK   10  A    between atoms: O_30  and  C_31
REMARK   11  A    between atoms: C_31  and  C_32
REMARK   12  A    between atoms: C_31  and  C_33
REMARK   13  A    between atoms: C_31  and  C_34
REMARK                            x       y       z     vdW  Elec       q    Type
REMARK                         _______ _______ _______ _____ _____    ______ ____
ROOT
ATOM      1  C   UNL     1      -0.119   1.531   0.266  0.00  0.00    -0.004 C 
ATOM      2  C   UNL     1      -0.030   0.022   0.030  0.00  0.00    +0.016 C 
ENDROOT
BRANCH   2   3
ATOM      3  N   UNL     1       0.589  -0.621   1.197  0.00  0.00    +0.387 N 
ATOM      4  C   UNL     1       0.563  -2.078   1.022  0.00  0.00    -0.078 C 
ATOM      5  C   UNL     1       1.278  -2.749   2.196  0.00  0.00    -0.018 C 
ATOM      6  C   UNL     1       0.567  -2.378   3.500  0.00  0.00    +0.001 C 
ATOM      7  C   UNL     1       0.534  -0.853   3.636  0.00  0.00    -0.010 C 
ATOM      8  C   UNL     1      -0.154  -0.252   2.408  0.00  0.00    -0.073 C 
ATOM      9  H   UNL     1       1.545  -0.311   1.282  0.00  0.00    -0.081 HD
BRANCH   7  10
ATOM     10  C   UNL     1      -0.242  -0.468   4.897  0.00  0.00    +0.112 C 
BRANCH  10  11
ATOM     11  N   UNL     1       0.479  -0.946   6.079  0.00  0.00    -0.270 N 
ATOM     12  C   UNL     1       1.474  -0.089   6.726  0.00  0.00    +0.135 C 
ATOM     13  C   UNL     1       0.227  -2.176   6.571  0.00  0.00    +0.403 C 
ATOM     14  O   UNL     1      -0.599  -2.887   6.034  0.00  0.00    -0.226 OA
BRANCH  13  15
ATOM     15  O   UNL     1       0.889  -2.615   7.657  0.00  0.00    -0.445 OA
BRANCH  15  16
ATOM     16  C   UNL     1       0.571  -3.928   8.124  0.00  0.00    +0.107 C 
ATOM     17  C   UNL     1       0.867  -4.947   7.021  0.00  0.00    +0.055 C 
ATOM     18  C   UNL     1       1.418  -4.250   9.357  0.00  0.00    +0.055 C 
ATOM     19  C   UNL     1      -0.912  -3.993   8.493  0.00  0.00    +0.055 C 
ENDBRANCH  15  16
ENDBRANCH  13  15
ENDBRANCH  10  11
ENDBRANCH   7  10
ENDBRANCH   2   3
BRANCH   2  20
ATOM     20  C   UNL     1       0.807  -0.246  -1.194  0.00  0.00    +0.203 C 
ATOM     21  O   UNL     1       1.928  -0.693  -1.076  0.00  0.00    -0.277 OA
ATOM     22  N   UNL     1       0.310   0.011  -2.420  0.00  0.00    -0.286 N 
ATOM     23  H   UNL     1      -0.556   0.439  -2.513  0.00  0.00    +0.155 HD
BRANCH  22  24
ATOM     24  C   UNL     1       1.042  -0.339  -3.560  0.00  0.00    +0.045 A 
ATOM     25  C   UNL     1       2.430  -0.275  -3.542  0.00  0.00    +0.025 A 
ATOM     26  C   UNL     1       3.150  -0.621  -4.668  0.00  0.00    +0.022 A 
ATOM     27  C   UNL     1       2.491  -1.032  -5.814  0.00  0.00    +0.042 A 
ATOM     28  C   UNL     1       1.109  -1.097  -5.834  0.00  0.00    +0.034 A 
ATOM     29  C   UNL     1       0.384  -0.757  -4.709  0.00  0.00    +0.077 A 
ATOM     30 CL   UNL     1       3.400  -1.465  -7.228  0.00  0.00    -0.084 Cl
BRANCH  29  31
ATOM     31  C   UNL     1      -1.121  -0.835  -4.730  0.00  0.00    +0.419 C 
ATOM     32  F   UNL     1      -1.548  -1.278  -5.986  0.00  0.00    -0.166 F 
ATOM     33  F   UNL     1      -1.556  -1.730  -3.746  0.00  0.00    -0.166 F 
ATOM     34  F   UNL     1      -1.656   0.433  -4.476  0.00  0.00    -0.166 F 
ENDBRANCH  29  31
ENDBRANCH  22  24
ENDBRANCH   2  20
TORSDOF 8
