REMARK  Name = ZINC42076034
REMARK  4 active torsions:
REMARK  status: ('A' for Active; 'I' for Inactive)
REMARK    1  A    between atoms: C_1  and  C_2
REMARK    2  A    between atoms: C_7  and  C_8
REMARK    3  A    between atoms: C_12  and  N_14
REMARK    4  A    between atoms: N_14  and  C_15
REMARK                            x       y       z     vdW  Elec       q    Type
REMARK                         _______ _______ _______ _____ _____    ______ ____
ROOT
ATOM      1  C   UNL     1      -0.018   1.503   0.010  0.00  0.00    +0.044 C 
ATOM      2  C   UNL     1       0.002  -0.004   0.002  0.00  0.00    -0.046 A 
ATOM      3  C   UNL     1       0.006  -0.685  -1.202  0.00  0.00    +0.004 A 
ATOM      4  C   UNL     1       0.024  -2.069  -1.210  0.00  0.00    +0.008 A 
ATOM      5  C   UNL     1       0.039  -2.762  -0.020  0.00  0.00    -0.000 A 
ATOM      6  C   UNL     1       0.036  -2.090   1.195  0.00  0.00    +0.042 A 
ATOM      7  C   UNL     1       0.023  -0.696   1.195  0.00  0.00    -0.026 A 
ATOM      8  C   UNL     1       0.025   0.056   2.501  0.00  0.00    +0.046 C 
ATOM      9  N   UNL     1       0.053  -3.002   2.251  0.00  0.00    -0.283 N 
ATOM     10  C   UNL     1       0.069  -4.275   1.823  0.00  0.00    +0.239 C 
ATOM     11  O   UNL     1       0.086  -5.269   2.518  0.00  0.00    -0.273 OA
ATOM     12  C   UNL     1       0.061  -4.237   0.310  0.00  0.00    +0.173 C 
ATOM     13  H   UNL     1       0.055  -2.746   3.187  0.00  0.00    +0.155 HD
ENDROOT
BRANCH  12  14
ATOM     14  N   UNL     1       1.275  -4.867  -0.228  0.00  0.00    -0.301 NA
ATOM     15  H   UNL     1       1.577  -4.407  -1.073  0.00  0.00    +0.123 HD
BRANCH  14  16
ATOM     16  C   UNL     1       1.066  -6.303  -0.455  0.00  0.00    +0.039 C 
ATOM     17  C   UNL     1       1.410  -7.116   0.820  0.00  0.00    -0.002 C 
ATOM     18  C   UNL     1       1.791  -8.492   0.220  0.00  0.00    -0.077 C 
ATOM     19  N   UNL     1       2.515  -8.171  -1.028  0.00  0.00    +0.383 N 
ATOM     20  C   UNL     1       2.066  -6.840  -1.499  0.00  0.00    -0.051 C 
ATOM     21  C   UNL     1       3.306  -5.923  -1.523  0.00  0.00    -0.016 C 
ATOM     22  C   UNL     1       4.483  -6.929  -1.619  0.00  0.00    -0.020 C 
ATOM     23  C   UNL     1       3.964  -8.104  -0.742  0.00  0.00    -0.078 C 
ATOM     24  H   UNL     1       2.329  -8.871  -1.730  0.00  0.00    -0.081 HD
ENDBRANCH  14  16
ENDBRANCH  12  14
TORSDOF 2
