REMARK  Name = ZINC39677957
REMARK  6 active torsions:
REMARK  status: ('A' for Active; 'I' for Inactive)
REMARK    1  A    between atoms: C_4  and  C_7
REMARK    2  A    between atoms: C_7  and  N_8
REMARK    3  A    between atoms: C_12  and  C_15
REMARK    4  A    between atoms: C_15  and  N_16
REMARK    5  A    between atoms: C_17  and  C_19
REMARK    6  A    between atoms: C_30  and  C_32
REMARK                            x       y       z     vdW  Elec       q    Type
REMARK                         _______ _______ _______ _____ _____    ______ ____
ROOT
ATOM      1  C   UNL     1       9.367  -3.549   6.323  0.00  0.00    +0.100 C 
ATOM      2  C   UNL     1       9.512  -2.094   6.823  0.00  0.00    +0.121 C 
ATOM      3  N   UNL     1      10.761  -2.095   7.621  0.00  0.00    -0.296 N 
ATOM      4  C   UNL     1      11.684  -2.969   6.859  0.00  0.00    +0.115 C 
ATOM      5  C   UNL     1      10.795  -4.119   6.348  0.00  0.00    -0.004 C 
ATOM      6  C   UNL     1      11.223  -4.532   4.943  0.00  0.00    -0.010 C 
ATOM      7  C   UNL     1      12.623  -5.150   5.002  0.00  0.00    -0.082 C 
ATOM      8  N   UNL     1      12.608  -6.317   5.893  0.00  0.00    +0.379 N 
ATOM      9  C   UNL     1      12.285  -5.896   7.262  0.00  0.00    -0.082 C 
ATOM     10  C   UNL     1      10.871  -5.310   7.298  0.00  0.00    -0.010 C 
ATOM     11  C   UNL     1      11.001  -1.449   8.779  0.00  0.00    +0.248 C 
ATOM     12  O   UNL     1      12.115  -1.474   9.270  0.00  0.00    -0.270 OA
ATOM     13  H   UNL     1      11.913  -6.974   5.572  0.00  0.00    -0.086 HD
ATOM     14  H   UNL     1      13.515  -6.758   5.883  0.00  0.00    -0.086 HD
ENDROOT
BRANCH  11  15
ATOM     15  C   UNL     1       9.920  -0.715   9.449  0.00  0.00    +0.052 A 
ATOM     16  C   UNL     1       8.958  -0.078   8.732  0.00  0.00    +0.059 A 
ATOM     17  S   UNL     1       7.942   0.618   9.870  0.00  0.00    -0.096 S 
ATOM     18  C   UNL     1       8.742   0.101  11.364  0.00  0.00    +0.020 A 
ATOM     19  C   UNL     1       9.842  -0.651  10.910  0.00  0.00    +0.001 A 
ATOM     20  C   UNL     1      10.687  -1.213  11.887  0.00  0.00    +0.010 A 
ATOM     21  C   UNL     1      10.425  -1.027  13.221  0.00  0.00    +0.001 A 
ATOM     22  C   UNL     1       9.331  -0.286  13.643  0.00  0.00    +0.001 A 
ATOM     23  C   UNL     1       8.491   0.286  12.707  0.00  0.00    +0.015 A 
ENDBRANCH  11  15
BRANCH   1  25
ATOM     24  N   UNL     1       8.085  -4.618   4.498  0.00  0.00    -0.313 N 
ATOM     25  C   UNL     1       8.818  -3.569   4.920  0.00  0.00    +0.218 C 
ATOM     26  O   UNL     1       9.036  -2.641   4.170  0.00  0.00    -0.275 OA
ATOM     27  H   UNL     1       7.910  -5.360   5.097  0.00  0.00    +0.149 HD
BRANCH  24  28
ATOM     28  C   UNL     1       7.551  -4.638   3.134  0.00  0.00    +0.137 C 
BRANCH  28  33
ATOM     29  N   UNL     1       5.518  -7.232   1.256  0.00  0.00    -0.293 NA
ATOM     30  C   UNL     1       6.434  -8.364   1.460  0.00  0.00    +0.113 C 
ATOM     31  C   UNL     1       6.986  -8.315   2.887  0.00  0.00    +0.175 C 
ATOM     32  O   UNL     1       7.626  -7.054   3.103  0.00  0.00    -0.372 OA
ATOM     33  C   UNL     1       6.763  -5.930   2.913  0.00  0.00    +0.149 C 
ATOM     34  C   UNL     1       6.208  -5.955   1.486  0.00  0.00    +0.118 C 
BRANCH  29  35
ATOM     35  C   UNL     1       4.921  -7.273  -0.086  0.00  0.00    +0.119 C 
BRANCH  35  39
ATOM     36  C   UNL     1       2.373 -10.687  -0.408  0.00  0.00    +0.000 A 
ATOM     37  C   UNL     1       1.861  -9.482   0.036  0.00  0.00    +0.000 A 
ATOM     38  C   UNL     1       2.686  -8.378   0.140  0.00  0.00    +0.005 A 
ATOM     39  C   UNL     1       4.022  -8.478  -0.199  0.00  0.00    -0.033 A 
ATOM     40  C   UNL     1       4.534  -9.683  -0.642  0.00  0.00    +0.005 A 
ATOM     41  C   UNL     1       3.709 -10.787  -0.748  0.00  0.00    +0.000 A 
ENDBRANCH  35  39
ENDBRANCH  29  35
ENDBRANCH  28  33
ENDBRANCH  24  28
ENDBRANCH   1  25
TORSDOF 6
