REMARK  Name = ZINC19715620
REMARK  7 active torsions:
REMARK  status: ('A' for Active; 'I' for Inactive)
REMARK    1  A    between atoms: C_1  and  C_2
REMARK    2  A    between atoms: C_2  and  C_3
REMARK    3  A    between atoms: C_2  and  C_4
REMARK    4  A    between atoms: C_2  and  C_5
REMARK    5  A    between atoms: C_11  and  C_14
REMARK    6  A    between atoms: C_19  and  C_22
REMARK    7  A    between atoms: C_22  and  C_23
REMARK                            x       y       z     vdW  Elec       q    Type
REMARK                         _______ _______ _______ _____ _____    ______ ____
ROOT
ATOM      1  C   UNL     1       2.154   5.289   0.010  0.00  0.00    +0.272 C 
ATOM      2  O   UNL     1       2.965   4.384  -0.003  0.00  0.00    -0.268 OA
ATOM      3  N   UNL     1       0.835   5.012   0.021  0.00  0.00    -0.259 N 
ATOM      4  C   UNL     1       0.403   3.692   0.018  0.00  0.00    +0.165 A 
ATOM      5  N   UNL     1      -0.830   3.223   0.027  0.00  0.00    -0.229 NA
ATOM      6  C   UNL     1      -1.068   1.927   0.017  0.00  0.00    +0.059 A 
ATOM      7  C   UNL     1      -0.013   1.076   0.008  0.00  0.00    +0.072 A 
ATOM      8  S   UNL     1       1.348   2.235   0.001  0.00  0.00    -0.060 S 
ATOM      9  H   UNL     1       0.101   5.831   0.033  0.00  0.00    +0.157 HD
ENDROOT
BRANCH   1  15
ATOM     10  C   UNL     1       6.361   7.364  -0.428  0.00  0.00    -0.001 C 
ATOM     11  C   UNL     1       6.271   8.638   0.416  0.00  0.00    +0.012 C 
ATOM     12  C   UNL     1       5.026   9.439   0.013  0.00  0.00    +0.078 C 
ATOM     13  C   UNL     1       3.843   8.508   0.014  0.00  0.00    +0.141 A 
ATOM     14  C   UNL     1       3.948   7.158   0.009  0.00  0.00    +0.027 A 
ATOM     15  C   UNL     1       2.615   6.698   0.014  0.00  0.00    +0.171 A 
ATOM     16  N   UNL     1       1.867   7.779   0.028  0.00  0.00    -0.073 NA
ATOM     17  O   UNL     1       2.541   8.789   0.028  0.00  0.00    -0.359 OA
ATOM     18  C   UNL     1       5.241   6.397  -0.017  0.00  0.00    +0.045 C 
BRANCH  10  20
ATOM     19  C   UNL     1       7.871   6.340   1.280  0.00  0.00    +0.011 C 
ATOM     20  C   UNL     1       7.719   6.696  -0.201  0.00  0.00    -0.035 C 
ATOM     21  C   UNL     1       7.809   5.423  -1.044  0.00  0.00    +0.011 C 
ATOM     22  C   UNL     1       8.835   7.659  -0.610  0.00  0.00    +0.011 C 
ENDBRANCH  10  20
ENDBRANCH   1  15
BRANCH   6  23
ATOM     23  C   UNL     1      -2.481   1.402   0.019  0.00  0.00    +0.151 C 
BRANCH  23  24
ATOM     24  C   UNL     1      -3.231   1.985   1.189  0.00  0.00    +0.216 C 
ATOM     25  O   UNL     1      -2.673   2.751   1.946  0.00  0.00    -0.276 OA
ATOM     26  N   UNL     1      -4.522   1.655   1.394  0.00  0.00    -0.329 N 
ATOM     27  H   UNL     1      -5.069   2.081   2.248  0.00  0.00    +0.145 HD
ATOM     28  H   UNL     1      -5.027   0.961   0.707  0.00  0.00    +0.145 HD
ENDBRANCH  23  24
ENDBRANCH   6  23
TORSDOF 4
