REMARK  Name = ZINC39324893
REMARK  8 active torsions:
REMARK  status: ('A' for Active; 'I' for Inactive)
REMARK    1  A    between atoms: C_1  and  O_2
REMARK    2  A    between atoms: O_2  and  C_3
REMARK    3  A    between atoms: C_10  and  C_15
REMARK    4  A    between atoms: C_15  and  N_16
REMARK    5  A    between atoms: N_16  and  C_17
REMARK    6  A    between atoms: N_16  and  S_24
REMARK    7  A    between atoms: C_17  and  C_18
REMARK    8  A    between atoms: S_24  and  C_27
REMARK                            x       y       z     vdW  Elec       q    Type
REMARK                         _______ _______ _______ _____ _____    ______ ____
ROOT
ATOM      1  N   UNL     1       1.967  -6.224   5.414  0.00  0.00    -0.171 NA
ENDROOT
BRANCH   1   2
ATOM      2  S   UNL     1       2.590  -7.679   4.927  0.00  0.00    +0.063 S 
ATOM      3  O   UNL     1       2.885  -8.411   6.109  0.00  0.00    -0.153 OA
ATOM      4  O   UNL     1       1.720  -8.177   3.920  0.00  0.00    -0.153 OA
BRANCH   2   5
ATOM      5  C   UNL     1       4.132  -7.348   4.142  0.00  0.00    +0.134 A 
ATOM      6  C   UNL     1       5.283  -7.791   4.700  0.00  0.00    +0.031 A 
ATOM      7  C   UNL     1       6.522  -7.548   4.107  0.00  0.00    +0.004 A 
ATOM      8  C   UNL     1       6.627  -6.859   2.946  0.00  0.00    +0.031 A 
ATOM      9  C   UNL     1       5.461  -6.364   2.303  0.00  0.00    +0.102 A 
ATOM     10  C   UNL     1       4.165  -6.623   2.920  0.00  0.00    +0.126 A 
ATOM     11  N   UNL     1       3.143  -6.118   2.228  0.00  0.00    -0.189 NA
ATOM     12  S   UNL     1       3.800  -5.409   0.941  0.00  0.00    +0.117 S 
ATOM     13  N   UNL     1       5.371  -5.672   1.166  0.00  0.00    -0.191 NA
ENDBRANCH   2   5
ENDBRANCH   1   2
BRANCH   1  14
ATOM     14  C   UNL     1       0.969  -5.541   4.588  0.00  0.00    +0.126 C 
BRANCH  14  22
ATOM     15  C   UNL     1      -4.430  -5.445   2.368  0.00  0.00    +0.121 A 
ATOM     16  C   UNL     1      -4.531  -6.840   2.433  0.00  0.00    +0.047 A 
ATOM     17  C   UNL     1      -3.644  -7.607   3.116  0.00  0.00    +0.027 A 
ATOM     18  C   UNL     1      -2.566  -7.016   3.802  0.00  0.00    +0.041 A 
ATOM     19  N   UNL     1      -1.702  -7.781   4.469  0.00  0.00    -0.284 N 
ATOM     20  C   UNL     1      -0.668  -7.293   5.134  0.00  0.00    +0.225 C 
ATOM     21  O   UNL     1       0.087  -8.042   5.724  0.00  0.00    -0.275 OA
ATOM     22  C   UNL     1      -0.428  -5.800   5.156  0.00  0.00    +0.114 C 
ATOM     23  C   UNL     1      -1.407  -4.925   4.398  0.00  0.00    -0.003 C 
ATOM     24  C   UNL     1      -2.433  -5.549   3.752  0.00  0.00    -0.004 A 
ATOM     25  C   UNL     1      -3.419  -4.780   2.993  0.00  0.00    +0.055 A 
ATOM     26  H   UNL     1      -1.839  -8.741   4.468  0.00  0.00    +0.155 HD
BRANCH  15  28
ATOM     27  C   UNL     1      -6.394  -5.490   1.029  0.00  0.00    +0.277 C 
ATOM     28  O   UNL     1      -5.355  -4.741   1.664  0.00  0.00    -0.495 OA
ENDBRANCH  15  28
ENDBRANCH  14  22
ENDBRANCH   1  14
BRANCH   1  29
ATOM     29  C   UNL     1       2.414  -5.620   6.672  0.00  0.00    +0.144 C 
BRANCH  29  30
ATOM     30  C   UNL     1       1.479  -6.023   7.783  0.00  0.00    -0.032 A 
ATOM     31  C   UNL     1       0.369  -5.249   8.068  0.00  0.00    +0.005 A 
ATOM     32  C   UNL     1      -0.489  -5.619   9.086  0.00  0.00    +0.000 A 
ATOM     33  C   UNL     1      -0.237  -6.763   9.821  0.00  0.00    +0.000 A 
ATOM     34  C   UNL     1       0.872  -7.537   9.536  0.00  0.00    +0.000 A 
ATOM     35  C   UNL     1       1.727  -7.170   8.514  0.00  0.00    +0.005 A 
ENDBRANCH  29  30
ENDBRANCH   1  29
TORSDOF 7
