REMARK  Name = ZINC33809864
REMARK  9 active torsions:
REMARK  status: ('A' for Active; 'I' for Inactive)
REMARK    1  A    between atoms: C_1  and  C_2
REMARK    2  A    between atoms: C_2  and  O_3
REMARK    3  A    between atoms: O_3  and  C_4
REMARK    4  A    between atoms: C_9  and  C_15
REMARK    5  A    between atoms: N_17  and  C_18
REMARK    6  A    between atoms: C_21  and  C_25
REMARK    7  A    between atoms: C_23  and  C_24
REMARK    8  A    between atoms: C_25  and  C_27
REMARK    9  A    between atoms: C_25  and  C_29
REMARK                            x       y       z     vdW  Elec       q    Type
REMARK                         _______ _______ _______ _____ _____    ______ ____
ROOT
ATOM      1  C   UNL     1      -5.646   1.541  -1.325  0.00  0.00    +0.255 C 
ATOM      2  O   UNL     1      -6.710   1.791  -1.859  0.00  0.00    -0.270 OA
ATOM      3  N   UNL     1      -5.511   0.428  -0.578  0.00  0.00    -0.281 N 
ATOM      4  H   UNL     1      -4.527   0.157  -0.167  0.00  0.00    +0.155 HD
ENDROOT
BRANCH   1  10
ATOM      5  C   UNL     1      -0.115   4.854  -1.457  0.00  0.00    +0.124 A 
ATOM      6  C   UNL     1       0.061   3.712  -0.676  0.00  0.00    +0.046 A 
ATOM      7  C   UNL     1      -0.968   2.839  -0.490  0.00  0.00    +0.015 A 
ATOM      8  C   UNL     1      -2.214   3.084  -1.091  0.00  0.00    +0.019 A 
ATOM      9  C   UNL     1      -3.286   2.182  -0.895  0.00  0.00    +0.031 A 
ATOM     10  C   UNL     1      -4.505   2.455  -1.497  0.00  0.00    +0.122 A 
ATOM     11  C   UNL     1      -4.636   3.670  -2.308  0.00  0.00    +0.350 A 
ATOM     12  O   UNL     1      -5.697   3.928  -2.845  0.00  0.00    -0.244 OA
ATOM     13  O   UNL     1      -3.589   4.497  -2.458  0.00  0.00    -0.422 OA
ATOM     14  C   UNL     1      -2.398   4.239  -1.875  0.00  0.00    +0.143 A 
ATOM     15  C   UNL     1      -1.338   5.116  -2.053  0.00  0.00    +0.092 A 
BRANCH   5  16
ATOM     16  O   UNL     1       0.918   5.715  -1.634  0.00  0.00    -0.492 OA
BRANCH  16  18
ATOM     17  C   UNL     1       3.191   6.467  -1.304  0.00  0.00    +0.048 C 
ATOM     18  C   UNL     1       2.152   5.388  -0.992  0.00  0.00    +0.225 C 
ENDBRANCH  16  18
ENDBRANCH   5  16
ENDBRANCH   1  10
BRANCH   3  19
ATOM     19  C   UNL     1      -6.622  -0.382  -0.323  0.00  0.00    +0.038 A 
ATOM     20  C   UNL     1      -7.902   0.158  -0.369  0.00  0.00    +0.044 A 
ATOM     21  C   UNL     1      -8.998  -0.646  -0.122  0.00  0.00    +0.047 A 
ATOM     22  C   UNL     1      -8.821  -1.985   0.182  0.00  0.00    -0.008 A 
ATOM     23  C   UNL     1      -7.549  -2.523   0.233  0.00  0.00    +0.011 A 
ATOM     24  C   UNL     1      -6.449  -1.725  -0.018  0.00  0.00    -0.029 A 
ATOM     25  C   UNL     1      -5.063  -2.313   0.038  0.00  0.00    +0.045 C 
ATOM     26 CL   UNL     1     -10.598   0.025  -0.185  0.00  0.00    -0.083 Cl
BRANCH  22  27
ATOM     27  C   UNL     1     -10.018  -2.858   0.457  0.00  0.00    +0.153 C 
BRANCH  27  28
ATOM     28  C   UNL     1     -10.153  -3.886  -0.637  0.00  0.00    -0.026 A 
ATOM     29  C   UNL     1      -9.194  -4.871  -0.781  0.00  0.00    +0.006 A 
ATOM     30  C   UNL     1      -9.320  -5.817  -1.781  0.00  0.00    +0.020 A 
ATOM     31  C   UNL     1     -10.400  -5.771  -2.644  0.00  0.00    +0.041 A 
ATOM     32  C   UNL     1     -11.357  -4.782  -2.502  0.00  0.00    +0.020 A 
ATOM     33  C   UNL     1     -11.233  -3.840  -1.499  0.00  0.00    +0.006 A 
ATOM     34 CL   UNL     1     -10.556  -6.955  -3.904  0.00  0.00    -0.084 Cl
ENDBRANCH  27  28
BRANCH  27  35
ATOM     35  C   UNL     1      -9.842  -3.539   1.751  0.00  0.00    +0.075 C 
ATOM     36  N   UNL     1      -9.706  -4.064   2.749  0.00  0.00    -0.196 NA
ENDBRANCH  27  35
ENDBRANCH  22  27
ENDBRANCH   3  19
TORSDOF 7
