REMARK  Name = ZINC33728305
REMARK  7 active torsions:
REMARK  status: ('A' for Active; 'I' for Inactive)
REMARK    1  A    between atoms: C_6  and  C_7
REMARK    2  A    between atoms: C_10  and  C_15
REMARK    3  A    between atoms: C_15  and  C_16
REMARK    4  A    between atoms: C_16  and  N_17
REMARK    5  A    between atoms: N_17  and  C_18
REMARK    6  A    between atoms: C_18  and  C_19
REMARK    7  A    between atoms: N_27  and  C_28
REMARK                            x       y       z     vdW  Elec       q    Type
REMARK                         _______ _______ _______ _____ _____    ______ ____
ROOT
ATOM      1  C   UNL     1      -4.778   4.094  -1.143  0.00  0.00    +0.115 C 
ENDROOT
BRANCH   1   2
ATOM      2  N   UNL     1      -3.396   4.391  -0.757  0.00  0.00    -0.283 N 
ATOM      3  C   UNL     1      -3.144   5.334   0.172  0.00  0.00    +0.303 C 
ATOM      4  O   UNL     1      -4.063   5.939   0.690  0.00  0.00    -0.253 OA
ATOM      5  N   UNL     1      -1.873   5.607   0.527  0.00  0.00    -0.296 N 
ATOM      6  H   UNL     1      -1.041   5.060   0.059  0.00  0.00    +0.151 HD
BRANCH   5   7
ATOM      7  C   UNL     1      -1.599   6.633   1.537  0.00  0.00    +0.074 C 
ATOM      8  C   UNL     1      -1.552   8.008   0.868  0.00  0.00    +0.022 C 
ATOM      9  C   UNL     1      -1.266   9.079   1.922  0.00  0.00    +0.002 C 
ATOM     10  C   UNL     1       0.080   8.791   2.589  0.00  0.00    +0.000 C 
ATOM     11  C   UNL     1       0.034   7.416   3.259  0.00  0.00    +0.002 C 
ATOM     12  C   UNL     1      -0.252   6.345   2.204  0.00  0.00    +0.022 C 
ENDBRANCH   5   7
BRANCH   2  13
ATOM     13  C   UNL     1      -2.289   3.662  -1.380  0.00  0.00    +0.140 C 
BRANCH  13  14
ATOM     14  C   UNL     1      -1.978   2.408  -0.561  0.00  0.00    +0.136 C 
ATOM     15  C   UNL     1      -0.811   1.623  -1.201  0.00  0.00    +0.035 C 
ATOM     16  C   UNL     1      -0.013   1.086   0.008  0.00  0.00    +0.031 C 
ATOM     17  C   UNL     1      -0.788   1.610   1.237  0.00  0.00    +0.160 C 
ATOM     18  O   UNL     1      -1.501   2.772   0.753  0.00  0.00    -0.375 OA
ENDBRANCH  13  14
ENDBRANCH   2  13
ENDBRANCH   1   2
BRANCH   1  19
ATOM     19  C   UNL     1      -5.333   2.990  -0.241  0.00  0.00    +0.073 C 
BRANCH  19  23
ATOM     20  C   UNL     1      -9.296   4.400   1.227  0.00  0.00    +0.090 A 
ATOM     21  C   UNL     1      -7.965   4.213   1.060  0.00  0.00    +0.121 A 
ATOM     22  N   UNL     1      -7.794   3.300   0.026  0.00  0.00    -0.297 N 
ATOM     23  C   UNL     1      -6.755   2.685  -0.638  0.00  0.00    +0.034 A 
ATOM     24  C   UNL     1      -6.991   1.828  -1.630  0.00  0.00    +0.070 A 
ATOM     25  S   UNL     1      -8.776   1.819  -1.694  0.00  0.00    -0.057 S 
ATOM     26  C   UNL     1      -9.064   2.982  -0.380  0.00  0.00    +0.178 A 
ATOM     27  N   UNL     1      -9.943   3.630   0.327  0.00  0.00    -0.221 NA
BRANCH  20  33
ATOM     28  C   UNL     1      -9.144   6.036   3.102  0.00  0.00    +0.013 A 
ATOM     29  C   UNL     1      -9.740   6.872   4.024  0.00  0.00    +0.039 A 
ATOM     30  C   UNL     1     -11.121   6.967   4.085  0.00  0.00    +0.123 A 
ATOM     31  C   UNL     1     -11.909   6.229   3.217  0.00  0.00    +0.039 A 
ATOM     32  C   UNL     1     -11.321   5.395   2.288  0.00  0.00    +0.013 A 
ATOM     33  C   UNL     1      -9.933   5.296   2.224  0.00  0.00    +0.002 A 
ATOM     34  F   UNL     1     -11.700   7.782   4.993  0.00  0.00    -0.205 F 
ENDBRANCH  20  33
ENDBRANCH  19  23
ENDBRANCH   1  19
TORSDOF 7
