REMARK  Name = ZINC63531327
REMARK  12 active torsions:
REMARK  status: ('A' for Active; 'I' for Inactive)
REMARK    1  A    between atoms: C_1  and  C_2
REMARK    2  A    between atoms: C_2  and  C_3
REMARK    3  A    between atoms: C_3  and  O_4
REMARK    4  A    between atoms: O_4  and  C_5
REMARK    5  A    between atoms: C_8  and  C_11
REMARK    6  A    between atoms: C_11  and  N_12
REMARK    7  A    between atoms: C_13  and  C_15
REMARK    8  A    between atoms: C_17  and  S_27
REMARK    9  A    between atoms: C_21  and  O_25
REMARK   10  A    between atoms: O_25  and  C_26
REMARK   11  A    between atoms: S_27  and  C_28
REMARK   12  A    between atoms: C_31  and  C_34
REMARK                            x       y       z     vdW  Elec       q    Type
REMARK                         _______ _______ _______ _____ _____    ______ ____
ROOT
ATOM      1  C   UNL     1      -8.111  -5.448  -2.569  0.00  0.00    +0.204 C 
ATOM      2  C   UNL     1      -7.695  -6.686  -3.332  0.00  0.00    +0.030 C 
ATOM      3  C   UNL     1      -8.869  -7.385  -3.583  0.00  0.00    +0.010 A 
ATOM      4  C   UNL     1      -9.125  -8.605  -4.251  0.00  0.00    +0.014 A 
ATOM      5  C   UNL     1     -10.398  -9.063  -4.352  0.00  0.00    +0.046 A 
ATOM      6  C   UNL     1     -11.476  -8.353  -3.807  0.00  0.00    +0.122 A 
ATOM      7  C   UNL     1     -11.298  -7.171  -3.151  0.00  0.00    +0.071 A 
ATOM      8  C   UNL     1      -9.998  -6.635  -3.010  0.00  0.00    +0.048 A 
ATOM      9  N   UNL     1      -9.568  -5.527  -2.429  0.00  0.00    -0.369 N 
ATOM     10  H   UNL     1     -10.127  -4.871  -1.983  0.00  0.00    +0.161 HD
ENDROOT
BRANCH   1  12
ATOM     11  N   UNL     1      -6.185  -5.013  -1.078  0.00  0.00    -0.309 N 
ATOM     12  C   UNL     1      -7.459  -5.433  -1.210  0.00  0.00    +0.241 C 
ATOM     13  O   UNL     1      -8.082  -5.798  -0.235  0.00  0.00    -0.273 OA
ATOM     14  H   UNL     1      -5.688  -4.721  -1.858  0.00  0.00    +0.149 HD
BRANCH  11  15
ATOM     15  C   UNL     1      -5.552  -4.999   0.243  0.00  0.00    +0.139 C 
BRANCH  15  19
ATOM     16  C   UNL     1      -1.544  -3.561  -0.114  0.00  0.00    +0.121 A 
ATOM     17  C   UNL     1      -2.583  -2.671   0.118  0.00  0.00    +0.046 A 
ATOM     18  C   UNL     1      -3.878  -3.139   0.232  0.00  0.00    +0.009 A 
ATOM     19  C   UNL     1      -4.138  -4.492   0.117  0.00  0.00    -0.030 A 
ATOM     20  C   UNL     1      -3.104  -5.380  -0.113  0.00  0.00    +0.009 A 
ATOM     21  C   UNL     1      -1.808  -4.917  -0.235  0.00  0.00    +0.046 A 
BRANCH  16  22
ATOM     22  O   UNL     1      -0.269  -3.103  -0.228  0.00  0.00    -0.492 OA
BRANCH  22  23
ATOM     23  C   UNL     1      -0.071  -1.694  -0.092  0.00  0.00    +0.229 C 
BRANCH  23  25
ATOM     24  C   UNL     1       1.629   0.137  -0.104  0.00  0.00    +0.007 C 
ATOM     25  C   UNL     1       1.416  -1.371  -0.249  0.00  0.00    +0.038 C 
ENDBRANCH  23  25
ENDBRANCH  22  23
ENDBRANCH  16  22
ENDBRANCH  15  19
ENDBRANCH  11  15
ENDBRANCH   1  12
BRANCH   6  26
ATOM     26  O   UNL     1     -12.730  -8.855  -3.935  0.00  0.00    -0.495 OA
ATOM     27  C   UNL     1     -12.864 -10.096  -4.631  0.00  0.00    +0.277 C 
ENDBRANCH   6  26
BRANCH   2  28
ATOM     28  S   UNL     1      -6.156  -7.119  -3.777  0.00  0.00    -0.091 S 
BRANCH  28  29
ATOM     29  C   UNL     1      -5.704  -5.910  -4.977  0.00  0.00    +0.013 A 
ATOM     30  C   UNL     1      -6.639  -4.983  -5.418  0.00  0.00    +0.015 A 
ATOM     31  C   UNL     1      -6.282  -4.037  -6.359  0.00  0.00    +0.004 A 
ATOM     32  C   UNL     1      -4.993  -4.012  -6.861  0.00  0.00    -0.050 A 
ATOM     33  C   UNL     1      -4.059  -4.934  -6.425  0.00  0.00    +0.004 A 
ATOM     34  C   UNL     1      -4.409  -5.879  -5.480  0.00  0.00    +0.015 A 
ATOM     35  C   UNL     1      -4.606  -2.979  -7.888  0.00  0.00    +0.044 C 
ENDBRANCH  28  29
ENDBRANCH   2  28
TORSDOF 9
