REMARK  Name = ZINC39696064
REMARK  10 active torsions:
REMARK  status: ('A' for Active; 'I' for Inactive)
REMARK    1  A    between atoms: C_1  and  C_2
REMARK    2  A    between atoms: C_2  and  C_3
REMARK    3  A    between atoms: C_6  and  C_9
REMARK    4  A    between atoms: C_9  and  C_11
REMARK    5  A    between atoms: C_9  and  N_12
REMARK    6  A    between atoms: C_13  and  C_15
REMARK    7  A    between atoms: C_26  and  C_28
REMARK    8  A    between atoms: C_28  and  C_30
REMARK    9  A    between atoms: C_28  and  O_31
REMARK   10  A    between atoms: O_31  and  C_32
REMARK                            x       y       z     vdW  Elec       q    Type
REMARK                         _______ _______ _______ _____ _____    ______ ____
ROOT
ATOM      1  C   UNL     1      -6.662  -4.969  -2.019  0.00  0.00    +0.100 C 
ATOM      2  C   UNL     1      -5.345  -5.754  -2.205  0.00  0.00    +0.121 C 
ATOM      3  N   UNL     1      -5.512  -6.968  -1.372  0.00  0.00    -0.297 N 
ATOM      4  C   UNL     1      -6.927  -7.362  -1.574  0.00  0.00    +0.115 C 
ATOM      5  C   UNL     1      -7.699  -6.028  -1.608  0.00  0.00    -0.004 C 
ATOM      6  C   UNL     1      -8.823  -6.095  -2.638  0.00  0.00    -0.010 C 
ATOM      7  C   UNL     1      -9.870  -7.112  -2.178  0.00  0.00    -0.082 C 
ATOM      8  N   UNL     1     -10.401  -6.714  -0.869  0.00  0.00    +0.379 N 
ATOM      9  C   UNL     1      -9.331  -6.743   0.136  0.00  0.00    -0.082 C 
ATOM     10  C   UNL     1      -8.261  -5.709  -0.226  0.00  0.00    -0.010 C 
ATOM     11  C   UNL     1      -4.586  -7.578  -0.605  0.00  0.00    +0.256 C 
ATOM     12  O   UNL     1      -3.489  -7.079  -0.467  0.00  0.00    -0.272 OA
ATOM     13  H   UNL     1     -10.778  -5.780  -0.930  0.00  0.00    -0.086 HD
ATOM     14  H   UNL     1     -11.134  -7.352  -0.596  0.00  0.00    -0.086 HD
ENDROOT
BRANCH   1  16
ATOM     15  N   UNL     1      -7.218  -2.792  -0.984  0.00  0.00    -0.308 N 
ATOM     16  C   UNL     1      -6.508  -3.936  -0.932  0.00  0.00    +0.219 C 
ATOM     17  O   UNL     1      -5.745  -4.135  -0.010  0.00  0.00    -0.275 OA
ATOM     18  H   UNL     1      -7.828  -2.633  -1.721  0.00  0.00    +0.149 HD
BRANCH  15  19
ATOM     19  C   UNL     1      -7.069  -1.788   0.073  0.00  0.00    +0.100 C 
ATOM     20  C   UNL     1      -7.993  -2.136   1.241  0.00  0.00    +0.033 C 
BRANCH  19  24
ATOM     21  C   UNL     1      -8.101   2.061  -1.465  0.00  0.00    -0.048 A 
ATOM     22  C   UNL     1      -7.025   1.925  -0.608  0.00  0.00    +0.004 A 
ATOM     23  C   UNL     1      -6.691   0.679  -0.110  0.00  0.00    +0.006 A 
ATOM     24  C   UNL     1      -7.433  -0.430  -0.469  0.00  0.00    -0.027 A 
ATOM     25  C   UNL     1      -8.510  -0.294  -1.326  0.00  0.00    +0.006 A 
ATOM     26  C   UNL     1      -8.847   0.952  -1.820  0.00  0.00    +0.004 A 
BRANCH  21  28
ATOM     27  C   UNL     1      -9.455   4.098  -1.059  0.00  0.00    +0.009 C 
ATOM     28  C   UNL     1      -8.466   3.419  -2.008  0.00  0.00    +0.032 C 
ENDBRANCH  21  28
ENDBRANCH  19  24
ENDBRANCH  15  19
ENDBRANCH   1  16
BRANCH  11  29
ATOM     29  C   UNL     1      -4.914  -8.879   0.081  0.00  0.00    +0.256 C 
ATOM     30  C   UNL     1      -5.063  -9.984  -0.967  0.00  0.00    +0.062 C 
BRANCH  29  31
ATOM     31  O   UNL     1      -3.861  -9.219   0.985  0.00  0.00    -0.480 OA
BRANCH  31  32
ATOM     32  C   UNL     1      -4.182 -10.024   2.032  0.00  0.00    +0.122 A 
ATOM     33  C   UNL     1      -3.242 -10.294   3.015  0.00  0.00    +0.045 A 
ATOM     34  C   UNL     1      -3.571 -11.111   4.079  0.00  0.00    +0.004 A 
ATOM     35  C   UNL     1      -4.837 -11.661   4.163  0.00  0.00    +0.000 A 
ATOM     36  C   UNL     1      -5.776 -11.394   3.184  0.00  0.00    +0.004 A 
ATOM     37  C   UNL     1      -5.454 -10.572   2.122  0.00  0.00    +0.045 A 
ENDBRANCH  31  32
ENDBRANCH  29  31
ENDBRANCH  11  29
TORSDOF 7
