REMARK  Name = ZINC00549815
REMARK  8 active torsions:
REMARK  status: ('A' for Active; 'I' for Inactive)
REMARK    1  A    between atoms: C_1  and  C_2
REMARK    2  A    between atoms: C_2  and  C_3
REMARK    3  A    between atoms: C_2  and  C_4
REMARK    4  A    between atoms: C_7  and  C_18
REMARK    5  A    between atoms: C_13  and  N_17
REMARK    6  A    between atoms: C_14  and  C_15
REMARK    7  A    between atoms: C_18  and  S_19
REMARK    8  A    between atoms: S_19  and  C_20
REMARK                            x       y       z     vdW  Elec       q    Type
REMARK                         _______ _______ _______ _____ _____    ______ ____
ROOT
ATOM      1  C   UNL     1      -1.424  -0.549   0.064  0.00  0.00    +0.074 C 
ATOM      2  C   UNL     1      -1.391  -2.053   0.170  0.00  0.00    +0.046 A 
ATOM      3  C   UNL     1      -1.033  -2.830   1.204  0.00  0.00    +0.054 A 
ATOM      4  N   UNL     1      -1.169  -4.119   0.814  0.00  0.00    -0.277 N 
ATOM      5  H   UNL     1      -0.981  -4.901   1.356  0.00  0.00    +0.189 HD
ATOM      6  N   UNL     1      -1.630  -4.127  -0.512  0.00  0.00    -0.135 NA
ATOM      7  C   UNL     1      -1.765  -2.893  -0.901  0.00  0.00    +0.244 A 
ATOM      8  O   UNL     1      -2.183  -2.394  -2.096  0.00  0.00    -0.422 OA
ATOM      9  C   UNL     1      -2.489  -1.083  -2.148  0.00  0.00    +0.200 C 
ATOM     10  C   UNL     1      -2.174  -0.183  -1.192  0.00  0.00    +0.094 C 
ENDROOT
BRANCH   1  12
ATOM     11  C   UNL     1       0.669  -0.491  -1.298  0.00  0.00    +0.008 C 
ATOM     12  C   UNL     1       0.004  -0.005  -0.009  0.00  0.00    -0.004 C 
ATOM     13  C   UNL     1      -0.032   1.524   0.000  0.00  0.00    +0.008 C 
ENDBRANCH   1  12
BRANCH   9  14
ATOM     14  N   UNL     1      -3.170  -0.629  -3.251  0.00  0.00    -0.328 N 
ATOM     15  H   UNL     1      -3.413  -1.247  -3.958  0.00  0.00    +0.145 HD
ATOM     16  H   UNL     1      -3.407   0.308  -3.323  0.00  0.00    +0.145 HD
ENDBRANCH   9  14
BRANCH  10  17
ATOM     17  C   UNL     1      -2.569   1.181  -1.378  0.00  0.00    +0.100 C 
ATOM     18  N   UNL     1      -2.882   2.262  -1.526  0.00  0.00    -0.191 NA
ENDBRANCH  10  17
BRANCH   3  19
ATOM     19  C   UNL     1      -0.563  -2.354   2.554  0.00  0.00    +0.129 C 
BRANCH  19  20
ATOM     20  S   UNL     1      -1.969  -2.304   3.700  0.00  0.00    -0.119 S 
BRANCH  20  21
ATOM     21  C   UNL     1      -1.266  -1.736   5.213  0.00  0.00    +0.008 A 
ATOM     22  C   UNL     1       0.091  -1.444   5.284  0.00  0.00    +0.015 A 
ATOM     23  C   UNL     1       0.638  -0.999   6.471  0.00  0.00    +0.001 A 
ATOM     24  C   UNL     1      -0.162  -0.845   7.588  0.00  0.00    +0.000 A 
ATOM     25  C   UNL     1      -1.513  -1.135   7.521  0.00  0.00    +0.001 A 
ATOM     26  C   UNL     1      -2.068  -1.575   6.336  0.00  0.00    +0.015 A 
ENDBRANCH  20  21
ENDBRANCH  19  20
ENDBRANCH   3  19
TORSDOF 6
