REMARK  Name = ZINC02641222
REMARK  6 active torsions:
REMARK  status: ('A' for Active; 'I' for Inactive)
REMARK    1  A    between atoms: C_1  and  C_2
REMARK    2  A    between atoms: C_2  and  C_4
REMARK    3  A    between atoms: C_2  and  S_18
REMARK    4  A    between atoms: N_6  and  C_7
REMARK    5  A    between atoms: S_18  and  C_19
REMARK    6  A    between atoms: C_22  and  C_24
REMARK                            x       y       z     vdW  Elec       q    Type
REMARK                         _______ _______ _______ _____ _____    ______ ____
ROOT
ATOM      1  C   UNL     1      -5.522   7.838  -1.206  0.00  0.00    +0.029 C 
ATOM      2  C   UNL     1      -4.989   8.433   0.099  0.00  0.00    +0.138 C 
ENDROOT
BRANCH   2   3
ATOM      3  C   UNL     1      -5.468   9.855   0.235  0.00  0.00    +0.227 C 
ATOM      4  O   UNL     1      -4.763  10.771  -0.132  0.00  0.00    -0.275 OA
ATOM      5  N   UNL     1      -6.681  10.110   0.766  0.00  0.00    -0.308 N 
ATOM      6  H   UNL     1      -7.245   9.377   1.059  0.00  0.00    +0.149 HD
BRANCH   5   7
ATOM      7  C   UNL     1      -7.147  11.492   0.898  0.00  0.00    +0.103 C 
ATOM      8  C   UNL     1      -8.175  11.571   2.025  0.00  0.00    +0.027 C 
ATOM      9  C   UNL     1      -8.807  12.968   2.006  0.00  0.00    +0.007 C 
ATOM     10  C   UNL     1      -9.685  13.083   0.762  0.00  0.00    +0.035 C 
ATOM     11  C   UNL     1      -8.918  12.673  -0.468  0.00  0.00    -0.042 A 
ATOM     12  C   UNL     1      -7.754  11.939  -0.405  0.00  0.00    -0.024 A 
ATOM     13  C   UNL     1      -7.099  11.587  -1.578  0.00  0.00    +0.006 A 
ATOM     14  C   UNL     1      -7.602  11.970  -2.804  0.00  0.00    +0.000 A 
ATOM     15  C   UNL     1      -8.768  12.710  -2.867  0.00  0.00    +0.000 A 
ATOM     16  C   UNL     1      -9.421  13.060  -1.703  0.00  0.00    +0.004 A 
ENDBRANCH   5   7
ENDBRANCH   2   3
BRANCH   2  17
ATOM     17  S   UNL     1      -3.179   8.406   0.079  0.00  0.00    -0.053 S 
BRANCH  17  18
ATOM     18  C   UNL     1      -2.900   6.666   0.067  0.00  0.00    +0.278 A 
ATOM     19  N   UNL     1      -3.822   5.731   0.071  0.00  0.00    -0.101 NA
ATOM     20  N   UNL     1      -3.259   4.574   0.059  0.00  0.00    -0.106 NA
ATOM     21  C   UNL     1      -1.955   4.723   0.046  0.00  0.00    +0.257 A 
ATOM     22  O   UNL     1      -1.701   6.052   0.056  0.00  0.00    -0.410 OA
BRANCH  21  23
ATOM     23  C   UNL     1      -0.955   3.646   0.031  0.00  0.00    +0.095 A 
ATOM     24  C   UNL     1      -1.164   2.303   0.020  0.00  0.00    +0.068 A 
ATOM     25  C   UNL     1      -0.017   1.413   0.010  0.00  0.00    +0.008 A 
ATOM     26  C   UNL     1       0.002  -0.004   0.002  0.00  0.00    +0.010 A 
ATOM     27  C   UNL     1       1.180  -0.682  -0.013  0.00  0.00    +0.001 A 
ATOM     28  C   UNL     1       2.400  -0.019  -0.022  0.00  0.00    +0.001 A 
ATOM     29  C   UNL     1       2.424   1.362  -0.014  0.00  0.00    +0.016 A 
ATOM     30  C   UNL     1       1.238   2.063   0.001  0.00  0.00    +0.021 A 
ATOM     31  S   UNL     1       0.822   3.788   0.015  0.00  0.00    -0.082 S 
ATOM     32 CL   UNL     1      -2.778   1.662   0.023  0.00  0.00    -0.082 Cl
ENDBRANCH  21  23
ENDBRANCH  17  18
ENDBRANCH   2  17
TORSDOF 5
