REMARK  Name = ZINC11878440
REMARK  8 active torsions:
REMARK  status: ('A' for Active; 'I' for Inactive)
REMARK    1  A    between atoms: C_4  and  C_8
REMARK    2  A    between atoms: C_8  and  N_52
REMARK    3  A    between atoms: C_14  and  C_16
REMARK    4  A    between atoms: C_16  and  C_17
REMARK    5  A    between atoms: N_19  and  C_20
REMARK    6  A    between atoms: C_20  and  C_21
REMARK    7  A    between atoms: C_21  and  C_22
REMARK    8  A    between atoms: C_25  and  O_28
REMARK                            x       y       z     vdW  Elec       q    Type
REMARK                         _______ _______ _______ _____ _____    ______ ____
ROOT
ATOM      1  C   UNL     1      -1.161   3.694   2.534  0.00  0.00    -0.058 C 
ATOM      2  C   UNL     1      -0.112   3.360   3.596  0.00  0.00    +0.085 C 
ATOM      3  N   UNL     1       0.144   1.923   3.612  0.00  0.00    -0.318 N 
ATOM      4  C   UNL     1      -0.186   1.115   2.599  0.00  0.00    +0.200 C 
ATOM      5  O   UNL     1       0.091  -0.063   2.682  0.00  0.00    -0.278 OA
ATOM      6  C   UNL     1      -0.885   1.605   1.363  0.00  0.00    +0.028 C 
ATOM      7  H   UNL     1       0.572   1.537   4.392  0.00  0.00    +0.149 HD
ATOM      8  N   UNL     1      -0.741   3.069   1.264  0.00  0.00    +0.391 N 
ATOM      9  H   UNL     1       0.244   3.299   1.087  0.00  0.00    -0.080 HD
ENDROOT
BRANCH   8  10
ATOM     10  C   UNL     1      -1.565   3.585   0.147  0.00  0.00    -0.037 C 
BRANCH  10  14
ATOM     11  C   UNL     1      -0.718   7.738  -0.401  0.00  0.00    +0.004 A 
ATOM     12  C   UNL     1       0.026   6.787  -1.075  0.00  0.00    +0.038 A 
ATOM     13  C   UNL     1      -0.247   5.442  -0.898  0.00  0.00    +0.126 A 
ATOM     14  C   UNL     1      -1.266   5.050  -0.046  0.00  0.00    -0.010 A 
ATOM     15  C   UNL     1      -2.013   6.002   0.622  0.00  0.00    +0.045 A 
ATOM     16  C   UNL     1      -1.734   7.347   0.449  0.00  0.00    +0.020 A 
ATOM     17 CL   UNL     1      -3.296   5.512   1.684  0.00  0.00    -0.083 Cl
ATOM     18  F   UNL     1       0.480   4.512  -1.555  0.00  0.00    -0.205 F 
ENDBRANCH  10  14
ENDBRANCH   8  10
BRANCH   6  19
ATOM     19  C   UNL     1      -0.249   0.959   0.130  0.00  0.00    +0.089 C 
BRANCH  19  20
ATOM     20  C   UNL     1       1.196   1.376   0.033  0.00  0.00    +0.212 C 
ATOM     21  O   UNL     1       1.648   2.182   0.818  0.00  0.00    -0.276 OA
ATOM     22  N   UNL     1       1.985   0.854  -0.927  0.00  0.00    -0.315 N 
ATOM     23  H   UNL     1       1.623   0.210  -1.555  0.00  0.00    +0.149 HD
BRANCH  22  24
ATOM     24  C   UNL     1       3.389   1.260  -1.022  0.00  0.00    +0.109 C 
BRANCH  24  25
ATOM     25  C   UNL     1       4.055   0.525  -2.187  0.00  0.00    +0.054 C 
BRANCH  25  26
ATOM     26  C   UNL     1       5.500   0.943  -2.284  0.00  0.00    -0.046 A 
ATOM     27  C   UNL     1       5.855   2.023  -3.071  0.00  0.00    +0.007 A 
ATOM     28  C   UNL     1       7.178   2.411  -3.158  0.00  0.00    +0.045 A 
ATOM     29  C   UNL     1       8.152   1.710  -2.462  0.00  0.00    +0.117 A 
ATOM     30  C   UNL     1       7.794   0.623  -1.678  0.00  0.00    +0.045 A 
ATOM     31  C   UNL     1       6.469   0.242  -1.590  0.00  0.00    +0.007 A 
BRANCH  29  32
ATOM     32  O   UNL     1       9.455   2.087  -2.550  0.00  0.00    -0.507 OA
ATOM     33  H   UNL     1       9.941   1.659  -3.268  0.00  0.00    +0.292 HD
ENDBRANCH  29  32
ENDBRANCH  25  26
ENDBRANCH  24  25
ENDBRANCH  22  24
ENDBRANCH  19  20
ENDBRANCH   6  19
TORSDOF 8
