REMARK  Name = ZINC33813532
REMARK  7 active torsions:
REMARK  status: ('A' for Active; 'I' for Inactive)
REMARK    1  A    between atoms: C_1  and  C_2
REMARK    2  A    between atoms: C_3  and  C_13
REMARK    3  A    between atoms: N_6  and  C_7
REMARK    4  A    between atoms: C_13  and  C_15
REMARK    5  A    between atoms: N_19  and  C_29
REMARK    6  A    between atoms: C_20  and  C_22
REMARK    7  A    between atoms: C_29  and  C_30
REMARK                            x       y       z     vdW  Elec       q    Type
REMARK                         _______ _______ _______ _____ _____    ______ ____
ROOT
ATOM      1  C   UNL     1       0.022  -1.291  -3.739  0.00  0.00    +0.076 C 
ATOM      2  C   UNL     1       0.109  -1.005  -5.058  0.00  0.00    +0.249 C 
ATOM      3  C   UNL     1       0.198  -2.267  -5.824  0.00  0.00    +0.288 C 
ATOM      4  O   UNL     1       0.287  -2.344  -7.033  0.00  0.00    -0.266 OA
ATOM      5  N   UNL     1       0.165  -3.317  -4.983  0.00  0.00    -0.279 N 
ATOM      6  C   UNL     1       0.059  -2.796  -3.615  0.00  0.00    +0.145 C 
ATOM      7  O   UNL     1       0.114   0.238  -5.592  0.00  0.00    -0.282 OA
ENDROOT
BRANCH   6   8
ATOM      8  C   UNL     1      -1.208  -3.295  -2.971  0.00  0.00    -0.022 A 
ATOM      9  C   UNL     1      -2.357  -3.440  -3.727  0.00  0.00    +0.007 A 
ATOM     10  C   UNL     1      -3.520  -3.897  -3.136  0.00  0.00    +0.020 A 
ATOM     11  C   UNL     1      -3.535  -4.210  -1.789  0.00  0.00    +0.041 A 
ATOM     12  C   UNL     1      -2.385  -4.065  -1.033  0.00  0.00    +0.020 A 
ATOM     13  C   UNL     1      -1.221  -3.613  -1.625  0.00  0.00    +0.007 A 
ATOM     14 CL   UNL     1      -4.995  -4.784  -1.046  0.00  0.00    -0.084 Cl
ENDBRANCH   6   8
BRANCH   1  15
ATOM     15  C   UNL     1      -0.083  -0.325  -2.640  0.00  0.00    +0.198 C 
ATOM     16  O   UNL     1      -1.080   0.363  -2.527  0.00  0.00    -0.287 OA
BRANCH  15  19
ATOM     17  C   UNL     1       0.072   1.779  -0.300  0.00  0.00    +0.066 C 
ATOM     18  C   UNL     1       1.099   0.730  -0.641  0.00  0.00    +0.053 A 
ATOM     19  C   UNL     1       1.020  -0.188  -1.671  0.00  0.00    +0.063 A 
ATOM     20  C   UNL     1       2.196  -0.972  -1.621  0.00  0.00    +0.146 A 
ATOM     21  N   UNL     1       2.924  -0.546  -0.626  0.00  0.00    -0.174 NA
ATOM     22  N   UNL     1       2.264   0.518  -0.003  0.00  0.00    -0.236 N 
BRANCH  22  23
ATOM     23  C   UNL     1       2.736   1.240   1.102  0.00  0.00    +0.066 A 
ATOM     24  C   UNL     1       2.466   2.598   1.213  0.00  0.00    +0.028 A 
ATOM     25  C   UNL     1       2.932   3.307   2.303  0.00  0.00    +0.002 A 
ATOM     26  C   UNL     1       3.666   2.666   3.283  0.00  0.00    +0.000 A 
ATOM     27  C   UNL     1       3.937   1.314   3.176  0.00  0.00    +0.002 A 
ATOM     28  C   UNL     1       3.469   0.599   2.091  0.00  0.00    +0.028 A 
ENDBRANCH  22  23
ENDBRANCH  15  19
ENDBRANCH   1  15
BRANCH   5  29
ATOM     29  C   UNL     1       0.230  -4.729  -5.366  0.00  0.00    +0.145 C 
BRANCH  29  30
ATOM     30  C   UNL     1       1.669  -5.177  -5.394  0.00  0.00    -0.012 A 
ATOM     31  C   UNL     1       2.416  -5.064  -6.557  0.00  0.00    +0.008 A 
ATOM     32  C   UNL     1       3.736  -5.489  -6.537  0.00  0.00    +0.020 A 
ATOM     33  C   UNL     1       4.259  -6.005  -5.367  0.00  0.00    +0.111 A 
ATOM     34  N   UNL     1       3.519  -6.097  -4.280  0.00  0.00    -0.263 NA
ATOM     35  C   UNL     1       2.262  -5.698  -4.261  0.00  0.00    +0.115 A 
ENDBRANCH  29  30
ENDBRANCH   5  29
TORSDOF 6
