REMARK  Name = ZINC22079559
REMARK  5 active torsions:
REMARK  status: ('A' for Active; 'I' for Inactive)
REMARK    1  A    between atoms: C_1  and  C_2
REMARK    2  A    between atoms: C_2  and  N_3
REMARK    3  A    between atoms: C_4  and  C_25
REMARK    4  A    between atoms: N_8  and  C_9
REMARK    5  A    between atoms: C_12  and  C_15
REMARK                            x       y       z     vdW  Elec       q    Type
REMARK                         _______ _______ _______ _____ _____    ______ ____
ROOT
ATOM      1  N   UNL     1       6.067   1.433  -1.311  0.00  0.00    -0.321 N 
ATOM      2  C   UNL     1       5.755   1.728  -2.610  0.00  0.00    +0.058 A 
ATOM      3  C   UNL     1       6.565   1.305  -3.603  0.00  0.00    +0.075 A 
ATOM      4  S   UNL     1       7.848   0.451  -2.701  0.00  0.00    -0.059 S 
ATOM      5  C   UNL     1       7.208   0.712  -1.054  0.00  0.00    +0.152 A 
ATOM      6  N   UNL     1       7.702   0.316   0.105  0.00  0.00    -0.336 N 
ATOM      7  H   UNL     1       7.135   0.488   1.032  0.00  0.00    +0.168 HD
ENDROOT
BRANCH   2   8
ATOM      8  C   UNL     1       4.535   2.502  -2.924  0.00  0.00    -0.001 A 
ATOM      9  C   UNL     1       4.236   3.661  -2.207  0.00  0.00    +0.011 A 
ATOM     10  C   UNL     1       3.096   4.379  -2.505  0.00  0.00    +0.016 A 
ATOM     11  C   UNL     1       2.250   3.952  -3.514  0.00  0.00    +0.018 A 
ATOM     12  C   UNL     1       2.542   2.803  -4.230  0.00  0.00    +0.016 A 
ATOM     13  C   UNL     1       3.678   2.077  -3.941  0.00  0.00    +0.011 A 
ATOM     14 BR   UNL     1       0.686   4.938  -3.912  0.00  0.00    -0.050 Br
ENDBRANCH   2   8
BRANCH   6  15
ATOM     15  C   UNL     1       8.915  -0.306   0.153  0.00  0.00    +0.041 A 
ATOM     16  C   UNL     1       8.986  -1.704   0.148  0.00  0.00    +0.026 A 
ATOM     17  C   UNL     1      10.201  -2.325   0.191  0.00  0.00    +0.013 A 
ATOM     18  C   UNL     1      11.373  -1.567   0.252  0.00  0.00    +0.019 A 
ATOM     19  C   UNL     1      11.303  -0.171   0.263  0.00  0.00    +0.013 A 
ATOM     20  C   UNL     1      10.089   0.453   0.214  0.00  0.00    +0.026 A 
BRANCH  18  21
ATOM     21  C   UNL     1      12.687  -2.240   0.305  0.00  0.00    +0.164 A 
ATOM     22  N   UNL     1      12.934  -3.446   0.774  0.00  0.00    -0.129 NA
ATOM     23  N   UNL     1      14.187  -3.711   0.655  0.00  0.00    -0.134 NA
ATOM     24  C   UNL     1      14.806  -2.704   0.107  0.00  0.00    +0.134 A 
ATOM     25  N   UNL     1      13.879  -1.736  -0.129  0.00  0.00    -0.311 N 
ATOM     26  C   UNL     1      14.128  -0.412  -0.701  0.00  0.00    +0.125 C 
ATOM     27  C   UNL     1      15.344  -0.485  -1.629  0.00  0.00    +0.022 C 
ATOM     28  C   UNL     1      16.618  -0.208  -0.832  0.00  0.00    +0.002 C 
ATOM     29  C   UNL     1      16.808  -1.258   0.259  0.00  0.00    +0.008 C 
ATOM     30  C   UNL     1      16.272  -2.607  -0.227  0.00  0.00    +0.076 C 
ENDBRANCH  18  21
ENDBRANCH   6  15
BRANCH   1  32
ATOM     31  C   UNL     1       5.163   0.802   0.872  0.00  0.00    +0.027 C 
ATOM     32  C   UNL     1       5.201   1.877  -0.216  0.00  0.00    +0.121 C 
ENDBRANCH   1  32
TORSDOF 4
