REMARK  Name = ZINC40010998
REMARK  14 active torsions:
REMARK  status: ('A' for Active; 'I' for Inactive)
REMARK    1  A    between atoms: C_1  and  C_2
REMARK    2  A    between atoms: C_2  and  O_3
REMARK    3  A    between atoms: O_3  and  C_4
REMARK    4  A    between atoms: C_4  and  C_5
REMARK    5  A    between atoms: C_5  and  C_6
REMARK    6  A    between atoms: C_6  and  N_7
REMARK    7  A    between atoms: N_7  and  C_8
REMARK    8  A    between atoms: C_8  and  N_10
REMARK    9  A    between atoms: C_15  and  O_36
REMARK   10  A    between atoms: C_16  and  O_34
REMARK   11  A    between atoms: C_19  and  C_21
REMARK   12  A    between atoms: C_27  and  C_33
REMARK   13  A    between atoms: O_34  and  C_35
REMARK   14  A    between atoms: O_36  and  C_37
REMARK                            x       y       z     vdW  Elec       q    Type
REMARK                         _______ _______ _______ _____ _____    ______ ____
ROOT
ATOM      1  N   UNL     1      -6.096  -5.917  -0.093  0.00  0.00    -0.304 N 
ATOM      2  C   UNL     1      -7.202  -4.953  -0.223  0.00  0.00    +0.112 C 
ATOM      3  C   UNL     1      -7.853  -5.168  -1.588  0.00  0.00    +0.054 C 
ATOM      4  C   UNL     1      -8.114  -6.631  -1.834  0.00  0.00    -0.037 A 
ATOM      5  C   UNL     1      -9.060  -6.961  -2.797  0.00  0.00    +0.053 A 
ATOM      6  C   UNL     1      -9.343  -8.284  -3.082  0.00  0.00    +0.162 A 
ATOM      7  C   UNL     1      -8.672  -9.294  -2.398  0.00  0.00    +0.162 A 
ATOM      8  C   UNL     1      -7.734  -8.962  -1.438  0.00  0.00    +0.055 A 
ATOM      9  C   UNL     1      -7.458  -7.631  -1.152  0.00  0.00    -0.019 A 
ATOM     10  C   UNL     1      -6.442  -7.342  -0.081  0.00  0.00    +0.121 C 
ENDROOT
BRANCH  10  11
ATOM     11  C   UNL     1      -7.028  -7.712   1.283  0.00  0.00    +0.123 C 
ATOM     12  C   UNL     1      -8.395  -7.064   1.393  0.00  0.00    -0.003 C 
ATOM     13  C   UNL     1      -8.600  -6.212   2.437  0.00  0.00    -0.007 A 
ATOM     14  C   UNL     1      -9.889  -5.544   2.618  0.00  0.00    +0.010 A 
ATOM     15  C   UNL     1     -10.048  -4.702   3.672  0.00  0.00    +0.004 A 
ATOM     16  C   UNL     1      -9.012  -4.465   4.575  0.00  0.00    -0.049 A 
ATOM     17  C   UNL     1      -7.793  -5.053   4.463  0.00  0.00    +0.027 A 
ATOM     18  C   UNL     1      -7.524  -5.944   3.407  0.00  0.00    +0.041 A 
ATOM     19  N   UNL     1      -6.324  -6.515   3.306  0.00  0.00    -0.284 N 
ATOM     20  C   UNL     1      -6.005  -7.358   2.339  0.00  0.00    +0.226 C 
ATOM     21  O   UNL     1      -4.892  -7.848   2.300  0.00  0.00    -0.275 OA
ATOM     22  C   UNL     1      -9.255  -3.519   5.723  0.00  0.00    +0.044 C 
ATOM     23  H   UNL     1      -5.654  -6.302   3.974  0.00  0.00    +0.155 HD
ENDBRANCH  10  11
BRANCH   1  24
ATOM     24  C   UNL     1      -4.816  -5.505   0.005  0.00  0.00    +0.133 C 
ATOM     25  S   UNL     1      -4.460  -3.835   0.119  0.00  0.00    -0.019 S 
BRANCH  24  26
ATOM     26  N   UNL     1      -3.816  -6.409   0.014  0.00  0.00    -0.326 N 
ATOM     27  H   UNL     1      -4.020  -7.358   0.024  0.00  0.00    +0.148 HD
BRANCH  26  28
ATOM     28  C   UNL     1      -2.422  -5.960   0.009  0.00  0.00    +0.105 C 
BRANCH  28  29
ATOM     29  C   UNL     1      -1.494  -7.176   0.021  0.00  0.00    +0.047 C 
BRANCH  29  30
ATOM     30  C   UNL     1      -0.038  -6.707   0.015  0.00  0.00    +0.161 C 
BRANCH  30  31
ATOM     31  O   UNL     1       0.829  -7.843   0.027  0.00  0.00    -0.380 OA
BRANCH  31  33
ATOM     32  C   UNL     1       3.048  -8.799   0.035  0.00  0.00    +0.034 C 
ATOM     33  C   UNL     1       2.219  -7.513   0.022  0.00  0.00    +0.156 C 
ENDBRANCH  31  33
ENDBRANCH  30  31
ENDBRANCH  29  30
ENDBRANCH  28  29
ENDBRANCH  26  28
ENDBRANCH  24  26
ENDBRANCH   1  24
BRANCH   7  34
ATOM     34  O   UNL     1      -8.938 -10.600  -2.672  0.00  0.00    -0.491 OA
ATOM     35  C   UNL     1      -8.210 -11.580  -1.929  0.00  0.00    +0.277 C 
ENDBRANCH   7  34
BRANCH   6  36
ATOM     36  O   UNL     1     -10.272  -8.597  -4.024  0.00  0.00    -0.491 OA
ATOM     37  C   UNL     1     -10.919  -7.507  -4.684  0.00  0.00    +0.277 C 
ENDBRANCH   6  36
TORSDOF 10
