REMARK  Name = ZINC39324906
REMARK  10 active torsions:
REMARK  status: ('A' for Active; 'I' for Inactive)
REMARK    1  A    between atoms: C_1  and  C_2
REMARK    2  A    between atoms: C_6  and  C_15
REMARK    3  A    between atoms: C_13  and  C_14
REMARK    4  A    between atoms: C_15  and  N_16
REMARK    5  A    between atoms: N_16  and  C_17
REMARK    6  A    between atoms: N_16  and  S_25
REMARK    7  A    between atoms: C_17  and  C_18
REMARK    8  A    between atoms: C_18  and  C_19
REMARK    9  A    between atoms: S_25  and  C_28
REMARK   10  A    between atoms: C_31  and  N_34
REMARK                            x       y       z     vdW  Elec       q    Type
REMARK                         _______ _______ _______ _____ _____    ______ ____
ROOT
ATOM      1  N   UNL     1      -1.072  -6.333  -3.117  0.00  0.00    -0.175 NA
ENDROOT
BRANCH   1   2
ATOM      2  S   UNL     1      -0.259  -6.986  -4.403  0.00  0.00    +0.061 S 
ATOM      3  O   UNL     1      -0.713  -8.326  -4.532  0.00  0.00    -0.153 OA
ATOM      4  O   UNL     1      -0.353  -6.044  -5.463  0.00  0.00    -0.153 OA
BRANCH   2   5
ATOM      5  C   UNL     1       1.443  -7.071  -3.954  0.00  0.00    +0.106 A 
ATOM      6  C   UNL     1       2.282  -6.006  -4.221  0.00  0.00    +0.031 A 
ATOM      7  C   UNL     1       3.617  -6.073  -3.869  0.00  0.00    +0.034 A 
ATOM      8  C   UNL     1       4.113  -7.206  -3.250  0.00  0.00    +0.126 A 
ATOM      9  C   UNL     1       3.273  -8.271  -2.983  0.00  0.00    +0.034 A 
ATOM     10  C   UNL     1       1.937  -8.202  -3.331  0.00  0.00    +0.031 A 
BRANCH   8  11
ATOM     11  N   UNL     1       5.543  -7.278  -2.874  0.00  0.00    +0.056 N 
ATOM     12  O   UNL     1       6.277  -6.347  -3.107  0.00  0.00    -0.126 OA
ATOM     13  O   UNL     1       5.976  -8.268  -2.332  0.00  0.00    -0.126 OA
ENDBRANCH   8  11
ENDBRANCH   2   5
ENDBRANCH   1   2
BRANCH   1  14
ATOM     14  C   UNL     1      -1.249  -4.881  -3.022  0.00  0.00    +0.126 C 
BRANCH  14  20
ATOM     15  C   UNL     1      -0.481   1.400   0.290  0.00  0.00    +0.044 C 
ATOM     16  C   UNL     1      -0.309  -0.093   0.178  0.00  0.00    -0.047 A 
ATOM     17  C   UNL     1      -0.344  -0.676  -1.047  0.00  0.00    +0.013 A 
ATOM     18  C   UNL     1      -0.175  -2.127  -1.143  0.00  0.00    -0.007 A 
ATOM     19  C   UNL     1      -0.202  -2.756  -2.353  0.00  0.00    -0.003 C 
ATOM     20  C   UNL     1      -0.018  -4.261  -2.358  0.00  0.00    +0.114 C 
ATOM     21  C   UNL     1       0.180  -4.941  -1.022  0.00  0.00    +0.225 C 
ATOM     22  O   UNL     1       0.332  -6.147  -0.968  0.00  0.00    -0.275 OA
ATOM     23  N   UNL     1       0.187  -4.220   0.087  0.00  0.00    -0.284 N 
ATOM     24  C   UNL     1       0.026  -2.897   0.096  0.00  0.00    +0.041 A 
ATOM     25  C   UNL     1       0.045  -2.195   1.315  0.00  0.00    +0.027 A 
ATOM     26  C   UNL     1      -0.112  -0.846   1.336  0.00  0.00    -0.046 A 
ATOM     27  C   UNL     1      -0.079  -0.134   2.664  0.00  0.00    +0.044 C 
ATOM     28  H   UNL     1       0.315  -4.676   0.933  0.00  0.00    +0.155 HD
ENDBRANCH  14  20
ENDBRANCH   1  14
BRANCH   1  29
ATOM     29  C   UNL     1      -1.616  -7.206  -2.074  0.00  0.00    +0.114 C 
BRANCH  29  30
ATOM     30  C   UNL     1      -3.074  -7.540  -2.397  0.00  0.00    +0.052 C 
BRANCH  30  31
ATOM     31  C   UNL     1      -3.632  -8.439  -1.323  0.00  0.00    -0.046 A 
ATOM     32  C   UNL     1      -3.527  -9.811  -1.447  0.00  0.00    +0.003 A 
ATOM     33  C   UNL     1      -4.039 -10.636  -0.463  0.00  0.00    +0.000 A 
ATOM     34  C   UNL     1      -4.657 -10.087   0.645  0.00  0.00    +0.000 A 
ATOM     35  C   UNL     1      -4.762  -8.714   0.769  0.00  0.00    +0.000 A 
ATOM     36  C   UNL     1      -4.246  -7.890  -0.213  0.00  0.00    +0.003 A 
ENDBRANCH  30  31
ENDBRANCH  29  30
ENDBRANCH   1  29
TORSDOF 8
