REMARK  Name = ZINC33630927
REMARK  11 active torsions:
REMARK  status: ('A' for Active; 'I' for Inactive)
REMARK    1  A    between atoms: C_1  and  C_2
REMARK    2  A    between atoms: C_2  and  C_3
REMARK    3  A    between atoms: C_7  and  C_39
REMARK    4  A    between atoms: C_8  and  N_9
REMARK    5  A    between atoms: C_14  and  C_27
REMARK    6  A    between atoms: C_17  and  C_22
REMARK    7  A    between atoms: C_17  and  C_24
REMARK    8  A    between atoms: C_22  and  O_23
REMARK    9  A    between atoms: C_30  and  O_37
REMARK   10  A    between atoms: O_37  and  C_38
REMARK   11  A    between atoms: C_39  and  C_40
REMARK                            x       y       z     vdW  Elec       q    Type
REMARK                         _______ _______ _______ _____ _____    ______ ____
ROOT
ATOM      1  N   UNL     1      -5.492  -2.944   3.690  0.00  0.00    -0.209 N 
ATOM      2  C   UNL     1      -5.404  -1.574   3.696  0.00  0.00    +0.229 C 
ATOM      3  O   UNL     1      -4.797  -0.877   4.481  0.00  0.00    -0.275 OA
ATOM      4  C   UNL     1      -6.202  -1.140   2.554  0.00  0.00    +0.077 C 
ATOM      5  C   UNL     1      -6.142   0.035   1.648  0.00  0.00    -0.026 C 
ATOM      6  N   UNL     1      -6.673  -0.467   0.338  0.00  0.00    +0.397 N 
ATOM      7  C   UNL     1      -6.867  -1.951   0.470  0.00  0.00    +0.071 C 
ATOM      8  C   UNL     1      -5.870  -2.314   1.545  0.00  0.00    +0.088 C 
ATOM      9  C   UNL     1      -5.982  -3.433   2.507  0.00  0.00    +0.229 C 
ATOM     10  O   UNL     1      -6.414  -4.546   2.294  0.00  0.00    -0.275 OA
ATOM     11  H   UNL     1      -7.630   0.027   0.117  0.00  0.00    -0.083 HD
ATOM     12  H   UNL     1      -5.951  -0.243  -0.461  0.00  0.00    -0.083 HD
ENDROOT
BRANCH   5  13
ATOM     13  C   UNL     1      -4.719   0.507   1.491  0.00  0.00    -0.053 A 
ATOM     14  C   UNL     1      -3.928  -0.020   0.516  0.00  0.00    +0.006 A 
ATOM     15  C   UNL     1      -2.613   0.406   0.351  0.00  0.00    +0.046 A 
ATOM     16  C   UNL     1      -2.074   1.358   1.170  0.00  0.00    +0.128 A 
ATOM     17  C   UNL     1      -2.865   1.925   2.190  0.00  0.00    +0.024 A 
ATOM     18  C   UNL     1      -4.205   1.492   2.351  0.00  0.00    -0.013 A 
ATOM     19  C   UNL     1      -4.994   2.058   3.368  0.00  0.00    +0.009 A 
ATOM     20  C   UNL     1      -4.462   3.010   4.182  0.00  0.00    +0.001 A 
ATOM     21  C   UNL     1      -3.144   3.435   4.023  0.00  0.00    +0.001 A 
ATOM     22  C   UNL     1      -2.351   2.909   3.049  0.00  0.00    +0.012 A 
BRANCH  16  23
ATOM     23  O   UNL     1      -0.788   1.759   0.999  0.00  0.00    -0.495 OA
ATOM     24  C   UNL     1      -0.050   1.138  -0.056  0.00  0.00    +0.277 C 
ENDBRANCH  16  23
ENDBRANCH   5  13
BRANCH   1  30
ATOM     25  C   UNL     1      -6.057  -4.079   5.748  0.00  0.00    -0.026 A 
ATOM     26  C   UNL     1      -5.692  -4.881   6.811  0.00  0.00    +0.005 A 
ATOM     27  C   UNL     1      -4.396  -5.350   6.912  0.00  0.00    +0.001 A 
ATOM     28  C   UNL     1      -3.462  -5.022   5.947  0.00  0.00    +0.005 A 
ATOM     29  C   UNL     1      -3.822  -4.225   4.878  0.00  0.00    -0.026 A 
ATOM     30  C   UNL     1      -5.124  -3.753   4.774  0.00  0.00    +0.050 A 
BRANCH  25  32
ATOM     31  C   UNL     1      -8.289  -4.499   4.752  0.00  0.00    +0.009 C 
ATOM     32  C   UNL     1      -7.469  -3.563   5.642  0.00  0.00    +0.033 C 
ENDBRANCH  25  32
BRANCH  29  33
ATOM     33  C   UNL     1      -2.804  -3.869   3.825  0.00  0.00    +0.033 C 
ATOM     34  C   UNL     1      -2.182  -2.511   4.157  0.00  0.00    +0.009 C 
ENDBRANCH  29  33
ENDBRANCH   1  30
BRANCH   7  35
ATOM     35  C   UNL     1      -6.538  -2.651  -0.823  0.00  0.00    +0.348 C 
ATOM     36  O   UNL     1      -6.001  -3.734  -0.805  0.00  0.00    -0.248 OA
ATOM     37  O   UNL     1      -6.841  -2.073  -1.996  0.00  0.00    -0.248 OA
ENDBRANCH   7  35
BRANCH   7  38
ATOM     38  C   UNL     1      -8.293  -2.276   0.919  0.00  0.00    +0.155 C 
BRANCH  38  39
ATOM     39  O   UNL     1      -9.221  -1.770  -0.042  0.00  0.00    -0.396 OA
ATOM     40  H   UNL     1     -10.302  -1.908   0.110  0.00  0.00    +0.209 HD
ENDBRANCH  38  39
ENDBRANCH   7  38
TORSDOF 8
