REMARK  Name = ZINC26780634
REMARK  12 active torsions:
REMARK  status: ('A' for Active; 'I' for Inactive)
REMARK    1  A    between atoms: C_1  and  C_2
REMARK    2  A    between atoms: C_4  and  C_34
REMARK    3  A    between atoms: C_5  and  C_33
REMARK    4  A    between atoms: C_6  and  O_8
REMARK    5  A    between atoms: O_8  and  C_9
REMARK    6  A    between atoms: C_9  and  C_10
REMARK    7  A    between atoms: C_10  and  C_12
REMARK    8  A    between atoms: C_10  and  O_32
REMARK    9  A    between atoms: C_12  and  N_13
REMARK   10  A    between atoms: N_16  and  C_19
REMARK   11  A    between atoms: C_19  and  C_20
REMARK   12  A    between atoms: C_19  and  C_26
REMARK                            x       y       z     vdW  Elec       q    Type
REMARK                         _______ _______ _______ _____ _____    ______ ____
ROOT
ATOM      1  N   UNL     1       8.099  -1.841  -1.103  0.00  0.00    -0.303 NA
ATOM      2  C   UNL     1       8.192  -2.619   0.141  0.00  0.00    +0.066 C 
ATOM      3  C   UNL     1       9.529  -3.363   0.176  0.00  0.00    -0.062 C 
ATOM      4  N   UNL     1      10.629  -2.393   0.082  0.00  0.00    +0.389 N 
ATOM      5  C   UNL     1      10.536  -1.615  -1.162  0.00  0.00    -0.062 C 
ATOM      6  C   UNL     1       9.199  -0.871  -1.197  0.00  0.00    +0.066 C 
ATOM      7  H   UNL     1      10.539  -1.694   0.927  0.00  0.00    -0.080 HD
ENDROOT
BRANCH   1   8
ATOM      8  C   UNL     1       6.796  -1.171  -1.209  0.00  0.00    +0.119 C 
BRANCH   8   9
ATOM      9  C   UNL     1       6.536  -0.790  -2.668  0.00  0.00    +0.166 C 
BRANCH   9  10
ATOM     10  O   UNL     1       6.495  -1.973  -3.469  0.00  0.00    -0.387 OA
ATOM     11  H   UNL     1       7.372  -2.634  -3.520  0.00  0.00    +0.210 HD
ENDBRANCH   9  10
BRANCH   9  12
ATOM     12  C   UNL     1       5.198  -0.056  -2.773  0.00  0.00    +0.261 C 
BRANCH  12  13
ATOM     13  O   UNL     1       5.009   0.401  -4.113  0.00  0.00    -0.489 OA
BRANCH  13  19
ATOM     14  C   UNL     1       0.761   2.222  -2.545  0.00  0.00    +0.044 C 
ATOM     15  C   UNL     1       1.768   1.984  -3.641  0.00  0.00    -0.047 A 
ATOM     16  C   UNL     1       1.523   2.454  -4.918  0.00  0.00    +0.007 A 
ATOM     17  C   UNL     1       2.444   2.238  -5.926  0.00  0.00    -0.044 A 
ATOM     18  C   UNL     1       3.613   1.551  -5.659  0.00  0.00    -0.006 A 
ATOM     19  C   UNL     1       3.861   1.078  -4.378  0.00  0.00    +0.124 A 
ATOM     20  C   UNL     1       2.934   1.296  -3.369  0.00  0.00    +0.049 A 
ATOM     21  C   UNL     1       4.617   1.316  -6.757  0.00  0.00    +0.048 C 
ATOM     22  C   UNL     1       2.174   2.752  -7.316  0.00  0.00    +0.044 C 
ENDBRANCH  13  19
ENDBRANCH  12  13
ENDBRANCH   9  12
ENDBRANCH   8   9
ENDBRANCH   1   8
BRANCH   4  23
ATOM     23  C   UNL     1      11.932  -3.062   0.188  0.00  0.00    -0.007 C 
BRANCH  23  24
ATOM     24  C   UNL     1      13.025  -2.027   0.252  0.00  0.00    -0.057 A 
ATOM     25  C   UNL     1      12.852  -0.885   1.012  0.00  0.00    +0.002 A 
ATOM     26  C   UNL     1      13.856   0.062   1.075  0.00  0.00    +0.000 A 
ATOM     27  C   UNL     1      15.030  -0.128   0.370  0.00  0.00    +0.000 A 
ATOM     28  C   UNL     1      15.201  -1.267  -0.394  0.00  0.00    +0.000 A 
ATOM     29  C   UNL     1      14.199  -2.217  -0.453  0.00  0.00    +0.002 A 
ENDBRANCH  23  24
BRANCH  23  30
ATOM     30  C   UNL     1      11.963  -3.905   1.437  0.00  0.00    -0.057 A 
ATOM     31  C   UNL     1      11.516  -3.380   2.636  0.00  0.00    +0.002 A 
ATOM     32  C   UNL     1      11.541  -4.154   3.781  0.00  0.00    +0.000 A 
ATOM     33  C   UNL     1      12.021  -5.449   3.729  0.00  0.00    +0.000 A 
ATOM     34  C   UNL     1      12.474  -5.972   2.532  0.00  0.00    +0.000 A 
ATOM     35  C   UNL     1      12.444  -5.199   1.386  0.00  0.00    +0.002 A 
ENDBRANCH  23  30
ENDBRANCH   4  23
TORSDOF 9
