REMARK  Name = ZINC13978368
REMARK  10 active torsions:
REMARK  status: ('A' for Active; 'I' for Inactive)
REMARK    1  A    between atoms: C_1  and  C_2
REMARK    2  A    between atoms: C_5  and  C_8
REMARK    3  A    between atoms: C_9  and  C_10
REMARK    4  A    between atoms: N_12  and  C_13
REMARK    5  A    between atoms: C_13  and  N_15
REMARK    6  A    between atoms: N_15  and  C_16
REMARK    7  A    between atoms: C_17  and  C_29
REMARK    8  A    between atoms: C_18  and  C_28
REMARK    9  A    between atoms: C_19  and  C_21
REMARK   10  A    between atoms: C_21  and  C_22
REMARK                            x       y       z     vdW  Elec       q    Type
REMARK                         _______ _______ _______ _____ _____    ______ ____
ROOT
ATOM      1  C   UNL     1      -0.745   2.272   3.557  0.00  0.00    +0.084 A 
ATOM      2  C   UNL     1       0.003   1.826   2.473  0.00  0.00    +0.068 A 
ATOM      3  C   UNL     1      -0.718   1.572   1.248  0.00  0.00    -0.026 A 
ATOM      4  C   UNL     1      -2.045   1.792   1.259  0.00  0.00    -0.000 A 
ATOM      5  S   UNL     1      -2.356   2.338   2.925  0.00  0.00    -0.077 S 
ATOM      6  C   UNL     1      -0.013   1.086   0.008  0.00  0.00    +0.045 C 
ENDROOT
BRANCH   2   7
ATOM      7  C   UNL     1       1.451   1.624   2.569  0.00  0.00    +0.244 C 
ATOM      8  O   UNL     1       2.212   2.538   2.308  0.00  0.00    -0.270 OA
ATOM      9  N   UNL     1       1.941   0.426   2.946  0.00  0.00    -0.325 N 
ATOM     10  H   UNL     1       1.335  -0.302   3.154  0.00  0.00    +0.145 HD
ATOM     11  H   UNL     1       2.900   0.293   3.010  0.00  0.00    +0.145 HD
ENDBRANCH   2   7
BRANCH   1  12
ATOM     12  N   UNL     1      -0.308   2.587   4.833  0.00  0.00    -0.291 N 
ATOM     13  H   UNL     1       0.633   2.506   5.057  0.00  0.00    +0.154 HD
BRANCH  12  14
ATOM     14  C   UNL     1      -1.188   3.008   5.763  0.00  0.00    +0.141 C 
ATOM     15  S   UNL     1      -2.848   3.152   5.367  0.00  0.00    -0.018 S 
BRANCH  14  18
ATOM     16  C   UNL     1      -1.643   3.735   7.934  0.00  0.00    +0.242 C 
ATOM     17  O   UNL     1      -2.822   3.837   7.652  0.00  0.00    -0.270 OA
ATOM     18  N   UNL     1      -0.762   3.314   7.004  0.00  0.00    -0.264 N 
ATOM     19  H   UNL     1       0.178   3.233   7.229  0.00  0.00    +0.157 HD
BRANCH  16  21
ATOM     20  C   UNL     1      -2.062   4.488  10.212  0.00  0.00    +0.013 C 
ATOM     21  C   UNL     1      -1.181   4.068   9.282  0.00  0.00    +0.068 C 
BRANCH  20  26
ATOM     22  C   UNL     1      -0.246   5.797  15.507  0.00  0.00    +0.044 C 
ATOM     23  C   UNL     1      -0.722   5.454  14.119  0.00  0.00    -0.050 A 
ATOM     24  C   UNL     1      -2.064   5.572  13.803  0.00  0.00    +0.004 A 
ATOM     25  C   UNL     1      -2.508   5.260  12.535  0.00  0.00    +0.008 A 
ATOM     26  C   UNL     1      -1.597   4.823  11.568  0.00  0.00    -0.025 A 
ATOM     27  C   UNL     1      -0.243   4.701  11.897  0.00  0.00    +0.008 A 
ATOM     28  C   UNL     1       0.185   5.023  13.167  0.00  0.00    +0.004 A 
ENDBRANCH  20  26
ENDBRANCH  16  21
ENDBRANCH  14  18
ENDBRANCH  12  14
ENDBRANCH   1  12
BRANCH   4  29
ATOM     29  C   UNL     1      -3.031   1.618   0.133  0.00  0.00    +0.077 C 
BRANCH  29  30
ATOM     30  C   UNL     1      -3.580   0.215   0.158  0.00  0.00    -0.043 A 
ATOM     31  C   UNL     1      -2.949  -0.788  -0.554  0.00  0.00    +0.004 A 
ATOM     32  C   UNL     1      -3.449  -2.076  -0.527  0.00  0.00    +0.000 A 
ATOM     33  C   UNL     1      -4.587  -2.360   0.205  0.00  0.00    +0.000 A 
ATOM     34  C   UNL     1      -5.221  -1.356   0.913  0.00  0.00    +0.000 A 
ATOM     35  C   UNL     1      -4.718  -0.069   0.890  0.00  0.00    +0.004 A 
ENDBRANCH  29  30
ENDBRANCH   4  29
TORSDOF 8
