REMARK  Name = ZINC24213408
REMARK  10 active torsions:
REMARK  status: ('A' for Active; 'I' for Inactive)
REMARK    1  A    between atoms: C_1  and  C_2
REMARK    2  A    between atoms: C_2  and  C_3
REMARK    3  A    between atoms: C_6  and  C_9
REMARK    4  A    between atoms: C_11  and  C_14
REMARK    5  A    between atoms: C_14  and  N_15
REMARK    6  A    between atoms: N_15  and  C_16
REMARK    7  A    between atoms: N_15  and  C_18
REMARK    8  A    between atoms: C_16  and  C_17
REMARK    9  A    between atoms: C_18  and  C_19
REMARK   10  A    between atoms: N_21  and  C_22
REMARK                            x       y       z     vdW  Elec       q    Type
REMARK                         _______ _______ _______ _____ _____    ______ ____
ROOT
ATOM      1  N   UNL     1       4.505  -4.164  -0.106  0.00  0.00    +0.391 N 
ATOM      2  H   UNL     1       3.793  -4.391  -0.913  0.00  0.00    -0.080 HD
ENDROOT
BRANCH   1   3
ATOM      3  C   UNL     1       3.895  -4.579   1.164  0.00  0.00    -0.081 C 
ATOM      4  C   UNL     1       2.420  -4.174   1.178  0.00  0.00    -0.017 C 
ENDBRANCH   1   3
BRANCH   1   5
ATOM      5  C   UNL     1       5.740  -4.915  -0.368  0.00  0.00    +0.022 C 
BRANCH   5   8
ATOM      6  C   UNL     1       4.895  -8.238  -1.448  0.00  0.00    +0.202 A 
ATOM      7  N   UNL     1       5.125  -6.937  -1.734  0.00  0.00    -0.193 NA
ATOM      8  C   UNL     1       5.406  -6.368  -0.588  0.00  0.00    +0.211 A 
ATOM      9  O   UNL     1       5.346  -7.320   0.348  0.00  0.00    -0.340 OA
ATOM     10  N   UNL     1       5.048  -8.382  -0.157  0.00  0.00    -0.056 NA
BRANCH   6  14
ATOM     11  C   UNL     1       3.862 -11.290  -4.223  0.00  0.00    -0.048 A 
ATOM     12  C   UNL     1       3.991 -11.595  -2.880  0.00  0.00    +0.004 A 
ATOM     13  C   UNL     1       4.326 -10.608  -1.974  0.00  0.00    +0.012 A 
ATOM     14  C   UNL     1       4.535  -9.303  -2.416  0.00  0.00    +0.022 A 
ATOM     15  C   UNL     1       4.399  -9.001  -3.769  0.00  0.00    +0.012 A 
ATOM     16  C   UNL     1       4.069  -9.997  -4.667  0.00  0.00    +0.004 A 
BRANCH  11  18
ATOM     17  C   UNL     1       1.974 -12.446  -5.339  0.00  0.00    +0.009 C 
ATOM     18  C   UNL     1       3.496 -12.372  -5.206  0.00  0.00    +0.032 C 
ENDBRANCH  11  18
ENDBRANCH   6  14
ENDBRANCH   5   8
ENDBRANCH   1   5
BRANCH   1  19
ATOM     19  C   UNL     1       4.757  -2.716  -0.121  0.00  0.00    +0.020 C 
BRANCH  19  20
ATOM     20  C   UNL     1       4.908  -2.248  -1.545  0.00  0.00    +0.201 C 
ATOM     21  O   UNL     1       4.717  -3.019  -2.461  0.00  0.00    -0.278 OA
ATOM     22  N   UNL     1       5.256  -0.971  -1.801  0.00  0.00    -0.287 N 
ATOM     23  H   UNL     1       5.513  -0.294  -0.973  0.00  0.00    +0.155 HD
BRANCH  22  24
ATOM     24  C   UNL     1       5.290  -0.505  -3.122  0.00  0.00    +0.037 A 
ATOM     25  C   UNL     1       4.912   0.800  -3.408  0.00  0.00    +0.027 A 
ATOM     26  C   UNL     1       4.944   1.259  -4.711  0.00  0.00    +0.051 A 
ATOM     27  C   UNL     1       5.353   0.419  -5.736  0.00  0.00    +0.162 A 
ATOM     28  C   UNL     1       5.734  -0.887  -5.452  0.00  0.00    +0.164 A 
ATOM     29  C   UNL     1       5.700  -1.348  -4.145  0.00  0.00    +0.072 A 
ATOM     30  O   UNL     1       6.147  -1.724  -6.444  0.00  0.00    -0.485 OA
ATOM     31  C   UNL     1       5.812  -1.347  -7.784  0.00  0.00    +0.270 C 
ATOM     32  C   UNL     1       6.143   0.141  -7.962  0.00  0.00    +0.270 C 
ATOM     33  O   UNL     1       5.370   0.887  -7.015  0.00  0.00    -0.485 OA
ENDBRANCH  22  24
ENDBRANCH  19  20
ENDBRANCH   1  19
TORSDOF 8
