REMARK  Name = ZINC35486812
REMARK  15 active torsions:
REMARK  status: ('A' for Active; 'I' for Inactive)
REMARK    1  A    between atoms: C_1  and  C_2
REMARK    2  A    between atoms: C_2  and  C_3
REMARK    3  A    between atoms: C_3  and  C_4
REMARK    4  A    between atoms: C_4  and  C_5
REMARK    5  A    between atoms: C_5  and  C_6
REMARK    6  A    between atoms: C_6  and  O_7
REMARK    7  A    between atoms: O_7  and  C_8
REMARK    8  A    between atoms: C_11  and  C_16
REMARK    9  A    between atoms: C_13  and  O_14
REMARK   10  A    between atoms: O_14  and  C_15
REMARK   11  A    between atoms: N_31  and  C_32
REMARK   12  A    between atoms: C_32  and  C_33
REMARK   13  A    between atoms: C_33  and  N_34
REMARK   14  A    between atoms: N_34  and  C_35
REMARK   15  A    between atoms: N_34  and  C_36
REMARK                            x       y       z     vdW  Elec       q    Type
REMARK                         _______ _______ _______ _____ _____    ______ ____
ROOT
ATOM      1  C   UNL     1      -4.826 -10.216  -0.006  0.00  0.00    +0.145 C 
ATOM      2  C   UNL     1      -4.578 -10.768   1.359  0.00  0.00    +0.072 A 
ATOM      3  C   UNL     1      -5.247 -10.518   2.639  0.00  0.00    +0.199 A 
ATOM      4  O   UNL     1      -6.288  -9.891   2.737  0.00  0.00    -0.287 OA
ATOM      5  C   UNL     1      -4.537 -11.101   3.806  0.00  0.00    +0.067 A 
ATOM      6  C   UNL     1      -4.935 -10.783   5.104  0.00  0.00    +0.053 A 
ATOM      7  C   UNL     1      -4.260 -11.329   6.176  0.00  0.00    +0.124 A 
ATOM      8  C   UNL     1      -3.191 -12.191   5.959  0.00  0.00    +0.042 A 
ATOM      9  C   UNL     1      -2.792 -12.511   4.681  0.00  0.00    +0.050 A 
ATOM     10  C   UNL     1      -3.460 -11.973   3.581  0.00  0.00    +0.140 A 
ATOM     11  O   UNL     1      -3.054 -12.314   2.336  0.00  0.00    -0.450 OA
ATOM     12  C   UNL     1      -3.527 -11.636   1.272  0.00  0.00    +0.199 A 
ATOM     13  C   UNL     1      -3.066 -11.666  -0.127  0.00  0.00    +0.283 C 
ATOM     14  O   UNL     1      -2.142 -12.337  -0.541  0.00  0.00    -0.267 OA
ATOM     15  N   UNL     1      -3.821 -10.839  -0.882  0.00  0.00    -0.285 N 
ATOM     16  F   UNL     1      -4.639 -11.027   7.437  0.00  0.00    -0.205 F 
ENDROOT
BRANCH   1  20
ATOM     17  C   UNL     1      -4.328  -5.968   0.011  0.00  0.00    +0.162 A 
ATOM     18  C   UNL     1      -3.219  -6.798   0.002  0.00  0.00    +0.050 A 
ATOM     19  C   UNL     1      -3.383  -8.171  -0.003  0.00  0.00    +0.009 A 
ATOM     20  C   UNL     1      -4.652  -8.719   0.000  0.00  0.00    -0.019 A 
ATOM     21  C   UNL     1      -5.763  -7.896   0.009  0.00  0.00    +0.055 A 
ATOM     22  C   UNL     1      -5.606  -6.519   0.021  0.00  0.00    +0.162 A 
BRANCH  22  23
ATOM     23  O   UNL     1      -6.697  -5.708   0.035  0.00  0.00    -0.491 OA
ATOM     24  C   UNL     1      -7.977  -6.343   0.044  0.00  0.00    +0.277 C 
ENDBRANCH  22  23
BRANCH  17  25
ATOM     25  O   UNL     1      -4.168  -4.617   0.017  0.00  0.00    -0.488 OA
BRANCH  25  26
ATOM     26  C   UNL     1      -2.827  -4.123   0.007  0.00  0.00    +0.229 C 
BRANCH  26  27
ATOM     27  C   UNL     1      -2.848  -2.593   0.015  0.00  0.00    +0.041 C 
BRANCH  27  28
ATOM     28  C   UNL     1      -1.413  -2.063   0.004  0.00  0.00    +0.003 C 
BRANCH  28  29
ATOM     29  C   UNL     1      -1.433  -0.534   0.013  0.00  0.00    -0.000 C 
BRANCH  29  31
ATOM     30  C   UNL     1      -0.019   1.526   0.010  0.00  0.00    +0.004 C 
ATOM     31  C   UNL     1       0.002  -0.004   0.002  0.00  0.00    -0.003 C 
ENDBRANCH  29  31
ENDBRANCH  28  29
ENDBRANCH  27  28
ENDBRANCH  26  27
ENDBRANCH  25  26
ENDBRANCH  17  25
ENDBRANCH   1  20
BRANCH  15  32
ATOM     32  C   UNL     1      -3.668 -10.604  -2.320  0.00  0.00    +0.090 C 
BRANCH  32  33
ATOM     33  C   UNL     1      -2.703  -9.439  -2.547  0.00  0.00    -0.060 C 
BRANCH  33  34
ATOM     34  N   UNL     1      -2.550  -9.203  -3.989  0.00  0.00    +0.377 N 
ATOM     35  C   UNL     1      -3.832  -8.761  -4.552  0.00  0.00    -0.097 C 
ATOM     36  C   UNL     1      -1.534  -8.165  -4.210  0.00  0.00    -0.097 C 
ATOM     37  H   UNL     1      -2.261 -10.058  -4.440  0.00  0.00    -0.083 HD
ENDBRANCH  33  34
ENDBRANCH  32  33
ENDBRANCH  15  32
TORSDOF 11
