REMARK  Name = ZINC21171522
REMARK  12 active torsions:
REMARK  status: ('A' for Active; 'I' for Inactive)
REMARK    1  A    between atoms: C_1  and  C_2
REMARK    2  A    between atoms: C_5  and  S_8
REMARK    3  A    between atoms: S_8  and  C_11
REMARK    4  A    between atoms: C_12  and  N_26
REMARK    5  A    between atoms: C_14  and  S_16
REMARK    6  A    between atoms: S_16  and  C_19
REMARK    7  A    between atoms: C_22  and  C_25
REMARK    8  A    between atoms: N_26  and  C_27
REMARK    9  A    between atoms: C_27  and  C_28
REMARK   10  A    between atoms: C_28  and  N_29
REMARK   11  A    between atoms: N_29  and  C_30
REMARK   12  A    between atoms: N_29  and  C_31
REMARK                            x       y       z     vdW  Elec       q    Type
REMARK                         _______ _______ _______ _____ _____    ______ ____
ROOT
ATOM      1  C   UNL     1       1.426  -2.499  -2.474  0.00  0.00    +0.212 A 
ATOM      2  C   UNL     1       0.832  -1.847  -1.433  0.00  0.00    +0.113 A 
ATOM      3  S   UNL     1       0.295  -3.235  -0.442  0.00  0.00    -0.032 S 
ATOM      4  C   UNL     1       0.909  -4.523  -1.519  0.00  0.00    +0.224 A 
ATOM      5  N   UNL     1       1.448  -3.816  -2.487  0.00  0.00    -0.201 NA
ENDROOT
BRANCH   1   6
ATOM      6  S   UNL     1       2.160  -1.586  -3.790  0.00  0.00    +0.044 S 
ATOM      7  O   UNL     1       2.176  -2.446  -4.921  0.00  0.00    -0.163 OA
ATOM      8  O   UNL     1       1.524  -0.316  -3.807  0.00  0.00    -0.163 OA
BRANCH   6  13
ATOM      9  C   UNL     1       7.922  -0.609  -2.288  0.00  0.00    +0.044 C 
ATOM     10  C   UNL     1       6.483  -0.853  -2.663  0.00  0.00    -0.050 A 
ATOM     11  C   UNL     1       6.136  -1.989  -3.371  0.00  0.00    +0.005 A 
ATOM     12  C   UNL     1       4.816  -2.213  -3.715  0.00  0.00    +0.028 A 
ATOM     13  C   UNL     1       3.843  -1.301  -3.351  0.00  0.00    +0.095 A 
ATOM     14  C   UNL     1       4.191  -0.162  -2.649  0.00  0.00    +0.028 A 
ATOM     15  C   UNL     1       5.510   0.060  -2.301  0.00  0.00    +0.005 A 
ENDBRANCH   6  13
ENDBRANCH   1   6
BRANCH   4  16
ATOM     16  S   UNL     1       0.821  -6.273  -1.330  0.00  0.00    +0.049 S 
ATOM     17  O   UNL     1      -0.288  -6.534  -0.481  0.00  0.00    -0.162 OA
ATOM     18  O   UNL     1       0.930  -6.828  -2.634  0.00  0.00    -0.162 OA
BRANCH  16  19
ATOM     19  C   UNL     1       2.261  -6.775  -0.447  0.00  0.00    +0.096 A 
ATOM     20  C   UNL     1       3.409  -7.118  -1.136  0.00  0.00    +0.028 A 
ATOM     21  C   UNL     1       4.540  -7.508  -0.443  0.00  0.00    +0.005 A 
ATOM     22  C   UNL     1       4.520  -7.563   0.938  0.00  0.00    -0.050 A 
ATOM     23  C   UNL     1       3.370  -7.224   1.627  0.00  0.00    +0.005 A 
ATOM     24  C   UNL     1       2.240  -6.830   0.934  0.00  0.00    +0.028 A 
ATOM     25  C   UNL     1       5.752  -7.991   1.694  0.00  0.00    +0.044 C 
ENDBRANCH  16  19
ENDBRANCH   4  16
BRANCH   2  26
ATOM     26  N   UNL     1       0.688  -0.476  -1.203  0.00  0.00    -0.337 N 
ATOM     27  H   UNL     1       1.089   0.248  -1.927  0.00  0.00    +0.147 HD
BRANCH  26  28
ATOM     28  C   UNL     1       0.002  -0.004   0.002  0.00  0.00    +0.083 C 
BRANCH  28  29
ATOM     29  C   UNL     1      -0.019   1.526   0.010  0.00  0.00    -0.061 C 
BRANCH  29  30
ATOM     30  N   UNL     1      -0.706   2.000   1.219  0.00  0.00    +0.377 N 
ATOM     31  C   UNL     1      -0.541   3.450   1.384  0.00  0.00    -0.097 C 
ATOM     32  C   UNL     1      -2.128   1.631   1.195  0.00  0.00    -0.097 C 
ATOM     33  H   UNL     1      -0.244   1.506   2.086  0.00  0.00    -0.083 HD
ENDBRANCH  29  30
ENDBRANCH  28  29
ENDBRANCH  26  28
ENDBRANCH   2  26
TORSDOF 8
