REMARK  Name = ZINC07700829
REMARK  9 active torsions:
REMARK  status: ('A' for Active; 'I' for Inactive)
REMARK    1  A    between atoms: C_1  and  N_2
REMARK    2  A    between atoms: N_2  and  C_3
REMARK    3  A    between atoms: N_2  and  C_15
REMARK    4  A    between atoms: C_3  and  C_4
REMARK    5  A    between atoms: N_6  and  C_7
REMARK    6  A    between atoms: C_12  and  S_13
REMARK    7  A    between atoms: S_13  and  C_14
REMARK    8  A    between atoms: C_15  and  C_16
REMARK    9  A    between atoms: N_21  and  C_22
REMARK                            x       y       z     vdW  Elec       q    Type
REMARK                         _______ _______ _______ _____ _____    ______ ____
ROOT
ATOM      1  C   UNL     1      -0.217   0.682  -0.605  0.00  0.00    -0.095 C 
ATOM      2  N   UNL     1      -0.088  -0.749  -0.301  0.00  0.00    +0.389 N 
ATOM      3  H   UNL     1       0.320  -1.226  -1.091  0.00  0.00    -0.081 HD
ENDROOT
BRANCH   2   4
ATOM      4  C   UNL     1      -1.417  -1.311  -0.022  0.00  0.00    +0.019 C 
BRANCH   4   5
ATOM      5  C   UNL     1      -2.263  -1.243  -1.268  0.00  0.00    +0.201 C 
ATOM      6  O   UNL     1      -1.804  -0.772  -2.287  0.00  0.00    -0.278 OA
ATOM      7  N   UNL     1      -3.529  -1.704  -1.249  0.00  0.00    -0.286 N 
ATOM      8  H   UNL     1      -3.874  -2.141  -0.454  0.00  0.00    +0.155 HD
BRANCH   7   9
ATOM      9  C   UNL     1      -4.346  -1.554  -2.377  0.00  0.00    +0.047 A 
ATOM     10  C   UNL     1      -3.792  -1.585  -3.647  0.00  0.00    +0.024 A 
ATOM     11  C   UNL     1      -4.600  -1.436  -4.759  0.00  0.00    +0.002 A 
ATOM     12  C   UNL     1      -5.963  -1.256  -4.609  0.00  0.00    +0.001 A 
ATOM     13  C   UNL     1      -6.525  -1.223  -3.346  0.00  0.00    +0.016 A 
ATOM     14  C   UNL     1      -5.722  -1.377  -2.225  0.00  0.00    +0.029 A 
BRANCH  14  15
ATOM     15  S   UNL     1      -6.436  -1.343  -0.615  0.00  0.00    -0.127 S 
ATOM     16  C   UNL     1      -8.207  -1.097  -0.925  0.00  0.00    +0.090 C 
ENDBRANCH  14  15
ENDBRANCH   7   9
ENDBRANCH   4   5
ENDBRANCH   2   4
BRANCH   2  17
ATOM     17  C   UNL     1       0.774  -0.925   0.875  0.00  0.00    +0.019 C 
BRANCH  17  18
ATOM     18  C   UNL     1       2.170  -0.460   0.549  0.00  0.00    +0.204 C 
ATOM     19  O   UNL     1       2.421  -0.026  -0.555  0.00  0.00    -0.277 OA
ATOM     20  N   UNL     1       3.138  -0.527   1.483  0.00  0.00    -0.241 N 
ATOM     21  C   UNL     1       4.387  -0.112   1.191  0.00  0.00    +0.310 C 
ATOM     22  O   UNL     1       4.639   0.324   0.085  0.00  0.00    -0.252 OA
ATOM     23  N   UNL     1       5.356  -0.179   2.126  0.00  0.00    -0.269 N 
ATOM     24  H   UNL     1       2.937  -0.875   2.366  0.00  0.00    +0.159 HD
ATOM     25  H   UNL     1       5.174  -0.594   2.983  0.00  0.00    +0.156 HD
BRANCH  23  26
ATOM     26  C   UNL     1       6.623   0.350   1.859  0.00  0.00    +0.035 A 
ATOM     27  C   UNL     1       7.755  -0.256   2.386  0.00  0.00    +0.023 A 
ATOM     28  C   UNL     1       9.005   0.269   2.121  0.00  0.00    +0.002 A 
ATOM     29  C   UNL     1       9.129   1.397   1.332  0.00  0.00    +0.000 A 
ATOM     30  C   UNL     1       8.004   2.004   0.806  0.00  0.00    +0.002 A 
ATOM     31  C   UNL     1       6.752   1.480   1.062  0.00  0.00    +0.023 A 
ENDBRANCH  23  26
ENDBRANCH  17  18
ENDBRANCH   2  17
TORSDOF 7
