REMARK  Name = ZINC36063958
REMARK  17 active torsions:
REMARK  status: ('A' for Active; 'I' for Inactive)
REMARK    1  A    between atoms: C_1  and  C_2
REMARK    2  A    between atoms: C_2  and  O_3
REMARK    3  A    between atoms: O_3  and  C_4
REMARK    4  A    between atoms: C_7  and  C_10
REMARK    5  A    between atoms: C_10  and  N_11
REMARK    6  A    between atoms: N_11  and  C_12
REMARK    7  A    between atoms: N_11  and  C_32
REMARK    8  A    between atoms: C_12  and  C_13
REMARK    9  A    between atoms: C_15  and  C_18
REMARK   10  A    between atoms: C_24  and  C_27
REMARK   11  A    between atoms: C_27  and  O_29
REMARK   12  A    between atoms: O_29  and  C_30
REMARK   13  A    between atoms: C_30  and  C_31
REMARK   14  A    between atoms: C_32  and  C_34
REMARK   15  A    between atoms: C_32  and  C_35
REMARK   16  A    between atoms: C_35  and  C_36
REMARK   17  A    between atoms: C_35  and  C_37
REMARK                            x       y       z     vdW  Elec       q    Type
REMARK                         _______ _______ _______ _____ _____    ______ ____
ROOT
ATOM      1  C   UNL     1      -0.145  -8.142  -2.366  0.00  0.00    +0.020 C 
ENDROOT
BRANCH   1   2
ATOM      2  C   UNL     1      -1.298  -8.927  -2.938  0.00  0.00    +0.179 A 
ATOM      3  N   UNL     1      -1.310  -9.508  -4.100  0.00  0.00    -0.210 NA
ATOM      4  C   UNL     1      -2.516 -10.116  -4.266  0.00  0.00    +0.164 A 
ATOM      5  C   UNL     1      -3.243  -9.876  -3.141  0.00  0.00    +0.230 A 
ATOM      6  O   UNL     1      -2.471  -9.141  -2.325  0.00  0.00    -0.449 OA
BRANCH   4   7
ATOM      7  C   UNL     1      -2.953 -10.889  -5.443  0.00  0.00    +0.268 C 
ATOM      8  O   UNL     1      -4.101 -11.283  -5.519  0.00  0.00    -0.268 OA
ATOM      9  N   UNL     1      -2.080 -11.158  -6.434  0.00  0.00    -0.295 N 
ATOM     10  C   UNL     1      -0.657 -10.820  -6.291  0.00  0.00    +0.108 C 
ATOM     11  C   UNL     1       0.178 -12.075  -6.563  0.00  0.00    +0.020 C 
ATOM     12  C   UNL     1      -0.198 -12.646  -7.932  0.00  0.00    +0.018 C 
ATOM     13  C   UNL     1      -1.677 -13.040  -7.934  0.00  0.00    +0.115 C 
ATOM     14  C   UNL     1      -2.532 -11.802  -7.675  0.00  0.00    +0.122 C 
BRANCH  13  15
ATOM     15  C   UNL     1      -2.038 -13.633  -9.271  0.00  0.00    +0.312 C 
ATOM     16  O   UNL     1      -1.198 -13.731 -10.135  0.00  0.00    -0.250 OA
BRANCH  15  17
ATOM     17  O   UNL     1      -3.292 -14.053  -9.503  0.00  0.00    -0.465 OA
BRANCH  17  18
ATOM     18  C   UNL     1      -3.563 -14.604 -10.793  0.00  0.00    +0.229 C 
ATOM     19  C   UNL     1      -5.032 -15.023 -10.870  0.00  0.00    +0.048 C 
ENDBRANCH  17  18
ENDBRANCH  15  17
ENDBRANCH  13  15
ENDBRANCH   4   7
ENDBRANCH   1   2
BRANCH   1  20
ATOM     20  N   UNL     1      -0.495  -6.716  -2.328  0.00  0.00    +0.390 N 
ATOM     21  H   UNL     1      -1.384  -6.601  -1.865  0.00  0.00    -0.080 HD
BRANCH  20  22
ATOM     22  C   UNL     1      -0.586  -6.197  -3.699  0.00  0.00    -0.068 C 
ATOM     23  C   UNL     1       0.538  -6.797  -4.547  0.00  0.00    -0.013 C 
BRANCH  22  24
ATOM     24  C   UNL     1      -1.939  -6.580  -4.301  0.00  0.00    -0.031 C 
ATOM     25  C   UNL     1      -3.061  -5.922  -3.494  0.00  0.00    +0.005 C 
ATOM     26  C   UNL     1      -2.006  -6.101  -5.752  0.00  0.00    +0.005 C 
ENDBRANCH  22  24
ENDBRANCH  20  22
BRANCH  20  27
ATOM     27  C   UNL     1       0.540  -5.978  -1.592  0.00  0.00    -0.042 C 
BRANCH  27  31
ATOM     28  C   UNL     1      -0.673  -1.907  -1.127  0.00  0.00    +0.121 A 
ATOM     29  C   UNL     1      -1.118  -2.871  -0.234  0.00  0.00    +0.046 A 
ATOM     30  C   UNL     1      -0.725  -4.186  -0.387  0.00  0.00    +0.005 A 
ATOM     31  C   UNL     1       0.112  -4.542  -1.428  0.00  0.00    -0.064 A 
ATOM     32  C   UNL     1       0.558  -3.583  -2.319  0.00  0.00    +0.005 A 
ATOM     33  C   UNL     1       0.162  -2.267  -2.174  0.00  0.00    +0.046 A 
BRANCH  28  34
ATOM     34  O   UNL     1      -1.059  -0.612  -0.979  0.00  0.00    -0.492 OA
BRANCH  34  36
ATOM     35  C   UNL     1      -2.244   1.182   0.125  0.00  0.00    +0.048 C 
ATOM     36  C   UNL     1      -1.919  -0.313   0.122  0.00  0.00    +0.225 C 
ENDBRANCH  34  36
ENDBRANCH  28  34
ENDBRANCH  27  31
ENDBRANCH  20  27
ENDBRANCH   1  20
TORSDOF 12
