REMARK  Name = ZINC64622779
REMARK  8 active torsions:
REMARK  status: ('A' for Active; 'I' for Inactive)
REMARK    1  A    between atoms: C_1  and  O_2
REMARK    2  A    between atoms: O_2  and  C_3
REMARK    3  A    between atoms: C_9  and  C_12
REMARK    4  A    between atoms: C_12  and  C_13
REMARK    5  A    between atoms: C_13  and  N_14
REMARK    6  A    between atoms: C_15  and  C_17
REMARK    7  A    between atoms: C_17  and  N_18
REMARK    8  A    between atoms: C_26  and  C_28
REMARK                            x       y       z     vdW  Elec       q    Type
REMARK                         _______ _______ _______ _____ _____    ______ ____
ROOT
ATOM      1  N   UNL     1      -0.752  -6.781  -1.509  0.00  0.00    -0.314 N 
ATOM      2  C   UNL     1      -1.922  -7.385  -1.796  0.00  0.00    +0.230 C 
ATOM      3  O   UNL     1      -2.617  -6.964  -2.697  0.00  0.00    -0.274 OA
ATOM      4  H   UNL     1      -0.196  -7.118  -0.789  0.00  0.00    +0.149 HD
ENDROOT
BRANCH   1   5
ATOM      5  C   UNL     1      -0.319  -5.616  -2.284  0.00  0.00    +0.108 C 
BRANCH   5   6
ATOM      6  C   UNL     1       1.031  -5.126  -1.758  0.00  0.00    +0.052 C 
BRANCH   6  13
ATOM      7  C   UNL     1       0.606  -0.607  -1.056  0.00  0.00    +0.121 A 
ATOM      8  C   UNL     1       1.172   0.195  -2.062  0.00  0.00    +0.047 A 
ATOM      9  C   UNL     1       1.790  -0.325  -3.144  0.00  0.00    +0.029 A 
ATOM     10  C   UNL     1       1.886  -1.780  -3.299  0.00  0.00    +0.043 A 
ATOM     11  N   UNL     1       2.419  -2.528  -4.232  0.00  0.00    -0.380 N 
ATOM     12  C   UNL     1       2.222  -3.937  -3.871  0.00  0.00    +0.144 C 
ATOM     13  C   UNL     1       1.476  -3.927  -2.555  0.00  0.00    -0.040 C 
ATOM     14  C   UNL     1       1.290  -2.626  -2.239  0.00  0.00    +0.002 A 
ATOM     15  C   UNL     1       0.646  -1.960  -1.102  0.00  0.00    +0.055 A 
ATOM     16  H   UNL     1       2.869  -2.205  -5.029  0.00  0.00    +0.160 HD
BRANCH   7  18
ATOM     17  C   UNL     1      -0.017   1.425   0.010  0.00  0.00    +0.277 C 
ATOM     18  O   UNL     1       0.002  -0.004   0.002  0.00  0.00    -0.495 OA
ENDBRANCH   7  18
ENDBRANCH   6  13
ENDBRANCH   5   6
ENDBRANCH   1   5
BRANCH   2  19
ATOM     19  C   UNL     1      -2.367  -8.584  -0.999  0.00  0.00    +0.201 C 
BRANCH  19  20
ATOM     20  N   UNL     1      -3.660  -9.053  -1.503  0.00  0.00    -0.313 N 
ATOM     21  C   UNL     1      -4.904  -8.614  -1.044  0.00  0.00    +0.034 A 
ATOM     22  C   UNL     1      -5.202  -7.677  -0.052  0.00  0.00    +0.025 A 
ATOM     23  C   UNL     1      -6.512  -7.381   0.255  0.00  0.00    +0.022 A 
ATOM     24  C   UNL     1      -7.545  -8.012  -0.417  0.00  0.00    +0.041 A 
ATOM     25  C   UNL     1      -7.258  -8.941  -1.401  0.00  0.00    +0.025 A 
ATOM     26  C   UNL     1      -5.945  -9.239  -1.712  0.00  0.00    -0.023 A 
ATOM     27  C   UNL     1      -5.359 -10.198  -2.725  0.00  0.00    +0.064 C 
ATOM     28  C   UNL     1      -3.838 -10.046  -2.565  0.00  0.00    +0.115 C 
ATOM     29 CL   UNL     1      -9.194  -7.638  -0.027  0.00  0.00    -0.084 Cl
BRANCH  28  30
ATOM     30  C   UNL     1      -3.224 -11.361  -2.160  0.00  0.00    +0.010 A 
ATOM     31  C   UNL     1      -2.508 -12.236  -2.908  0.00  0.00    +0.013 A 
ATOM     32  C   UNL     1      -2.037 -13.394  -2.318  0.00  0.00    +0.008 A 
ATOM     33  C   UNL     1      -2.304 -13.620  -1.009  0.00  0.00    +0.045 A 
ATOM     34  S   UNL     1      -3.243 -12.167  -0.567  0.00  0.00    -0.100 S 
ENDBRANCH  28  30
ENDBRANCH  19  20
ENDBRANCH   2  19
TORSDOF 7
