REMARK  Name = ZINC36206640
REMARK  14 active torsions:
REMARK  status: ('A' for Active; 'I' for Inactive)
REMARK    1  A    between atoms: C_1  and  C_2
REMARK    2  A    between atoms: C_2  and  O_3
REMARK    3  A    between atoms: O_3  and  C_4
REMARK    4  A    between atoms: C_4  and  C_6
REMARK    5  A    between atoms: C_7  and  C_36
REMARK    6  A    between atoms: C_13  and  C_17
REMARK    7  A    between atoms: C_17  and  N_18
REMARK    8  A    between atoms: N_18  and  C_19
REMARK    9  A    between atoms: N_18  and  C_25
REMARK   10  A    between atoms: C_19  and  C_20
REMARK   11  A    between atoms: C_25  and  C_26
REMARK   12  A    between atoms: C_26  and  C_28
REMARK   13  A    between atoms: C_26  and  O_35
REMARK   14  A    between atoms: C_28  and  C_29
REMARK                            x       y       z     vdW  Elec       q    Type
REMARK                         _______ _______ _______ _____ _____    ______ ____
ROOT
ATOM      1  N   UNL     1       4.754  -3.019   8.081  0.00  0.00    +0.391 N 
ATOM      2  H   UNL     1       3.896  -2.514   8.246  0.00  0.00    -0.080 HD
ENDROOT
BRANCH   1   3
ATOM      3  C   UNL     1       4.441  -4.361   7.571  0.00  0.00    -0.003 C 
BRANCH   3  11
ATOM      4  C   UNL     1       0.335  -5.832  12.150  0.00  0.00    +0.102 A 
ATOM      5  C   UNL     1       0.763  -6.687  11.176  0.00  0.00    -0.015 A 
ATOM      6  C   UNL     1       1.675  -6.244  10.216  0.00  0.00    +0.076 A 
ATOM      7  C   UNL     1       2.272  -6.984   9.081  0.00  0.00    +0.260 A 
ATOM      8  O   UNL     1       1.986  -8.150   8.876  0.00  0.00    -0.267 OA
ATOM      9  N   UNL     1       3.139  -6.335   8.280  0.00  0.00    -0.312 N 
ATOM     10  H   UNL     1       3.540  -6.805   7.532  0.00  0.00    +0.170 HD
ATOM     11  C   UNL     1       3.465  -5.037   8.499  0.00  0.00    +0.094 A 
ATOM     12  N   UNL     1       2.957  -4.355   9.490  0.00  0.00    -0.229 NA
ATOM     13  C   UNL     1       2.093  -4.899  10.338  0.00  0.00    +0.116 A 
ATOM     14  S   UNL     1       1.202  -4.322  11.760  0.00  0.00    -0.062 S 
ATOM     15  C   UNL     1       0.254  -8.104  11.137  0.00  0.00    +0.046 C 
BRANCH   4  16
ATOM     16  C   UNL     1      -0.608  -6.089  13.242  0.00  0.00    +0.346 C 
ATOM     17  O   UNL     1      -1.113  -7.189  13.362  0.00  0.00    -0.244 OA
BRANCH  16  18
ATOM     18  O   UNL     1      -0.915  -5.106  14.113  0.00  0.00    -0.461 OA
BRANCH  18  20
ATOM     19  C   UNL     1      -2.065  -4.197  16.034  0.00  0.00    +0.048 C 
ATOM     20  C   UNL     1      -1.842  -5.427  15.152  0.00  0.00    +0.229 C 
ENDBRANCH  18  20
ENDBRANCH  16  18
ENDBRANCH   4  16
ENDBRANCH   3  11
ENDBRANCH   1   3
BRANCH   1  21
ATOM     21  C   UNL     1       5.566  -2.297   7.093  0.00  0.00    -0.002 C 
BRANCH  21  22
ATOM     22  C   UNL     1       4.753  -2.068   5.845  0.00  0.00    +0.089 A 
ATOM     23  C   UNL     1       3.897  -1.051   5.640  0.00  0.00    +0.042 A 
ATOM     24  C   UNL     1       3.357  -1.226   4.344  0.00  0.00    +0.041 A 
ATOM     25  C   UNL     1       3.916  -2.338   3.836  0.00  0.00    +0.195 A 
ATOM     26  O   UNL     1       4.765  -2.841   4.747  0.00  0.00    -0.470 OA
ENDBRANCH  21  22
ENDBRANCH   1  21
BRANCH   1  27
ATOM     27  C   UNL     1       5.502  -3.136   9.340  0.00  0.00    -0.046 C 
BRANCH  27  28
ATOM     28  C   UNL     1       5.720  -1.744   9.935  0.00  0.00    +0.102 C 
BRANCH  28  29
ATOM     29  O   UNL     1       4.458  -1.178  10.297  0.00  0.00    -0.393 OA
ATOM     30  H   UNL     1       3.968  -1.695  10.951  0.00  0.00    +0.210 HD
ENDBRANCH  28  29
BRANCH  28  31
ATOM     31  C   UNL     1       6.605  -1.853  11.178  0.00  0.00    +0.064 C 
BRANCH  31  32
ATOM     32  C   UNL     1       6.920  -0.473  11.694  0.00  0.00    -0.045 A 
ATOM     33  C   UNL     1       8.037   0.198  11.234  0.00  0.00    +0.004 A 
ATOM     34  C   UNL     1       8.326   1.465  11.707  0.00  0.00    +0.000 A 
ATOM     35  C   UNL     1       7.497   2.060  12.639  0.00  0.00    +0.000 A 
ATOM     36  C   UNL     1       6.379   1.390  13.098  0.00  0.00    +0.000 A 
ATOM     37  C   UNL     1       6.088   0.125  12.622  0.00  0.00    +0.004 A 
ENDBRANCH  31  32
ENDBRANCH  28  31
ENDBRANCH  27  28
ENDBRANCH   1  27
TORSDOF 12
