REMARK  Name = ZINC09044119
REMARK  9 active torsions:
REMARK  status: ('A' for Active; 'I' for Inactive)
REMARK    1  A    between atoms: C_1  and  C_2
REMARK    2  A    between atoms: C_6  and  N_9
REMARK    3  A    between atoms: C_7  and  C_8
REMARK    4  A    between atoms: C_10  and  C_12
REMARK    5  A    between atoms: C_12  and  C_14
REMARK    6  A    between atoms: C_12  and  O_15
REMARK    7  A    between atoms: O_15  and  C_16
REMARK    8  A    between atoms: C_22  and  C_33
REMARK    9  A    between atoms: C_26  and  C_27
REMARK                            x       y       z     vdW  Elec       q    Type
REMARK                         _______ _______ _______ _____ _____    ______ ____
ROOT
ATOM      1  C   UNL     1      -1.343   3.331  -0.065  0.00  0.00    +0.212 A 
ATOM      2  C   UNL     1      -2.539   4.033   0.234  0.00  0.00    +0.235 A 
ATOM      3  O   UNL     1      -2.514   5.176   0.660  0.00  0.00    -0.283 OA
ATOM      4  C   UNL     1      -3.814   3.323   0.017  0.00  0.00    +0.069 A 
ATOM      5  C   UNL     1      -5.038   3.932   0.289  0.00  0.00    +0.035 A 
ATOM      6  C   UNL     1      -6.207   3.236   0.073  0.00  0.00    +0.045 A 
ATOM      7  C   UNL     1      -6.168   1.935  -0.413  0.00  0.00    -0.029 A 
ATOM      8  C   UNL     1      -4.964   1.323  -0.686  0.00  0.00    +0.051 A 
ATOM      9  C   UNL     1      -3.773   2.008  -0.475  0.00  0.00    +0.140 A 
ATOM     10  O   UNL     1      -2.585   1.425  -0.736  0.00  0.00    -0.451 OA
ATOM     11  C   UNL     1      -1.415   2.057  -0.543  0.00  0.00    +0.181 A 
ATOM     12  C   UNL     1      -7.455   1.186  -0.644  0.00  0.00    +0.045 C 
ATOM     13 CL   UNL     1      -7.736   3.986   0.410  0.00  0.00    -0.083 Cl
ENDROOT
BRANCH  11  14
ATOM     14  C   UNL     1      -0.162   1.343  -0.855  0.00  0.00    +0.021 A 
ATOM     15  C   UNL     1      -0.020   0.675  -2.074  0.00  0.00    +0.012 A 
ATOM     16  C   UNL     1       1.152   0.005  -2.356  0.00  0.00    +0.001 A 
ATOM     17  C   UNL     1       2.185  -0.008  -1.435  0.00  0.00    +0.000 A 
ATOM     18  C   UNL     1       2.051   0.652  -0.226  0.00  0.00    +0.001 A 
ATOM     19  C   UNL     1       0.885   1.326   0.070  0.00  0.00    +0.012 A 
ENDBRANCH  11  14
BRANCH   1  20
ATOM     20  O   UNL     1      -0.133   3.927   0.119  0.00  0.00    -0.473 OA
BRANCH  20  21
ATOM     21  C   UNL     1       0.440   4.593  -1.008  0.00  0.00    +0.256 C 
ATOM     22  C   UNL     1       0.025   6.066  -0.995  0.00  0.00    +0.062 C 
BRANCH  21  24
ATOM     23  N   UNL     1       2.693   4.921  -1.973  0.00  0.00    -0.282 N 
ATOM     24  C   UNL     1       1.942   4.494  -0.939  0.00  0.00    +0.258 C 
ATOM     25  O   UNL     1       2.475   4.029   0.047  0.00  0.00    -0.271 OA
ATOM     26  H   UNL     1       2.273   5.355  -2.732  0.00  0.00    +0.155 HD
BRANCH  23  32
ATOM     27  C   UNL     1       6.910   4.237  -4.406  0.00  0.00    +0.044 C 
ATOM     28  C   UNL     1       6.150   4.406  -3.116  0.00  0.00    -0.046 A 
ATOM     29  C   UNL     1       6.824   4.383  -1.909  0.00  0.00    +0.004 A 
ATOM     30  C   UNL     1       6.130   4.537  -0.723  0.00  0.00    +0.002 A 
ATOM     31  C   UNL     1       4.761   4.716  -0.741  0.00  0.00    +0.023 A 
ATOM     32  C   UNL     1       4.081   4.740  -1.951  0.00  0.00    +0.037 A 
ATOM     33  C   UNL     1       4.780   4.579  -3.140  0.00  0.00    -0.026 A 
ATOM     34  C   UNL     1       4.045   4.598  -4.456  0.00  0.00    +0.046 C 
ENDBRANCH  23  32
ENDBRANCH  21  24
ENDBRANCH  20  21
ENDBRANCH   1  20
TORSDOF 5
