REMARK  Name = ZINC39639339
REMARK  10 active torsions:
REMARK  status: ('A' for Active; 'I' for Inactive)
REMARK    1  A    between atoms: C_1  and  C_2
REMARK    2  A    between atoms: C_5  and  C_8
REMARK    3  A    between atoms: C_8  and  C_10
REMARK    4  A    between atoms: C_8  and  N_11
REMARK    5  A    between atoms: C_12  and  C_14
REMARK    6  A    between atoms: C_25  and  C_27
REMARK    7  A    between atoms: C_31  and  O_34
REMARK    8  A    between atoms: C_32  and  C_33
REMARK    9  A    between atoms: O_34  and  C_35
REMARK   10  A    between atoms: C_35  and  C_37
REMARK                            x       y       z     vdW  Elec       q    Type
REMARK                         _______ _______ _______ _____ _____    ______ ____
ROOT
ATOM      1  C   UNL     1       2.587  -6.931   2.307  0.00  0.00    +0.100 C 
ATOM      2  C   UNL     1       3.818  -6.002   2.223  0.00  0.00    +0.121 C 
ATOM      3  N   UNL     1       4.968  -6.873   2.562  0.00  0.00    -0.296 N 
ATOM      4  C   UNL     1       4.663  -8.162   1.895  0.00  0.00    +0.115 C 
ATOM      5  C   UNL     1       3.145  -8.347   2.090  0.00  0.00    -0.004 C 
ATOM      6  C   UNL     1       2.526  -8.974   0.844  0.00  0.00    -0.010 C 
ATOM      7  C   UNL     1       3.052 -10.403   0.683  0.00  0.00    -0.082 C 
ATOM      8  N   UNL     1       2.709 -11.191   1.873  0.00  0.00    +0.379 N 
ATOM      9  C   UNL     1       3.384 -10.635   3.052  0.00  0.00    -0.082 C 
ATOM     10  C   UNL     1       2.872  -9.216   3.314  0.00  0.00    -0.010 C 
ATOM     11  C   UNL     1       6.047  -6.564   3.308  0.00  0.00    +0.247 C 
ATOM     12  O   UNL     1       6.958  -7.362   3.418  0.00  0.00    -0.270 OA
ATOM     13  H   UNL     1       1.711 -11.165   2.015  0.00  0.00    -0.086 HD
ATOM     14  H   UNL     1       3.003 -12.146   1.738  0.00  0.00    -0.086 HD
ENDROOT
BRANCH  11  15
ATOM     15  C   UNL     1       6.124  -5.255   3.991  0.00  0.00    +0.043 A 
ATOM     16  C   UNL     1       5.598  -4.115   3.381  0.00  0.00    +0.013 A 
ATOM     17  C   UNL     1       5.670  -2.895   4.021  0.00  0.00    +0.004 A 
ATOM     18  C   UNL     1       6.263  -2.797   5.267  0.00  0.00    +0.047 A 
ATOM     19  C   UNL     1       6.789  -3.925   5.881  0.00  0.00    +0.135 A 
ATOM     20  C   UNL     1       6.717  -5.156   5.249  0.00  0.00    +0.004 A 
ATOM     21  C   UNL     1       7.282  -6.383   5.917  0.00  0.00    +0.048 C 
BRANCH  19  22
ATOM     22  O   UNL     1       7.370  -3.824   7.106  0.00  0.00    -0.426 OA
BRANCH  22  23
ATOM     23  C   UNL     1       8.699  -3.639   7.159  0.00  0.00    +0.309 C 
ATOM     24  O   UNL     1       9.328  -3.475   6.140  0.00  0.00    -0.251 OA
ATOM     25  C   UNL     1       9.406  -3.636   8.490  0.00  0.00    +0.136 C 
ENDBRANCH  22  23
ENDBRANCH  19  22
ENDBRANCH  11  15
BRANCH   1  27
ATOM     26  N   UNL     1       0.284  -6.840   1.407  0.00  0.00    -0.308 N 
ATOM     27  C   UNL     1       1.595  -6.586   1.225  0.00  0.00    +0.219 C 
ATOM     28  O   UNL     1       1.978  -6.081   0.191  0.00  0.00    -0.275 OA
ATOM     29  H   UNL     1      -0.021  -7.244   2.234  0.00  0.00    +0.149 HD
BRANCH  26  30
ATOM     30  C   UNL     1      -0.679  -6.505   0.355  0.00  0.00    +0.100 C 
ATOM     31  C   UNL     1      -0.749  -7.650  -0.656  0.00  0.00    +0.033 C 
BRANCH  30  36
ATOM     32  C   UNL     1      -5.896  -5.697   2.707  0.00  0.00    +0.044 C 
ATOM     33  C   UNL     1      -4.536  -5.908   2.094  0.00  0.00    -0.050 A 
ATOM     34  C   UNL     1      -4.100  -5.079   1.076  0.00  0.00    +0.004 A 
ATOM     35  C   UNL     1      -2.852  -5.272   0.514  0.00  0.00    +0.006 A 
ATOM     36  C   UNL     1      -2.039  -6.293   0.969  0.00  0.00    -0.027 A 
ATOM     37  C   UNL     1      -2.474  -7.121   1.988  0.00  0.00    +0.006 A 
ATOM     38  C   UNL     1      -3.721  -6.926   2.553  0.00  0.00    +0.004 A 
ENDBRANCH  30  36
ENDBRANCH  26  30
ENDBRANCH   1  27
TORSDOF 6
