REMARK  Name = ZINC13629962
REMARK  8 active torsions:
REMARK  status: ('A' for Active; 'I' for Inactive)
REMARK    1  A    between atoms: C_1  and  C_2
REMARK    2  A    between atoms: C_2  and  N_61
REMARK    3  A    between atoms: C_6  and  C_8
REMARK    4  A    between atoms: C_8  and  N_9
REMARK    5  A    between atoms: C_10  and  C_12
REMARK    6  A    between atoms: C_12  and  C_13
REMARK    7  A    between atoms: C_14  and  C_34
REMARK    8  A    between atoms: C_26  and  C_27
REMARK                            x       y       z     vdW  Elec       q    Type
REMARK                         _______ _______ _______ _____ _____    ______ ____
ROOT
ATOM      1  C   UNL     1       3.068   5.302   0.026  0.00  0.00    +0.049 A 
ATOM      2  C   UNL     1       3.226   5.866   1.251  0.00  0.00    -0.029 A 
ATOM      3  C   UNL     1       3.236   7.329   1.344  0.00  0.00    +0.022 A 
ATOM      4  C   UNL     1       3.394   7.964   2.577  0.00  0.00    +0.024 A 
ATOM      5  C   UNL     1       3.398   9.349   2.631  0.00  0.00    +0.029 A 
ATOM      6  C   UNL     1       3.245  10.111   1.456  0.00  0.00    +0.139 A 
ATOM      7  C   UNL     1       3.089   9.473   0.234  0.00  0.00    +0.093 A 
ATOM      8  C   UNL     1       3.082   8.091   0.168  0.00  0.00    +0.143 A 
ATOM      9  O   UNL     1       2.929   7.464  -1.020  0.00  0.00    -0.422 OA
ATOM     10  C   UNL     1       2.925   6.125  -1.111  0.00  0.00    +0.341 A 
ATOM     11  O   UNL     1       2.789   5.606  -2.205  0.00  0.00    -0.245 OA
ATOM     12  O   UNL     1       3.289  11.412   1.812  0.00  0.00    -0.462 OA
ATOM     13  C   UNL     1       3.460  11.548   3.138  0.00  0.00    +0.204 A 
ATOM     14  C   UNL     1       3.538  10.332   3.723  0.00  0.00    +0.028 A 
ATOM     15  C   UNL     1       3.386   5.010   2.481  0.00  0.00    +0.045 C 
ENDROOT
BRANCH  14  16
ATOM     16  C   UNL     1       3.724  10.044   5.165  0.00  0.00    -0.014 A 
ATOM     17  C   UNL     1       2.874   9.151   5.816  0.00  0.00    +0.011 A 
ATOM     18  C   UNL     1       3.055   8.882   7.157  0.00  0.00    +0.039 A 
ATOM     19  C   UNL     1       4.072   9.507   7.860  0.00  0.00    +0.123 A 
ATOM     20  C   UNL     1       4.916  10.400   7.219  0.00  0.00    +0.039 A 
ATOM     21  C   UNL     1       4.746  10.671   5.877  0.00  0.00    +0.011 A 
ATOM     22  F   UNL     1       4.242   9.246   9.174  0.00  0.00    -0.205 F 
ENDBRANCH  14  16
BRANCH   1  23
ATOM     23  C   UNL     1       3.051   3.802  -0.119  0.00  0.00    +0.138 C 
BRANCH  23  25
ATOM     24  N   UNL     1       1.377   1.982  -0.081  0.00  0.00    -0.317 N 
ATOM     25  C   UNL     1       1.636   3.301   0.015  0.00  0.00    +0.218 C 
ATOM     26  O   UNL     1       0.731   4.084   0.209  0.00  0.00    -0.275 OA
ATOM     27  H   UNL     1       2.101   1.355  -0.237  0.00  0.00    +0.149 HD
BRANCH  24  28
ATOM     28  C   UNL     1       0.002   1.494   0.049  0.00  0.00    +0.089 C 
BRANCH  28  32
ATOM     29  C   UNL     1      -1.793  -1.307  -0.935  0.00  0.00    -0.078 C 
ATOM     30  C   UNL     1      -0.472  -1.769  -1.600  0.00  0.00    -0.020 C 
ATOM     31  C   UNL     1       0.449  -0.540  -1.362  0.00  0.00    -0.016 C 
ATOM     32  C   UNL     1      -0.001  -0.036   0.025  0.00  0.00    -0.051 C 
ATOM     33  N   UNL     1      -1.359  -0.555   0.259  0.00  0.00    +0.382 N 
ATOM     34  H   UNL     1      -1.347  -1.183   1.071  0.00  0.00    -0.081 HD
BRANCH  33  36
ATOM     35  C   UNL     1      -3.718   0.017   0.661  0.00  0.00    -0.017 C 
ATOM     36  C   UNL     1      -2.297   0.567   0.527  0.00  0.00    -0.082 C 
ENDBRANCH  33  36
ENDBRANCH  28  32
ENDBRANCH  24  28
ENDBRANCH  23  25
ENDBRANCH   1  23
TORSDOF 6
