REMARK  Name = ZINC09066581
REMARK  11 active torsions:
REMARK  status: ('A' for Active; 'I' for Inactive)
REMARK    1  A    between atoms: C_1  and  C_2
REMARK    2  A    between atoms: C_2  and  C_5
REMARK    3  A    between atoms: N_3  and  O_4
REMARK    4  A    between atoms: C_5  and  O_39
REMARK    5  A    between atoms: C_6  and  O_38
REMARK    6  A    between atoms: C_11  and  C_37
REMARK    7  A    between atoms: C_21  and  C_36
REMARK    8  A    between atoms: C_24  and  O_27
REMARK    9  A    between atoms: O_27  and  C_28
REMARK   10  A    between atoms: C_28  and  C_30
REMARK   11  A    between atoms: O_39  and  C_40
REMARK                            x       y       z     vdW  Elec       q    Type
REMARK                         _______ _______ _______ _____ _____    ______ ____
ROOT
ATOM      1  C   UNL     1      -2.229   0.943   1.260  0.00  0.00    +0.141 C 
ATOM      2  C   UNL     1      -1.777  -0.424   1.830  0.00  0.00    +0.153 C 
ATOM      3  C   UNL     1      -0.304  -0.244   2.290  0.00  0.00    +0.039 C 
ATOM      4  C   UNL     1      -0.121   1.282   2.290  0.00  0.00    +0.004 C 
ATOM      5  C   UNL     1      -0.903   1.700   1.029  0.00  0.00    +0.008 C 
ATOM      6  C   UNL     1      -1.041   3.198   0.936  0.00  0.00    +0.010 C 
ATOM      7  C   UNL     1       0.196   3.901   1.518  0.00  0.00    +0.005 C 
ATOM      8  C   UNL     1       1.428   3.017   1.390  0.00  0.00    +0.003 C 
ATOM      9  C   UNL     1       1.281   1.802   2.318  0.00  0.00    +0.000 C 
ATOM     10  C   UNL     1       2.349   0.787   1.909  0.00  0.00    +0.031 C 
ATOM     11  C   UNL     1       3.684   1.473   2.061  0.00  0.00    -0.027 C 
ATOM     12  C   UNL     1       3.837   2.760   1.998  0.00  0.00    -0.064 C 
ATOM     13  C   UNL     1       2.721   3.743   1.732  0.00  0.00    -0.008 C 
ATOM     14  C   UNL     1       2.569   4.652   2.946  0.00  0.00    +0.015 C 
ATOM     15  C   UNL     1       3.716   4.421   3.928  0.00  0.00    +0.046 C 
ATOM     16  C   UNL     1       5.078   4.486   3.245  0.00  0.00    +0.181 C 
ATOM     17  C   UNL     1       5.218   3.350   2.224  0.00  0.00    +0.075 C 
ATOM     18  C   UNL     1       3.110   4.599   0.521  0.00  0.00    +0.016 C 
ATOM     19  C   UNL     1      -0.294   1.128  -0.255  0.00  0.00    +0.015 C 
ENDROOT
BRANCH   1  21
ATOM     20  C   UNL     1      -3.485   1.961  -0.785  0.00  0.00    +0.067 C 
ATOM     21  C   UNL     1      -2.950   0.762  -0.047  0.00  0.00    +0.089 C 
ATOM     22  N   UNL     1      -3.108  -0.412  -0.532  0.00  0.00    -0.094 NA
BRANCH  22  23
ATOM     23  O   UNL     1      -3.787  -0.583  -1.763  0.00  0.00    -0.409 OA
ATOM     24  H   UNL     1      -3.857  -1.504  -2.049  0.00  0.00    +0.328 HD
ENDBRANCH  22  23
ENDBRANCH   1  21
BRANCH   2  25
ATOM     25  O   UNL     1      -2.597  -0.788   2.941  0.00  0.00    -0.389 OA
ATOM     26  H   UNL     1      -2.348  -1.625   3.357  0.00  0.00    +0.210 HD
ENDBRANCH   2  25
BRANCH   1  27
ATOM     27  O   UNL     1      -3.040   1.637   2.202  0.00  0.00    -0.368 OA
ATOM     28  C   UNL     1      -4.343   1.077   2.372  0.00  0.00    +0.195 C 
ENDBRANCH   1  27
BRANCH  16  29
ATOM     29  O   UNL     1       5.238   5.767   2.582  0.00  0.00    -0.458 OA
BRANCH  29  30
ATOM     30  C   UNL     1       6.492   6.250   2.480  0.00  0.00    +0.339 C 
ATOM     31  O   UNL     1       7.425   5.617   2.931  0.00  0.00    -0.245 OA
BRANCH  30  32
ATOM     32  C   UNL     1       6.731   7.548   1.818  0.00  0.00    +0.059 A 
ATOM     33  C   UNL     1       5.662   8.276   1.292  0.00  0.00    +0.015 A 
ATOM     34  C   UNL     1       5.892   9.491   0.681  0.00  0.00    +0.001 A 
ATOM     35  C   UNL     1       7.181   9.983   0.577  0.00  0.00    +0.000 A 
ATOM     36  C   UNL     1       8.246   9.265   1.091  0.00  0.00    +0.001 A 
ATOM     37  C   UNL     1       8.029   8.051   1.710  0.00  0.00    +0.015 A 
ENDBRANCH  30  32
ENDBRANCH  29  30
ENDBRANCH  16  29
TORSDOF 7
