REMARK  Name = ZINC37817511
REMARK  5 active torsions:
REMARK  status: ('A' for Active; 'I' for Inactive)
REMARK    1  A    between atoms: C_3  and  C_8
REMARK    2  A    between atoms: C_14  and  C_16
REMARK    3  A    between atoms: C_16  and  N_17
REMARK    4  A    between atoms: C_18  and  C_20
REMARK    5  A    between atoms: C_20  and  N_21
REMARK                            x       y       z     vdW  Elec       q    Type
REMARK                         _______ _______ _______ _____ _____    ______ ____
ROOT
ATOM      1  C   UNL     1       3.672   2.183  -0.022  0.00  0.00    +0.106 C 
ATOM      2  C   UNL     1       4.288   2.192   1.393  0.00  0.00    +0.029 C 
ATOM      3  C   UNL     1       5.807   2.048   1.111  0.00  0.00    +0.021 C 
ATOM      4  C   UNL     1       5.808   1.109  -0.121  0.00  0.00    +0.108 C 
ATOM      5  N   UNL     1       4.638   1.530  -0.918  0.00  0.00    -0.293 N 
ATOM      6  C   UNL     1       4.479   1.347  -2.244  0.00  0.00    +0.233 C 
ATOM      7  O   UNL     1       3.470   1.735  -2.794  0.00  0.00    -0.274 OA
ENDROOT
BRANCH   1  10
ATOM      8  C   UNL     1      -0.017   1.378   0.010  0.00  0.00    +0.001 A 
ATOM      9  C   UNL     1       1.171   2.086   0.002  0.00  0.00    +0.005 A 
ATOM     10  C   UNL     1       2.378   1.411  -0.013  0.00  0.00    -0.026 A 
ATOM     11  C   UNL     1       2.397   0.029  -0.022  0.00  0.00    +0.020 A 
ATOM     12  C   UNL     1       1.210  -0.679  -0.014  0.00  0.00    +0.018 A 
ATOM     13  C   UNL     1       0.002  -0.004   0.002  0.00  0.00    +0.015 A 
ATOM     14 BR   UNL     1       1.236  -2.570  -0.025  0.00  0.00    -0.050 Br
ENDBRANCH   1  10
BRANCH   6  15
ATOM     15  C   UNL     1       5.555   0.658  -3.043  0.00  0.00    +0.200 C 
BRANCH  15  16
ATOM     16  N   UNL     1       5.147   0.582  -4.448  0.00  0.00    -0.308 N 
ATOM     17  C   UNL     1       5.958   0.003  -5.355  0.00  0.00    +0.196 C 
ATOM     18  O   UNL     1       7.027  -0.455  -5.008  0.00  0.00    -0.278 OA
ATOM     19  H   UNL     1       4.293   0.948  -4.726  0.00  0.00    +0.149 HD
BRANCH  17  20
ATOM     20  C   UNL     1       5.538  -0.075  -6.800  0.00  0.00    +0.011 C 
BRANCH  20  21
ATOM     21  N   UNL     1       6.588  -0.746  -7.580  0.00  0.00    +0.384 N 
ATOM     22  H   UNL     1       7.447  -0.223  -7.507  0.00  0.00    -0.089 HD
ATOM     23  H   UNL     1       6.730  -1.678  -7.220  0.00  0.00    -0.089 HD
ATOM     24  H   UNL     1       6.306  -0.799  -8.547  0.00  0.00    -0.089 HD
ENDBRANCH  20  21
ENDBRANCH  17  20
ENDBRANCH  15  16
ENDBRANCH   6  15
TORSDOF 5
