REMARK  Name = ZINC44749476
REMARK  4 active torsions:
REMARK  status: ('A' for Active; 'I' for Inactive)
REMARK    1  A    between atoms: C_1  and  C_2
REMARK    2  A    between atoms: C_4  and  N_21
REMARK    3  A    between atoms: C_7  and  C_8
REMARK    4  A    between atoms: N_12  and  C_13
REMARK                            x       y       z     vdW  Elec       q    Type
REMARK                         _______ _______ _______ _____ _____    ______ ____
ROOT
ATOM      1  C   UNL     1       0.066   0.019   2.494  0.00  0.00    +0.187 A 
ATOM      2  N   UNL     1       0.120   1.325   2.654  0.00  0.00    -0.108 NA
ATOM      3  N   UNL     1       0.051   1.630   3.899  0.00  0.00    -0.022 NA
ATOM      4  N   UNL     1      -0.050   0.567   4.621  0.00  0.00    -0.039 NA
ATOM      5  N   UNL     1      -0.050  -0.528   3.739  0.00  0.00    -0.190 N 
ENDROOT
BRANCH   5   6
ATOM      6  C   UNL     1      -0.147  -1.887   4.067  0.00  0.00    +0.106 A 
ATOM      7  C   UNL     1       0.739  -2.802   3.515  0.00  0.00    +0.050 A 
ATOM      8  C   UNL     1       0.641  -4.141   3.841  0.00  0.00    +0.043 A 
ATOM      9  C   UNL     1      -0.340  -4.572   4.716  0.00  0.00    +0.023 A 
ATOM     10  C   UNL     1      -1.225  -3.666   5.268  0.00  0.00    +0.042 A 
ATOM     11  C   UNL     1      -1.128  -2.322   4.952  0.00  0.00    +0.149 A 
ATOM     12  F   UNL     1      -1.990  -1.435   5.496  0.00  0.00    -0.203 F 
ATOM     13 CL   UNL     1       1.750  -5.285   3.150  0.00  0.00    -0.083 Cl
ENDBRANCH   5   6
BRANCH   1  20
ATOM     14  C   UNL     1       2.140   0.637   0.578  0.00  0.00    +0.044 C 
ATOM     15  C   UNL     1       1.113  -0.424   0.279  0.00  0.00    -0.038 A 
ATOM     16  C   UNL     1       1.161  -1.114  -0.913  0.00  0.00    +0.026 A 
ATOM     17  C   UNL     1       0.214  -2.093  -1.190  0.00  0.00    +0.025 A 
ATOM     18  C   UNL     1      -0.785  -2.380  -0.265  0.00  0.00    +0.023 A 
ATOM     19  C   UNL     1      -0.837  -1.694   0.928  0.00  0.00    +0.014 A 
ATOM     20  C   UNL     1       0.116  -0.715   1.211  0.00  0.00    +0.024 A 
BRANCH  17  21
ATOM     21  N   UNL     1       0.265  -2.789  -2.398  0.00  0.00    -0.358 N 
ATOM     22  H   UNL     1       0.960  -2.589  -3.044  0.00  0.00    +0.142 HD
ATOM     23  H   UNL     1      -0.396  -3.472  -2.592  0.00  0.00    +0.142 HD
ENDBRANCH  17  21
ENDBRANCH   1  20
TORSDOF 3
