REMARK  Name = ZINC33937226
REMARK  12 active torsions:
REMARK  status: ('A' for Active; 'I' for Inactive)
REMARK    1  A    between atoms: C_1  and  C_2
REMARK    2  A    between atoms: C_2  and  C_3
REMARK    3  A    between atoms: C_2  and  C_4
REMARK    4  A    between atoms: C_4  and  C_6
REMARK    5  A    between atoms: C_4  and  N_16
REMARK    6  A    between atoms: N_10  and  C_11
REMARK    7  A    between atoms: N_16  and  C_17
REMARK    8  A    between atoms: N_16  and  C_32
REMARK    9  A    between atoms: C_17  and  C_18
REMARK   10  A    between atoms: C_22  and  O_30
REMARK   11  A    between atoms: O_30  and  C_31
REMARK   12  A    between atoms: C_32  and  C_33
REMARK                            x       y       z     vdW  Elec       q    Type
REMARK                         _______ _______ _______ _____ _____    ______ ____
ROOT
ATOM      1  N   UNL     1      -2.195   0.321  -1.299  0.00  0.00    +0.391 N 
ATOM      2  H   UNL     1      -1.779   0.245  -2.215  0.00  0.00    -0.080 HD
ENDROOT
BRANCH   1   3
ATOM      3  C   UNL     1      -1.379  -0.417  -0.327  0.00  0.00    +0.006 C 
BRANCH   3   4
ATOM      4  C   UNL     1      -1.998  -0.299   1.042  0.00  0.00    +0.139 A 
ATOM      5  N   UNL     1      -3.244  -0.550   1.361  0.00  0.00    -0.115 NA
ATOM      6  N   UNL     1      -3.383  -0.332   2.623  0.00  0.00    -0.023 NA
ATOM      7  N   UNL     1      -2.258   0.051   3.118  0.00  0.00    -0.044 NA
ATOM      8  N   UNL     1      -1.377   0.079   2.175  0.00  0.00    -0.228 N 
BRANCH   8   9
ATOM      9  C   UNL     1       0.032   0.455   2.312  0.00  0.00    +0.111 C 
ATOM     10  C   UNL     1       0.720  -0.445   3.359  0.00  0.00    +0.027 C 
ATOM     11  C   UNL     1       1.700   0.505   4.090  0.00  0.00    +0.002 C 
ATOM     12  C   UNL     1       0.897   1.826   4.176  0.00  0.00    +0.002 C 
ATOM     13  C   UNL     1       0.144   1.899   2.831  0.00  0.00    +0.027 C 
ENDBRANCH   8   9
ENDBRANCH   3   4
BRANCH   3  15
ATOM     14  C   UNL     1      -0.610  -2.018  -2.085  0.00  0.00    +0.006 C 
ATOM     15  C   UNL     1      -1.312  -1.891  -0.731  0.00  0.00    -0.024 C 
ATOM     16  C   UNL     1      -0.529  -2.675   0.325  0.00  0.00    +0.006 C 
ENDBRANCH   3  15
ENDBRANCH   1   3
BRANCH   1  17
ATOM     17  C   UNL     1      -3.551  -0.244  -1.329  0.00  0.00    -0.036 C 
BRANCH  17  18
ATOM     18  C   UNL     1      -4.338   0.397  -2.443  0.00  0.00    +0.001 A 
ATOM     19  C   UNL     1      -4.412  -0.210  -3.654  0.00  0.00    +0.017 A 
ATOM     20  C   UNL     1      -5.185   0.439  -4.715  0.00  0.00    +0.002 A 
ATOM     21  C   UNL     1      -5.297  -0.141  -5.983  0.00  0.00    +0.055 A 
ATOM     22  C   UNL     1      -6.034   0.498  -6.961  0.00  0.00    +0.121 A 
ATOM     23  C   UNL     1      -6.662   1.711  -6.689  0.00  0.00    +0.047 A 
ATOM     24  C   UNL     1      -6.558   2.291  -5.444  0.00  0.00    +0.030 A 
ATOM     25  C   UNL     1      -5.821   1.665  -4.444  0.00  0.00    +0.049 A 
ATOM     26  N   UNL     1      -5.706   2.230  -3.191  0.00  0.00    -0.322 N 
ATOM     27  H   UNL     1      -6.145   3.075  -3.005  0.00  0.00    +0.169 HD
ATOM     28  C   UNL     1      -4.999   1.623  -2.221  0.00  0.00    +0.251 A 
ATOM     29  O   UNL     1      -4.923   2.149  -1.124  0.00  0.00    -0.268 OA
BRANCH  22  30
ATOM     30  O   UNL     1      -6.146  -0.060  -8.196  0.00  0.00    -0.495 OA
ATOM     31  C   UNL     1      -6.922   0.652  -9.161  0.00  0.00    +0.277 C 
ENDBRANCH  22  30
ENDBRANCH  17  18
ENDBRANCH   1  17
BRANCH   1  32
ATOM     32  C   UNL     1      -2.263   1.735  -0.908  0.00  0.00    -0.045 C 
BRANCH  32  33
ATOM     33  C   UNL     1      -0.863   2.349  -0.968  0.00  0.00    +0.102 C 
ATOM     34  C   UNL     1      -0.912   3.815  -0.488  0.00  0.00    +0.032 C 
ATOM     35  C   UNL     1       0.072   4.515  -1.465  0.00  0.00    +0.030 C 
ATOM     36  C   UNL     1      -0.171   3.701  -2.761  0.00  0.00    +0.160 C 
ATOM     37  O   UNL     1      -0.390   2.349  -2.320  0.00  0.00    -0.378 OA
ENDBRANCH  32  33
ENDBRANCH   1  32
TORSDOF 9
