REMARK  Name = ZINC25593085
REMARK  8 active torsions:
REMARK  status: ('A' for Active; 'I' for Inactive)
REMARK    1  A    between atoms: C_4  and  C_7
REMARK    2  A    between atoms: C_15  and  C_18
REMARK    3  A    between atoms: C_18  and  S_19
REMARK    4  A    between atoms: S_19  and  C_20
REMARK    5  A    between atoms: C_23  and  C_26
REMARK    6  A    between atoms: N_24  and  N_25
REMARK    7  A    between atoms: C_26  and  O_27
REMARK    8  A    between atoms: O_27  and  C_28
REMARK                            x       y       z     vdW  Elec       q    Type
REMARK                         _______ _______ _______ _____ _____    ______ ____
ROOT
ATOM      1  C   UNL     1       1.227  -2.185  -0.021  0.00  0.00    +0.116 C 
ENDROOT
BRANCH   1   9
ATOM      2  C   UNL     1       4.748   0.101  -0.388  0.00  0.00    +0.340 C 
ATOM      3  O   UNL     1       4.750   1.336   0.338  0.00  0.00    -0.333 OA
ATOM      4  C   UNL     1       3.669   2.200  -0.025  0.00  0.00    +0.203 C 
ATOM      5  C   UNL     1       2.380   1.417  -0.013  0.00  0.00    +0.023 A 
ATOM      6  C   UNL     1       1.172   2.090   0.002  0.00  0.00    +0.047 A 
ATOM      7  C   UNL     1      -0.017   1.381   0.010  0.00  0.00    +0.124 A 
ATOM      8  C   UNL     1       0.002  -0.004   0.002  0.00  0.00    +0.046 A 
ATOM      9  C   UNL     1       1.207  -0.678  -0.012  0.00  0.00    +0.008 A 
ATOM     10  C   UNL     1       2.400   0.031  -0.018  0.00  0.00    +0.134 A 
ATOM     11  O   UNL     1       3.582  -0.642  -0.023  0.00  0.00    -0.459 OA
ATOM     12  F   UNL     1      -1.196   2.040   0.019  0.00  0.00    -0.205 F 
BRANCH   2  16
ATOM     13  C   UNL     1       8.252  -2.140   0.586  0.00  0.00    +0.000 A 
ATOM     14  C   UNL     1       8.370  -0.884   0.019  0.00  0.00    +0.000 A 
ATOM     15  C   UNL     1       7.236  -0.159  -0.296  0.00  0.00    +0.010 A 
ATOM     16  C   UNL     1       5.984  -0.690  -0.045  0.00  0.00    +0.020 A 
ATOM     17  C   UNL     1       5.867  -1.943   0.526  0.00  0.00    +0.010 A 
ATOM     18  C   UNL     1       7.001  -2.670   0.837  0.00  0.00    +0.000 A 
ENDBRANCH   2  16
ENDBRANCH   1   9
BRANCH   1  19
ATOM     19  S   UNL     1       1.221  -2.778  -1.731  0.00  0.00    -0.080 S 
BRANCH  19  20
ATOM     20  C   UNL     1       1.246  -4.518  -1.452  0.00  0.00    +0.209 A 
ATOM     21  N   UNL     1       1.270  -5.121  -0.286  0.00  0.00    -0.121 NA
ATOM     22  N   UNL     1       1.281  -6.395  -0.454  0.00  0.00    -0.128 NA
ATOM     23  C   UNL     1       1.274  -6.679  -1.725  0.00  0.00    +0.189 A 
ATOM     24  N   UNL     1       1.252  -5.494  -2.407  0.00  0.00    -0.225 N 
BRANCH  24  25
ATOM     25  N   UNL     1       1.238  -5.321  -3.762  0.00  0.00    -0.295 N 
ATOM     26  H   UNL     1       1.244  -6.197  -4.428  0.00  0.00    +0.163 HD
ATOM     27  H   UNL     1       1.220  -4.307  -4.187  0.00  0.00    +0.163 HD
ENDBRANCH  24  25
BRANCH  23  28
ATOM     28  C   UNL     1       1.288  -8.058  -2.332  0.00  0.00    +0.306 C 
BRANCH  28  29
ATOM     29  O   UNL     1       2.639  -8.476  -2.536  0.00  0.00    -0.484 OA
BRANCH  29  30
ATOM     30  C   UNL     1       2.829  -9.707  -3.080  0.00  0.00    +0.121 A 
ATOM     31  C   UNL     1       1.738 -10.498  -3.407  0.00  0.00    +0.048 A 
ATOM     32  C   UNL     1       1.933 -11.746  -3.966  0.00  0.00    +0.042 A 
ATOM     33  C   UNL     1       3.217 -12.212  -4.190  0.00  0.00    +0.124 A 
ATOM     34  C   UNL     1       4.308 -11.426  -3.859  0.00  0.00    +0.042 A 
ATOM     35  C   UNL     1       4.115 -10.175  -3.305  0.00  0.00    +0.048 A 
ATOM     36  F   UNL     1       3.406 -13.435  -4.732  0.00  0.00    -0.205 F 
ENDBRANCH  29  30
ENDBRANCH  28  29
ENDBRANCH  23  28
ENDBRANCH  19  20
ENDBRANCH   1  19
TORSDOF 8
