REMARK  Name = ZINC40267702
REMARK  5 active torsions:
REMARK  status: ('A' for Active; 'I' for Inactive)
REMARK    1  A    between atoms: C_1  and  C_2
REMARK    2  A    between atoms: C_2  and  C_3
REMARK    3  A    between atoms: C_2  and  N_4
REMARK    4  A    between atoms: C_7  and  C_10
REMARK    5  A    between atoms: C_10  and  N_12
REMARK                            x       y       z     vdW  Elec       q    Type
REMARK                         _______ _______ _______ _____ _____    ______ ____
ROOT
ATOM      1  C   UNL     1      -4.197  -4.303  -1.200  0.00  0.00    +0.288 C 
ATOM      2  O   UNL     1      -4.266  -5.420  -1.683  0.00  0.00    -0.266 OA
ENDROOT
BRANCH   1   3
ATOM      3  N   UNL     1      -5.303  -3.699  -0.749  0.00  0.00    -0.151 NA
ATOM      4  C   UNL     1      -6.476  -4.317  -0.828  0.00  0.00    +0.164 A 
ATOM      5  N   UNL     1      -6.757  -5.555  -1.323  0.00  0.00    -0.335 N 
ATOM      6  H   UNL     1      -6.043  -6.106  -1.681  0.00  0.00    +0.168 HD
ATOM      7  C   UNL     1      -8.056  -6.030  -1.318  0.00  0.00    +0.055 A 
ATOM      8  C   UNL     1      -8.515  -7.274  -1.787  0.00  0.00    +0.027 A 
ATOM      9  C   UNL     1      -9.846  -7.607  -1.715  0.00  0.00    +0.002 A 
ATOM     10  C   UNL     1     -10.778  -6.733  -1.181  0.00  0.00    +0.001 A 
ATOM     11  C   UNL     1     -10.355  -5.502  -0.711  0.00  0.00    +0.017 A 
ATOM     12  C   UNL     1      -9.024  -5.168  -0.783  0.00  0.00    +0.039 A 
ATOM     13  S   UNL     1      -8.082  -3.739  -0.305  0.00  0.00    -0.052 S 
ENDBRANCH   1   3
BRANCH   1  17
ATOM     14  N   UNL     1      -1.372  -0.511   0.012  0.00  0.00    -0.321 N 
ATOM     15  C   UNL     1      -1.651  -1.768  -0.498  0.00  0.00    +0.159 A 
ATOM     16  N   UNL     1      -2.807  -2.394  -0.585  0.00  0.00    -0.220 NA
ATOM     17  C   UNL     1      -2.893  -3.616  -1.112  0.00  0.00    +0.137 A 
ATOM     18  C   UNL     1      -1.755  -4.226  -1.571  0.00  0.00    +0.081 A 
ATOM     19  S   UNL     1      -0.537  -2.964  -1.222  0.00  0.00    -0.060 S 
ATOM     20  H   UNL     1      -2.087   0.033   0.377  0.00  0.00    +0.148 HD
BRANCH  14  22
ATOM     21  C   UNL     1      -0.019   1.526   0.010  0.00  0.00    +0.027 C 
ATOM     22  C   UNL     1       0.002  -0.004   0.002  0.00  0.00    +0.066 C 
ATOM     23  C   UNL     1       0.742  -0.511   1.242  0.00  0.00    +0.027 C 
ENDBRANCH  14  22
ENDBRANCH   1  17
TORSDOF 3
