REMARK  Name = ZINC64591643
REMARK  8 active torsions:
REMARK  status: ('A' for Active; 'I' for Inactive)
REMARK    1  A    between atoms: C_1  and  C_2
REMARK    2  A    between atoms: C_2  and  O_3
REMARK    3  A    between atoms: O_3  and  C_4
REMARK    4  A    between atoms: C_7  and  N_10
REMARK    5  A    between atoms: C_14  and  C_20
REMARK    6  A    between atoms: C_20  and  C_21
REMARK    7  A    between atoms: C_21  and  C_22
REMARK    8  A    between atoms: C_22  and  C_23
REMARK                            x       y       z     vdW  Elec       q    Type
REMARK                         _______ _______ _______ _____ _____    ______ ____
ROOT
ATOM      1  N   UNL     1       1.125  -5.972   1.779  0.00  0.00    -0.280 N 
ATOM      2  C   UNL     1       0.496  -6.818   0.885  0.00  0.00    +0.113 A 
ATOM      3  C   UNL     1       0.588  -8.139   0.987  0.00  0.00    +0.112 A 
ATOM      4  N   UNL     1       1.321  -8.727   2.000  0.00  0.00    -0.281 N 
ATOM      5  C   UNL     1       1.588  -9.999   2.349  0.00  0.00    +0.138 A 
ATOM      6  N   UNL     1       2.352  -9.965   3.416  0.00  0.00    -0.134 NA
ATOM      7  N   UNL     1       2.580  -8.744   3.757  0.00  0.00    -0.124 NA
ATOM      8  C   UNL     1       1.968  -7.938   2.918  0.00  0.00    +0.227 A 
ATOM      9  C   UNL     1       1.864  -6.479   2.791  0.00  0.00    +0.301 A 
ATOM     10  O   UNL     1       2.426  -5.743   3.582  0.00  0.00    -0.263 OA
ENDROOT
BRANCH   1  14
ATOM     11  C   UNL     1       0.755  -1.843   1.344  0.00  0.00    +0.121 A 
ATOM     12  C   UNL     1       1.978  -2.457   1.115  0.00  0.00    +0.047 A 
ATOM     13  C   UNL     1       2.101  -3.825   1.259  0.00  0.00    +0.030 A 
ATOM     14  C   UNL     1       1.001  -4.585   1.633  0.00  0.00    +0.050 A 
ATOM     15  C   UNL     1      -0.223  -3.969   1.862  0.00  0.00    +0.030 A 
ATOM     16  C   UNL     1      -0.343  -2.601   1.723  0.00  0.00    +0.047 A 
BRANCH  11  17
ATOM     17  O   UNL     1       0.634  -0.496   1.202  0.00  0.00    -0.492 OA
BRANCH  17  19
ATOM     18  C   UNL     1       1.478   1.713   0.701  0.00  0.00    +0.048 C 
ATOM     19  C   UNL     1       1.806   0.223   0.809  0.00  0.00    +0.225 C 
ENDBRANCH  17  19
ENDBRANCH  11  17
ENDBRANCH   1  14
BRANCH   5  20
ATOM     20  C   UNL     1       1.099 -11.237   1.643  0.00  0.00    +0.077 C 
BRANCH  20  21
ATOM     21  C   UNL     1       2.106 -11.641   0.564  0.00  0.00    +0.017 C 
BRANCH  21  22
ATOM     22  C   UNL     1       1.609 -12.898  -0.152  0.00  0.00    +0.096 C 
BRANCH  22  23
ATOM     23  C   UNL     1       2.601 -13.296  -1.215  0.00  0.00    +0.216 C 
ATOM     24  O   UNL     1       3.606 -12.638  -1.383  0.00  0.00    -0.276 OA
ATOM     25  N   UNL     1       2.371 -14.382  -1.979  0.00  0.00    -0.298 N 
ATOM     26  C   UNL     1       1.154 -15.185  -1.791  0.00  0.00    +0.126 C 
ATOM     27  C   UNL     1       0.417 -15.279  -3.132  0.00  0.00    +0.125 C 
ATOM     28  N   UNL     1       1.378 -15.682  -4.169  0.00  0.00    -0.314 N 
ATOM     29  C   UNL     1       2.595 -14.879  -4.357  0.00  0.00    +0.125 C 
ATOM     30  C   UNL     1       3.329 -14.781  -3.019  0.00  0.00    +0.126 C 
ATOM     31  C   UNL     1       1.141 -16.802  -4.956  0.00  0.00    +0.099 A 
ATOM     32  C   UNL     1      -0.072 -17.476  -4.851  0.00  0.00    +0.042 A 
ATOM     33  C   UNL     1      -0.295 -18.589  -5.640  0.00  0.00    +0.005 A 
ATOM     34  C   UNL     1       0.707 -18.993  -6.513  0.00  0.00    +0.018 A 
ATOM     35  C   UNL     1       1.886 -18.279  -6.567  0.00  0.00    +0.084 A 
ATOM     36  N   UNL     1       2.069 -17.216  -5.805  0.00  0.00    -0.350 N 
ATOM     37  H   UNL     1       2.906 -16.730  -5.865  0.00  0.00    +0.166 HD
ENDBRANCH  22  23
ENDBRANCH  21  22
ENDBRANCH  20  21
ENDBRANCH   5  20
TORSDOF 7
