REMARK  Name = ZINC64538952
REMARK  12 active torsions:
REMARK  status: ('A' for Active; 'I' for Inactive)
REMARK    1  A    between atoms: C_1  and  C_2
REMARK    2  A    between atoms: C_2  and  O_3
REMARK    3  A    between atoms: O_3  and  C_4
REMARK    4  A    between atoms: C_4  and  C_6
REMARK    5  A    between atoms: C_8  and  C_37
REMARK    6  A    between atoms: C_9  and  C_13
REMARK    7  A    between atoms: C_11  and  C_12
REMARK    8  A    between atoms: C_19  and  C_22
REMARK    9  A    between atoms: N_24  and  C_25
REMARK   10  A    between atoms: C_25  and  C_26
REMARK   11  A    between atoms: C_26  and  C_27
REMARK   12  A    between atoms: C_30  and  C_36
REMARK                            x       y       z     vdW  Elec       q    Type
REMARK                         _______ _______ _______ _____ _____    ______ ____
ROOT
ATOM      1  C   UNL     1       0.429  -5.584  -4.066  0.00  0.00    +0.265 C 
ATOM      2  O   UNL     1       0.931  -6.516  -3.468  0.00  0.00    -0.268 OA
ATOM      3  N   UNL     1      -0.352  -5.816  -5.140  0.00  0.00    -0.296 N 
ATOM      4  C   UNL     1      -0.818  -4.704  -5.981  0.00  0.00    +0.108 C 
ATOM      5  C   UNL     1      -0.440  -4.995  -7.436  0.00  0.00    +0.020 C 
ATOM      6  C   UNL     1      -0.995  -6.363  -7.840  0.00  0.00    +0.016 C 
ATOM      7  C   UNL     1      -0.376  -7.447  -6.954  0.00  0.00    +0.092 C 
ATOM      8  C   UNL     1      -0.748  -7.185  -5.497  0.00  0.00    +0.120 C 
ENDROOT
BRANCH   1  11
ATOM      9  C   UNL     1       1.454  -2.352  -2.544  0.00  0.00    +0.169 C 
ATOM     10  C   UNL     1       1.551  -3.862  -2.654  0.00  0.00    -0.023 C 
ATOM     11  C   UNL     1       0.674  -4.198  -3.616  0.00  0.00    +0.126 C 
ATOM     12  N   UNL     1       0.040  -3.106  -4.127  0.00  0.00    -0.250 NA
ATOM     13  C   UNL     1       0.413  -1.994  -3.586  0.00  0.00    +0.034 C 
ATOM     14  C   UNL     1      -0.088  -0.613  -3.920  0.00  0.00    +0.062 C 
ATOM     15  C   UNL     1       2.436  -4.785  -1.856  0.00  0.00    +0.042 C 
BRANCH   9  16
ATOM     16  C   UNL     1       0.993  -1.946  -1.168  0.00  0.00    +0.320 C 
ATOM     17  O   UNL     1       0.799  -2.788  -0.323  0.00  0.00    -0.250 OA
BRANCH  16  18
ATOM     18  O   UNL     1       0.797  -0.649  -0.881  0.00  0.00    -0.464 OA
BRANCH  18  20
ATOM     19  C   UNL     1       0.192   1.178   0.580  0.00  0.00    +0.048 C 
ATOM     20  C   UNL     1       0.360  -0.337   0.443  0.00  0.00    +0.229 C 
ENDBRANCH  18  20
ENDBRANCH  16  18
ENDBRANCH   9  16
ENDBRANCH   1  11
BRANCH   7  21
ATOM     21  C   UNL     1      -0.898  -8.797  -7.374  0.00  0.00    +0.218 C 
ATOM     22  O   UNL     1      -1.687  -8.885  -8.290  0.00  0.00    -0.275 OA
ATOM     23  N   UNL     1      -0.488  -9.908  -6.730  0.00  0.00    -0.315 N 
ATOM     24  H   UNL     1       0.143  -9.839  -5.997  0.00  0.00    +0.149 HD
BRANCH  23  25
ATOM     25  C   UNL     1      -0.995 -11.221  -7.138  0.00  0.00    +0.108 C 
BRANCH  25  26
ATOM     26  C   UNL     1      -0.376 -12.304  -6.252  0.00  0.00    +0.052 C 
BRANCH  26  27
ATOM     27  C   UNL     1      -0.898 -13.654  -6.672  0.00  0.00    -0.040 C 
ATOM     28  C   UNL     1      -0.308 -14.526  -7.521  0.00  0.00    -0.001 A 
ATOM     29  C   UNL     1       0.948 -14.480  -8.280  0.00  0.00    +0.013 A 
ATOM     30  C   UNL     1       1.278 -15.530  -9.066  0.00  0.00    -0.050 A 
ATOM     31  C   UNL     1       0.454 -16.658  -9.174  0.00  0.00    +0.005 A 
ATOM     32  C   UNL     1      -0.715 -16.774  -8.508  0.00  0.00    +0.026 A 
ATOM     33  C   UNL     1      -1.161 -15.729  -7.652  0.00  0.00    +0.043 A 
ATOM     34  N   UNL     1      -2.236 -15.606  -6.912  0.00  0.00    -0.380 N 
ATOM     35  C   UNL     1      -2.184 -14.311  -6.223  0.00  0.00    +0.144 C 
ATOM     36  C   UNL     1       2.567 -15.486  -9.846  0.00  0.00    +0.044 C 
ATOM     37  H   UNL     1      -2.946 -16.262  -6.832  0.00  0.00    +0.160 HD
ENDBRANCH  26  27
ENDBRANCH  25  26
ENDBRANCH  23  25
ENDBRANCH   7  21
TORSDOF 8
