REMARK  Name = ZINC27550179
REMARK  7 active torsions:
REMARK  status: ('A' for Active; 'I' for Inactive)
REMARK    1  A    between atoms: C_1  and  C_2
REMARK    2  A    between atoms: C_2  and  C_4
REMARK    3  A    between atoms: C_2  and  N_14
REMARK    4  A    between atoms: N_14  and  C_15
REMARK    5  A    between atoms: N_20  and  C_23
REMARK    6  A    between atoms: C_26  and  N_29
REMARK    7  A    between atoms: N_30  and  C_31
REMARK                            x       y       z     vdW  Elec       q    Type
REMARK                         _______ _______ _______ _____ _____    ______ ____
ROOT
ATOM      1  C   UNL     1      -0.421  -5.473   0.004  0.00  0.00    +0.026 C 
ATOM      2  C   UNL     1       0.231  -5.503   1.401  0.00  0.00    +0.090 C 
ATOM      3  C   UNL     1       1.713  -5.425   1.103  0.00  0.00    +0.225 C 
ATOM      4  O   UNL     1       2.597  -5.421   1.932  0.00  0.00    -0.275 OA
ATOM      5  N   UNL     1       1.892  -5.362  -0.223  0.00  0.00    -0.212 N 
ATOM      6  C   UNL     1       0.758  -5.380  -0.940  0.00  0.00    +0.213 C 
ATOM      7  O   UNL     1       0.687  -5.331  -2.149  0.00  0.00    -0.277 OA
ENDROOT
BRANCH   5   8
ATOM      8  C   UNL     1       3.158  -5.282  -0.812  0.00  0.00    +0.044 A 
ATOM      9  C   UNL     1       3.285  -5.353  -2.195  0.00  0.00    +0.026 A 
ATOM     10  C   UNL     1       4.529  -5.275  -2.780  0.00  0.00    +0.031 A 
ATOM     11  C   UNL     1       5.667  -5.123  -1.981  0.00  0.00    +0.086 A 
ATOM     12  C   UNL     1       5.535  -5.051  -0.590  0.00  0.00    +0.031 A 
ATOM     13  C   UNL     1       4.286  -5.125  -0.014  0.00  0.00    +0.026 A 
BRANCH  11  14
ATOM     14  N   UNL     1       6.902  -5.046  -2.556  0.00  0.00    -0.149 NA
ATOM     15  N   UNL     1       7.013  -4.775  -3.812  0.00  0.00    -0.149 NA
BRANCH  15  16
ATOM     16  C   UNL     1       6.092  -3.968  -4.421  0.00  0.00    +0.086 A 
ATOM     17  C   UNL     1       5.990  -3.947  -5.815  0.00  0.00    +0.029 A 
ATOM     18  C   UNL     1       5.059  -3.131  -6.422  0.00  0.00    +0.002 A 
ATOM     19  C   UNL     1       4.227  -2.334  -5.655  0.00  0.00    +0.000 A 
ATOM     20  C   UNL     1       4.323  -2.349  -4.274  0.00  0.00    +0.002 A 
ATOM     21  C   UNL     1       5.245  -3.165  -3.653  0.00  0.00    +0.029 A 
ENDBRANCH  15  16
ENDBRANCH  11  14
ENDBRANCH   5   8
BRANCH   1  22
ATOM     22  N   UNL     1      -1.181  -6.707  -0.238  0.00  0.00    +0.389 N 
ATOM     23  H   UNL     1      -1.874  -6.822   0.486  0.00  0.00    -0.084 HD
ATOM     24  H   UNL     1      -0.552  -7.496  -0.230  0.00  0.00    -0.084 HD
BRANCH  22  26
ATOM     25  C   UNL     1      -2.890  -5.504  -1.515  0.00  0.00    -0.013 C 
ATOM     26  C   UNL     1      -1.847  -6.623  -1.545  0.00  0.00    -0.068 C 
BRANCH  26  27
ATOM     27  C   UNL     1      -2.535  -7.955  -1.852  0.00  0.00    -0.041 C 
ATOM     28  C   UNL     1      -3.574  -8.254  -0.769  0.00  0.00    +0.009 C 
ATOM     29  C   UNL     1      -4.262  -9.585  -1.077  0.00  0.00    -0.010 C 
ATOM     30  C   UNL     1      -4.956  -9.498  -2.438  0.00  0.00    +0.007 C 
ATOM     31  C   UNL     1      -3.917  -9.199  -3.521  0.00  0.00    -0.010 C 
ATOM     32  C   UNL     1      -3.229  -7.867  -3.213  0.00  0.00    +0.009 C 
ATOM     33  C   UNL     1      -2.874 -10.318  -3.550  0.00  0.00    +0.007 C 
ATOM     34  C   UNL     1      -2.181 -10.405  -2.189  0.00  0.00    -0.010 C 
ATOM     35  C   UNL     1      -3.219 -10.704  -1.106  0.00  0.00    +0.007 C 
ATOM     36  C   UNL     1      -1.492  -9.073  -1.882  0.00  0.00    +0.009 C 
ENDBRANCH  26  27
ENDBRANCH  22  26
ENDBRANCH   1  22
TORSDOF 6
