REMARK  Name = ZINC39871749
REMARK  3 active torsions:
REMARK  status: ('A' for Active; 'I' for Inactive)
REMARK    1  A    between atoms: C_1  and  C_2
REMARK    2  A    between atoms: C_5  and  N_8
REMARK    3  A    between atoms: C_9  and  C_24
REMARK                            x       y       z     vdW  Elec       q    Type
REMARK                         _______ _______ _______ _____ _____    ______ ____
ROOT
ATOM      1  N   UNL     1       0.059  -4.168  -0.021  0.00  0.00    -0.253 N 
ATOM      2  C   UNL     1       0.070  -5.040   1.165  0.00  0.00    +0.150 C 
ATOM      3  C   UNL     1       0.091  -6.439   0.643  0.00  0.00    +0.072 A 
ATOM      4  C   UNL     1       0.118  -7.729   1.338  0.00  0.00    +0.199 A 
ATOM      5  O   UNL     1      -0.048  -7.844   2.540  0.00  0.00    -0.287 OA
ATOM      6  C   UNL     1       0.366  -8.884   0.438  0.00  0.00    +0.064 A 
ATOM      7  C   UNL     1       0.619 -10.150   0.966  0.00  0.00    +0.015 A 
ATOM      8  C   UNL     1       0.850 -11.202   0.124  0.00  0.00    +0.001 A 
ATOM      9  C   UNL     1       0.836 -11.013  -1.250  0.00  0.00    +0.004 A 
ATOM     10  C   UNL     1       0.588  -9.770  -1.789  0.00  0.00    +0.047 A 
ATOM     11  C   UNL     1       0.345  -8.681  -0.951  0.00  0.00    +0.139 A 
ATOM     12  O   UNL     1       0.093  -7.472  -1.502  0.00  0.00    -0.450 OA
ATOM     13  C   UNL     1       0.085  -6.373  -0.722  0.00  0.00    +0.199 A 
ATOM     14  C   UNL     1       0.063  -4.955  -1.117  0.00  0.00    +0.287 C 
ATOM     15  O   UNL     1       0.052  -4.551  -2.263  0.00  0.00    -0.266 OA
ENDROOT
BRANCH   1  20
ATOM     16  C   UNL     1      -0.018   1.503   0.010  0.00  0.00    +0.044 C 
ATOM     17  C   UNL     1       0.002  -0.004   0.002  0.00  0.00    -0.050 A 
ATOM     18  C   UNL     1       0.006  -0.687  -1.200  0.00  0.00    +0.005 A 
ATOM     19  C   UNL     1       0.025  -2.068  -1.212  0.00  0.00    +0.024 A 
ATOM     20  C   UNL     1       0.040  -2.771  -0.013  0.00  0.00    +0.038 A 
ATOM     21  C   UNL     1       0.037  -2.081   1.193  0.00  0.00    +0.024 A 
ATOM     22  C   UNL     1       0.023  -0.700   1.197  0.00  0.00    +0.005 A 
ENDBRANCH   1  20
BRANCH   2  23
ATOM     23  C   UNL     1      -1.169  -4.810   1.992  0.00  0.00    -0.021 A 
ATOM     24  C   UNL     1      -2.390  -4.627   1.370  0.00  0.00    +0.006 A 
ATOM     25  C   UNL     1      -3.527  -4.416   2.128  0.00  0.00    +0.001 A 
ATOM     26  C   UNL     1      -3.443  -4.387   3.507  0.00  0.00    +0.015 A 
ATOM     27  C   UNL     1      -2.221  -4.571   4.130  0.00  0.00    +0.018 A 
ATOM     28  C   UNL     1      -1.085  -4.787   3.371  0.00  0.00    +0.021 A 
ATOM     29 BR   UNL     1      -2.106  -4.531   6.017  0.00  0.00    -0.050 Br
ENDBRANCH   2  23
TORSDOF 2
