REMARK  Name = ZINC13073517
REMARK  13 active torsions:
REMARK  status: ('A' for Active; 'I' for Inactive)
REMARK    1  A    between atoms: C_1  and  C_2
REMARK    2  A    between atoms: C_2  and  C_3
REMARK    3  A    between atoms: C_2  and  C_4
REMARK    4  A    between atoms: C_2  and  C_5
REMARK    5  A    between atoms: C_8  and  C_11
REMARK    6  A    between atoms: C_11  and  N_63
REMARK    7  A    between atoms: C_12  and  N_63
REMARK    8  A    between atoms: C_13  and  N_14
REMARK    9  A    between atoms: C_13  and  N_63
REMARK   10  A    between atoms: N_17  and  C_25
REMARK   11  A    between atoms: C_18  and  C_20
REMARK   12  A    between atoms: C_30  and  O_31
REMARK   13  A    between atoms: O_31  and  C_32
REMARK                            x       y       z     vdW  Elec       q    Type
REMARK                         _______ _______ _______ _____ _____    ______ ____
ROOT
ATOM      1  N   UNL     1      -0.016   1.345   0.009  0.00  0.00    -0.257 N 
ATOM      2  C   UNL     1       0.002  -0.004   0.002  0.00  0.00    +0.181 A 
ATOM      3  S   UNL     1      -1.367  -1.032   0.010  0.00  0.00    -0.011 S 
ATOM      4  N   UNL     1       1.291  -0.397  -0.012  0.00  0.00    -0.267 N 
ATOM      5  C   UNL     1       2.088   0.734  -0.014  0.00  0.00    +0.174 A 
ATOM      6  N   UNL     1       1.314   1.786  -0.001  0.00  0.00    -0.151 NA
ENDROOT
BRANCH   4   7
ATOM      7  C   UNL     1       1.746  -1.723  -0.025  0.00  0.00    +0.092 A 
ATOM      8  C   UNL     1       1.960  -2.374  -1.231  0.00  0.00    +0.030 A 
ATOM      9  C   UNL     1       2.409  -3.681  -1.240  0.00  0.00    +0.002 A 
ATOM     10  C   UNL     1       2.647  -4.343  -0.050  0.00  0.00    +0.004 A 
ATOM     11  C   UNL     1       2.436  -3.701   1.156  0.00  0.00    +0.048 A 
ATOM     12  C   UNL     1       1.990  -2.389   1.174  0.00  0.00    +0.144 A 
BRANCH  12  13
ATOM     13  O   UNL     1       1.787  -1.754   2.360  0.00  0.00    -0.493 OA
ATOM     14  C   UNL     1       2.058  -2.499   3.549  0.00  0.00    +0.277 C 
ENDBRANCH  12  13
ENDBRANCH   4   7
BRANCH   5  15
ATOM     15  C   UNL     1       3.561   0.749  -0.028  0.00  0.00    +0.057 A 
ATOM     16  C   UNL     1       4.412   1.788  -0.307  0.00  0.00    +0.019 A 
ATOM     17  C   UNL     1       5.769   1.563  -0.256  0.00  0.00    +0.008 A 
ATOM     18  C   UNL     1       6.223   0.324   0.066  0.00  0.00    +0.046 A 
ATOM     19  S   UNL     1       4.704  -0.578   0.320  0.00  0.00    -0.094 S 
ENDBRANCH   5  15
BRANCH   1  20
ATOM     20  C   UNL     1      -1.210   2.194   0.020  0.00  0.00    +0.072 C 
BRANCH  20  22
ATOM     21  C   UNL     1      -2.041   1.243   2.086  0.00  0.00    -0.093 C 
ATOM     22  N   UNL     1      -1.579   2.480   1.422  0.00  0.00    +0.394 N 
ATOM     23  H   UNL     1      -0.754   2.837   1.918  0.00  0.00    -0.079 HD
BRANCH  22  24
ATOM     24  C   UNL     1      -2.644   3.504   1.465  0.00  0.00    -0.041 C 
BRANCH  24  28
ATOM     25  C   UNL     1      -3.216   4.729   5.518  0.00  0.00    -0.042 A 
ATOM     26  C   UNL     1      -2.289   5.378   4.723  0.00  0.00    +0.004 A 
ATOM     27  C   UNL     1      -2.105   4.982   3.412  0.00  0.00    +0.002 A 
ATOM     28  C   UNL     1      -2.846   3.936   2.895  0.00  0.00    -0.064 A 
ATOM     29  C   UNL     1      -3.776   3.289   3.688  0.00  0.00    +0.002 A 
ATOM     30  C   UNL     1      -3.958   3.683   5.000  0.00  0.00    +0.004 A 
BRANCH  25  32
ATOM     31  C   UNL     1      -3.864   6.624   6.980  0.00  0.00    +0.015 C 
ATOM     32  C   UNL     1      -3.418   5.161   6.947  0.00  0.00    -0.013 C 
ATOM     33  C   UNL     1      -4.491   4.286   7.598  0.00  0.00    +0.015 C 
ATOM     34  C   UNL     1      -2.103   5.011   7.715  0.00  0.00    +0.015 C 
ENDBRANCH  25  32
ENDBRANCH  24  28
ENDBRANCH  22  24
ENDBRANCH  20  22
ENDBRANCH   1  20
TORSDOF 8
