REMARK  Name = ZINC64900625
REMARK  4 active torsions:
REMARK  status: ('A' for Active; 'I' for Inactive)
REMARK    1  A    between atoms: C_1  and  C_2
REMARK    2  A    between atoms: C_4  and  C_16
REMARK    3  A    between atoms: N_18  and  N_19
REMARK    4  A    between atoms: N_22  and  C_23
REMARK                            x       y       z     vdW  Elec       q    Type
REMARK                         _______ _______ _______ _____ _____    ______ ____
ROOT
ATOM      1  C   UNL     1      -0.018   1.503   0.010  0.00  0.00    +0.065 C 
ATOM      2  C   UNL     1       0.002  -0.004   0.002  0.00  0.00    +0.041 A 
ATOM      3  C   UNL     1       0.005  -0.673  -1.209  0.00  0.00    +0.038 A 
ATOM      4  C   UNL     1       0.025  -2.069  -1.220  0.00  0.00    +0.069 A 
ATOM      5  C   UNL     1       0.040  -2.737   0.021  0.00  0.00    +0.120 A 
ATOM      6  C   UNL     1       0.034  -1.974   1.204  0.00  0.00    +0.161 A 
ATOM      7  N   UNL     1       0.022  -0.653   1.148  0.00  0.00    -0.233 NA
ATOM      8  N   UNL     1       0.046  -2.886   2.236  0.00  0.00    -0.312 N 
ATOM      9  C   UNL     1       0.069  -4.130   1.684  0.00  0.00    +0.112 A 
ATOM     10  N   UNL     1       0.059  -4.034   0.383  0.00  0.00    -0.230 NA
ATOM     11  C   UNL     1       0.108  -5.423   2.464  0.00  0.00    +0.074 C 
ATOM     12  C   UNL     1      -0.933  -5.372   3.583  0.00  0.00    +0.008 C 
ATOM     13  C   UNL     1      -0.311  -4.756   4.833  0.00  0.00    +0.002 C 
ATOM     14  C   UNL     1       0.718  -3.694   4.448  0.00  0.00    +0.022 C 
ATOM     15  C   UNL     1       0.030  -2.572   3.668  0.00  0.00    +0.125 C 
ENDROOT
BRANCH   4  16
ATOM     16  C   UNL     1       0.029  -2.821  -2.492  0.00  0.00    +0.262 C 
ATOM     17  O   UNL     1       0.046  -4.037  -2.479  0.00  0.00    -0.269 OA
ATOM     18  N   UNL     1       0.014  -2.160  -3.666  0.00  0.00    -0.229 N 
ATOM     19  H   UNL     1       0.001  -1.190  -3.677  0.00  0.00    +0.173 HD
BRANCH  18  20
ATOM     20  N   UNL     1       0.018  -2.874  -4.872  0.00  0.00    -0.218 N 
ATOM     21  C   UNL     1       0.004  -2.213  -6.046  0.00  0.00    +0.316 C 
ATOM     22  O   UNL     1       0.007  -2.832  -7.093  0.00  0.00    -0.251 OA
ATOM     23  N   UNL     1      -0.015  -0.865  -6.061  0.00  0.00    -0.295 N 
ATOM     24  H   UNL     1       0.032  -3.844  -4.862  0.00  0.00    +0.174 HD
ATOM     25  H   UNL     1      -0.018  -0.371  -5.226  0.00  0.00    +0.151 HD
BRANCH  23  26
ATOM     26  C   UNL     1      -0.031  -0.147  -7.338  0.00  0.00    +0.075 C 
ATOM     27  C   UNL     1       0.887   1.069  -7.476  0.00  0.00    +0.024 C 
ATOM     28  C   UNL     1      -0.625   1.264  -7.347  0.00  0.00    +0.024 C 
ENDBRANCH  23  26
ENDBRANCH  18  20
ENDBRANCH   4  16
TORSDOF 3
