REMARK  Name = ZINC39653684
REMARK  9 active torsions:
REMARK  status: ('A' for Active; 'I' for Inactive)
REMARK    1  A    between atoms: C_1  and  C_2
REMARK    2  A    between atoms: C_2  and  O_3
REMARK    3  A    between atoms: O_3  and  C_4
REMARK    4  A    between atoms: C_7  and  C_10
REMARK    5  A    between atoms: C_10  and  C_11
REMARK    6  A    between atoms: C_11  and  N_12
REMARK    7  A    between atoms: C_13  and  C_15
REMARK    8  A    between atoms: C_26  and  C_28
REMARK    9  A    between atoms: C_33  and  C_34
REMARK                            x       y       z     vdW  Elec       q    Type
REMARK                         _______ _______ _______ _____ _____    ______ ____
ROOT
ATOM      1  C   UNL     1      -2.271  -9.675   2.967  0.00  0.00    +0.100 C 
ATOM      2  C   UNL     1      -1.310 -10.455   2.042  0.00  0.00    +0.121 C 
ATOM      3  N   UNL     1      -0.322 -11.068   2.961  0.00  0.00    -0.296 N 
ATOM      4  C   UNL     1      -1.123 -11.497   4.132  0.00  0.00    +0.115 C 
ATOM      5  C   UNL     1      -2.148 -10.364   4.336  0.00  0.00    -0.004 C 
ATOM      6  C   UNL     1      -3.495 -10.940   4.761  0.00  0.00    -0.010 C 
ATOM      7  C   UNL     1      -3.362 -11.568   6.151  0.00  0.00    -0.082 C 
ATOM      8  N   UNL     1      -2.919 -10.549   7.110  0.00  0.00    +0.379 N 
ATOM      9  C   UNL     1      -1.581 -10.067   6.746  0.00  0.00    -0.082 C 
ATOM     10  C   UNL     1      -1.639  -9.375   5.381  0.00  0.00    -0.010 C 
ATOM     11  C   UNL     1       1.006 -11.204   2.774  0.00  0.00    +0.247 C 
ATOM     12  O   UNL     1       1.673 -11.823   3.580  0.00  0.00    -0.270 OA
ATOM     13  H   UNL     1      -3.567  -9.776   7.101  0.00  0.00    -0.086 HD
ATOM     14  H   UNL     1      -2.890 -10.950   8.035  0.00  0.00    -0.086 HD
ENDROOT
BRANCH  11  15
ATOM     15  C   UNL     1       1.651 -10.602   1.587  0.00  0.00    +0.049 A 
ATOM     16  C   UNL     1       0.986 -10.585   0.360  0.00  0.00    +0.013 A 
ATOM     17  C   UNL     1       1.594 -10.022  -0.742  0.00  0.00    +0.001 A 
ATOM     18  C   UNL     1       2.860  -9.474  -0.634  0.00  0.00    +0.001 A 
ATOM     19  C   UNL     1       3.524  -9.487   0.579  0.00  0.00    +0.013 A 
ATOM     20  C   UNL     1       2.926 -10.043   1.691  0.00  0.00    +0.067 A 
BRANCH  20  21
ATOM     21  C   UNL     1       3.649 -10.051   3.013  0.00  0.00    +0.418 C 
ATOM     22  F   UNL     1       4.898  -9.439   2.865  0.00  0.00    -0.166 F 
ATOM     23  F   UNL     1       2.895  -9.351   3.962  0.00  0.00    -0.166 F 
ATOM     24  F   UNL     1       3.825 -11.372   3.440  0.00  0.00    -0.166 F 
ENDBRANCH  20  21
ENDBRANCH  11  15
BRANCH   1  26
ATOM     25  N   UNL     1      -2.761  -7.277   3.330  0.00  0.00    -0.315 N 
ATOM     26  C   UNL     1      -1.847  -8.232   3.066  0.00  0.00    +0.218 C 
ATOM     27  O   UNL     1      -0.683  -7.929   2.907  0.00  0.00    -0.275 OA
ATOM     28  H   UNL     1      -3.692  -7.519   3.456  0.00  0.00    +0.149 HD
BRANCH  25  29
ATOM     29  C   UNL     1      -2.349  -5.875   3.426  0.00  0.00    +0.109 C 
BRANCH  29  30
ATOM     30  C   UNL     1      -3.570  -5.004   3.731  0.00  0.00    +0.054 C 
BRANCH  30  34
ATOM     31  C   UNL     1      -2.368  -0.913   4.011  0.00  0.00    +0.121 A 
ATOM     32  C   UNL     1      -2.760  -1.440   2.789  0.00  0.00    +0.046 A 
ATOM     33  C   UNL     1      -3.147  -2.763   2.701  0.00  0.00    +0.007 A 
ATOM     34  C   UNL     1      -3.146  -3.562   3.830  0.00  0.00    -0.046 A 
ATOM     35  C   UNL     1      -2.757  -3.038   5.049  0.00  0.00    +0.007 A 
ATOM     36  C   UNL     1      -2.362  -1.718   5.141  0.00  0.00    +0.046 A 
BRANCH  31  37
ATOM     37  O   UNL     1      -1.986   0.388   4.100  0.00  0.00    -0.492 OA
BRANCH  37  39
ATOM     38  C   UNL     1      -1.557   2.586   3.192  0.00  0.00    +0.048 C 
ATOM     39  C   UNL     1      -2.017   1.157   2.896  0.00  0.00    +0.225 C 
ENDBRANCH  37  39
ENDBRANCH  31  37
ENDBRANCH  30  34
ENDBRANCH  29  30
ENDBRANCH  25  29
ENDBRANCH   1  26
TORSDOF 8
