REMARK  Name = ZINC09524322
REMARK  10 active torsions:
REMARK  status: ('A' for Active; 'I' for Inactive)
REMARK    1  A    between atoms: C_1  and  C_2
REMARK    2  A    between atoms: C_2  and  C_3
REMARK    3  A    between atoms: C_2  and  C_4
REMARK    4  A    between atoms: C_4  and  C_5
REMARK    5  A    between atoms: C_5  and  S_6
REMARK    6  A    between atoms: S_6  and  C_7
REMARK    7  A    between atoms: C_18  and  C_20
REMARK    8  A    between atoms: C_23  and  N_26
REMARK    9  A    between atoms: N_26  and  C_27
REMARK   10  A    between atoms: N_26  and  C_28
REMARK                            x       y       z     vdW  Elec       q    Type
REMARK                         _______ _______ _______ _____ _____    ______ ____
ROOT
ATOM      1  C   UNL     1       0.648   8.122   5.745  0.00  0.00    +0.171 A 
ATOM      2  N   UNL     1       1.401   7.915   4.629  0.00  0.00    -0.302 N 
ATOM      3  H   UNL     1       2.366   7.999   4.674  0.00  0.00    +0.171 HD
ATOM      4  C   UNL     1       0.807   7.593   3.460  0.00  0.00    +0.258 A 
ATOM      5  O   UNL     1       1.473   7.403   2.455  0.00  0.00    -0.267 OA
ATOM      6  C   UNL     1      -0.589   7.481   3.424  0.00  0.00    +0.069 A 
ATOM      7  C   UNL     1      -1.307   7.706   4.584  0.00  0.00    +0.135 A 
ATOM      8  N   UNL     1      -0.665   8.019   5.715  0.00  0.00    -0.208 NA
ATOM      9  N   UNL     1      -2.684   7.606   4.565  0.00  0.00    -0.302 N 
ATOM     10  C   UNL     1      -3.372   7.681   3.385  0.00  0.00    +0.017 C 
ATOM     11  C   UNL     1      -2.753   7.458   2.206  0.00  0.00    +0.024 C 
ATOM     12  C   UNL     1      -1.285   7.121   2.145  0.00  0.00    +0.092 C 
ATOM     13  C   UNL     1      -3.460   7.531   0.992  0.00  0.00    +0.162 C 
ATOM     14  O   UNL     1      -2.870   7.343  -0.053  0.00  0.00    -0.292 OA
ATOM     15  C   UNL     1      -4.933   7.837   0.963  0.00  0.00    +0.080 C 
ATOM     16  C   UNL     1      -5.568   7.353   2.270  0.00  0.00    +0.014 C 
ATOM     17  C   UNL     1      -4.841   8.024   3.438  0.00  0.00    +0.051 C 
ATOM     18  H   UNL     1      -3.169   7.482   5.396  0.00  0.00    +0.153 HD
ENDROOT
BRANCH  12  19
ATOM     19  C   UNL     1      -1.129   5.643   1.898  0.00  0.00    -0.035 A 
ATOM     20  C   UNL     1      -0.481   5.199   0.760  0.00  0.00    +0.006 A 
ATOM     21  C   UNL     1      -0.336   3.845   0.530  0.00  0.00    +0.023 A 
ATOM     22  C   UNL     1      -0.843   2.928   1.443  0.00  0.00    +0.029 A 
ATOM     23  C   UNL     1      -1.498   3.378   2.583  0.00  0.00    +0.023 A 
ATOM     24  C   UNL     1      -1.634   4.734   2.809  0.00  0.00    +0.006 A 
BRANCH  22  25
ATOM     25  N   UNL     1      -0.698   1.558   1.213  0.00  0.00    -0.336 N 
ATOM     26  C   UNL     1      -0.013   1.086   0.008  0.00  0.00    +0.129 C 
ATOM     27  C   UNL     1      -1.233   0.594   2.178  0.00  0.00    +0.129 C 
ENDBRANCH  22  25
ENDBRANCH  12  19
BRANCH   1  28
ATOM     28  S   UNL     1       1.446   8.536   7.260  0.00  0.00    -0.088 S 
BRANCH  28  29
ATOM     29  C   UNL     1       0.005   8.686   8.344  0.00  0.00    +0.077 C 
BRANCH  29  30
ATOM     30  C   UNL     1       0.465   9.052   9.757  0.00  0.00    +0.014 C 
BRANCH  30  32
ATOM     31  C   UNL     1      -0.288   9.421  12.110  0.00  0.00    +0.007 C 
ATOM     32  C   UNL     1      -0.754   9.179  10.673  0.00  0.00    -0.016 C 
ATOM     33  C   UNL     1      -1.619  10.354  10.212  0.00  0.00    +0.007 C 
ENDBRANCH  30  32
ENDBRANCH  29  30
ENDBRANCH  28  29
ENDBRANCH   1  28
TORSDOF 6
