REMARK  Name = ZINC63374157
REMARK  11 active torsions:
REMARK  status: ('A' for Active; 'I' for Inactive)
REMARK    1  A    between atoms: C_1  and  C_2
REMARK    2  A    between atoms: C_2  and  C_3
REMARK    3  A    between atoms: C_3  and  C_4
REMARK    4  A    between atoms: C_4  and  N_5
REMARK    5  A    between atoms: C_6  and  C_8
REMARK    6  A    between atoms: C_8  and  C_10
REMARK    7  A    between atoms: C_8  and  N_14
REMARK    8  A    between atoms: C_10  and  C_11
REMARK    9  A    between atoms: C_11  and  C_12
REMARK   10  A    between atoms: C_11  and  C_13
REMARK   11  A    between atoms: C_17  and  C_33
REMARK                            x       y       z     vdW  Elec       q    Type
REMARK                         _______ _______ _______ _____ _____    ______ ____
ROOT
ATOM      1  N   UNL     1      -4.567  -6.042   0.140  0.00  0.00    -0.212 N 
ATOM      2  C   UNL     1      -5.052  -6.773  -0.885  0.00  0.00    +0.249 C 
ATOM      3  O   UNL     1      -5.444  -6.361  -1.956  0.00  0.00    -0.273 OA
ATOM      4  C   UNL     1      -5.004  -8.213  -0.423  0.00  0.00    +0.136 C 
ATOM      5  C   UNL     1      -6.420  -8.800  -0.383  0.00  0.00    +0.139 C 
ATOM      6  C   UNL     1      -6.368  -9.987   0.571  0.00  0.00    -0.034 C 
ATOM      7  C   UNL     1      -6.780 -11.044  -0.123  0.00  0.00    -0.001 A 
ATOM      8  C   UNL     1      -6.999 -12.445   0.268  0.00  0.00    +0.010 A 
ATOM      9  C   UNL     1      -7.423 -13.282  -0.715  0.00  0.00    +0.001 A 
ATOM     10  C   UNL     1      -7.648 -12.870  -2.032  0.00  0.00    +0.002 A 
ATOM     11  C   UNL     1      -7.476 -11.601  -2.479  0.00  0.00    +0.026 A 
ATOM     12  C   UNL     1      -7.036 -10.627  -1.535  0.00  0.00    +0.043 A 
ATOM     13  N   UNL     1      -6.809  -9.343  -1.687  0.00  0.00    -0.375 N 
ATOM     14  C   UNL     1      -5.863  -9.887   1.990  0.00  0.00    +0.052 C 
ATOM     15  C   UNL     1      -4.478  -9.213   1.933  0.00  0.00    +0.115 C 
ATOM     16  N   UNL     1      -4.547  -8.101   0.981  0.00  0.00    -0.269 N 
ATOM     17  C   UNL     1      -4.251  -6.812   1.189  0.00  0.00    +0.313 C 
ATOM     18  O   UNL     1      -3.755  -6.388   2.215  0.00  0.00    -0.252 OA
ATOM     19  C   UNL     1      -4.051  -9.055  -1.273  0.00  0.00    +0.044 C 
ATOM     20  H   UNL     1      -6.882  -8.839  -2.513  0.00  0.00    +0.160 HD
ENDROOT
BRANCH   1  21
ATOM     21  C   UNL     1      -4.401  -4.587   0.107  0.00  0.00    +0.171 C 
BRANCH  21  23
ATOM     22  N   UNL     1      -2.540  -2.959   0.167  0.00  0.00    -0.314 N 
ATOM     23  C   UNL     1      -2.934  -4.247   0.182  0.00  0.00    +0.234 C 
ATOM     24  O   UNL     1      -2.110  -5.133   0.256  0.00  0.00    -0.274 OA
ATOM     25  H   UNL     1      -3.200  -2.250   0.108  0.00  0.00    +0.149 HD
BRANCH  22  26
ATOM     26  C   UNL     1      -1.114  -2.628   0.240  0.00  0.00    +0.104 C 
BRANCH  26  27
ATOM     27  C   UNL     1      -0.941  -1.109   0.206  0.00  0.00    +0.018 C 
BRANCH  27  29
ATOM     28  C   UNL     1       0.722   0.756   0.248  0.00  0.00    +0.004 C 
ATOM     29  C   UNL     1       0.548  -0.763   0.283  0.00  0.00    -0.002 C 
ENDBRANCH  27  29
ENDBRANCH  26  27
ENDBRANCH  22  26
ENDBRANCH  21  23
BRANCH  21  30
ATOM     30  C   UNL     1      -5.131  -3.963   1.298  0.00  0.00    +0.035 C 
BRANCH  30  31
ATOM     31  C   UNL     1      -6.630  -4.246   1.182  0.00  0.00    -0.015 C 
ATOM     32  C   UNL     1      -7.341  -3.751   2.444  0.00  0.00    +0.007 C 
ATOM     33  C   UNL     1      -7.193  -3.517  -0.040  0.00  0.00    +0.007 C 
ENDBRANCH  30  31
ENDBRANCH  21  30
ENDBRANCH   1  21
TORSDOF 7
