REMARK  Name = ZINC38610128
REMARK  6 active torsions:
REMARK  status: ('A' for Active; 'I' for Inactive)
REMARK    1  A    between atoms: C_5  and  C_7
REMARK    2  A    between atoms: C_7  and  N_8
REMARK    3  A    between atoms: C_9  and  C_26
REMARK    4  A    between atoms: C_12  and  C_19
REMARK    5  A    between atoms: C_24  and  O_25
REMARK    6  A    between atoms: C_29  and  O_32
REMARK                            x       y       z     vdW  Elec       q    Type
REMARK                         _______ _______ _______ _____ _____    ______ ____
ROOT
ATOM      1  N   UNL     1       1.478  -2.588   1.453  0.00  0.00    -0.281 N 
ATOM      2  C   UNL     1       2.692  -2.950   2.196  0.00  0.00    +0.142 C 
ATOM      3  C   UNL     1       2.227  -3.421   3.547  0.00  0.00    +0.035 A 
ATOM      4  C   UNL     1       2.578  -3.916   4.808  0.00  0.00    +0.102 A 
ATOM      5  N   UNL     1       1.461  -4.093   5.487  0.00  0.00    -0.173 NA
ATOM      6  N   UNL     1       0.441  -3.758   4.780  0.00  0.00    -0.272 N 
ATOM      7  H   UNL     1      -0.482  -3.805   5.076  0.00  0.00    +0.189 HD
ATOM      8  C   UNL     1       0.849  -3.327   3.549  0.00  0.00    +0.126 A 
ATOM      9  C   UNL     1       0.415  -2.806   2.248  0.00  0.00    +0.266 C 
ATOM     10  O   UNL     1      -0.742  -2.603   1.933  0.00  0.00    -0.268 OA
ENDROOT
BRANCH   4  11
ATOM     11  C   UNL     1       3.953  -4.193   5.292  0.00  0.00    +0.044 A 
ATOM     12  C   UNL     1       5.037  -4.066   4.428  0.00  0.00    +0.014 A 
ATOM     13  C   UNL     1       6.315  -4.324   4.883  0.00  0.00    +0.001 A 
ATOM     14  C   UNL     1       6.522  -4.709   6.196  0.00  0.00    +0.004 A 
ATOM     15  C   UNL     1       5.453  -4.838   7.062  0.00  0.00    +0.046 A 
ATOM     16  C   UNL     1       4.166  -4.576   6.619  0.00  0.00    +0.126 A 
BRANCH  16  17
ATOM     17  O   UNL     1       3.115  -4.698   7.471  0.00  0.00    -0.506 OA
ATOM     18  H   UNL     1       2.721  -5.581   7.487  0.00  0.00    +0.292 HD
ENDBRANCH  16  17
ENDBRANCH   4  11
BRANCH   2  19
ATOM     19  C   UNL     1       3.586  -1.746   2.345  0.00  0.00    -0.022 A 
ATOM     20  C   UNL     1       4.935  -1.849   2.060  0.00  0.00    +0.009 A 
ATOM     21  C   UNL     1       5.757  -0.748   2.196  0.00  0.00    +0.046 A 
ATOM     22  C   UNL     1       5.229   0.463   2.619  0.00  0.00    +0.117 A 
ATOM     23  C   UNL     1       3.875   0.564   2.904  0.00  0.00    +0.046 A 
ATOM     24  C   UNL     1       3.056  -0.539   2.762  0.00  0.00    +0.009 A 
BRANCH  22  25
ATOM     25  O   UNL     1       6.036   1.548   2.754  0.00  0.00    -0.507 OA
ATOM     26  H   UNL     1       6.109   2.086   1.953  0.00  0.00    +0.292 HD
ENDBRANCH  22  25
ENDBRANCH   2  19
BRANCH   1  27
ATOM     27  C   UNL     1       1.433  -2.073   0.082  0.00  0.00    +0.145 C 
BRANCH  27  32
ATOM     28  C   UNL     1       2.748  -4.656  -2.336  0.00  0.00    +0.000 A 
ATOM     29  C   UNL     1       1.591  -5.335  -2.673  0.00  0.00    +0.001 A 
ATOM     30  C   UNL     1       0.383  -4.958  -2.118  0.00  0.00    +0.020 A 
ATOM     31  C   UNL     1       0.331  -3.902  -1.226  0.00  0.00    +0.046 A 
ATOM     32  C   UNL     1       1.488  -3.224  -0.889  0.00  0.00    -0.012 A 
ATOM     33  C   UNL     1       2.697  -3.601  -1.445  0.00  0.00    +0.006 A 
ATOM     34 CL   UNL     1      -1.187  -3.428  -0.529  0.00  0.00    -0.083 Cl
ENDBRANCH  27  32
ENDBRANCH   1  27
TORSDOF 6
