REMARK  Name = ZINC19355111
REMARK  10 active torsions:
REMARK  status: ('A' for Active; 'I' for Inactive)
REMARK    1  A    between atoms: C_1  and  N_2
REMARK    2  A    between atoms: N_2  and  C_3
REMARK    3  A    between atoms: C_3  and  C_4
REMARK    4  A    between atoms: C_7  and  C_9
REMARK    5  A    between atoms: C_16  and  C_18
REMARK    6  A    between atoms: C_18  and  O_19
REMARK    7  A    between atoms: O_19  and  C_20
REMARK    8  A    between atoms: C_20  and  C_22
REMARK    9  A    between atoms: C_25  and  C_28
REMARK   10  A    between atoms: C_28  and  N_29
REMARK                            x       y       z     vdW  Elec       q    Type
REMARK                         _______ _______ _______ _____ _____    ______ ____
ROOT
ATOM      1  C   UNL     1       2.371   1.126  -0.015  0.00  0.00    +0.328 C 
ENDROOT
BRANCH   1   4
ATOM      2  C   UNL     1       5.018   0.112  -0.045  0.00  0.00    +0.132 C 
ATOM      3  N   UNL     1       4.806   1.562  -0.035  0.00  0.00    -0.294 N 
ATOM      4  C   UNL     1       3.554   2.060  -0.021  0.00  0.00    +0.253 C 
ATOM      5  O   UNL     1       3.379   3.260  -0.013  0.00  0.00    -0.272 OA
BRANCH   3   6
ATOM      6  C   UNL     1       5.956   2.470  -0.042  0.00  0.00    +0.181 C 
BRANCH   6   7
ATOM      7  C   UNL     1       6.363   2.774   1.377  0.00  0.00    +0.123 A 
ATOM      8  C   UNL     1       7.254   2.073   2.106  0.00  0.00    +0.047 A 
ATOM      9  C   UNL     1       7.337   2.696   3.367  0.00  0.00    +0.050 A 
ATOM     10  C   UNL     1       6.482   3.753   3.339  0.00  0.00    +0.135 A 
ATOM     11  O   UNL     1       5.903   3.791   2.123  0.00  0.00    -0.458 OA
BRANCH  10  12
ATOM     12  C   UNL     1       6.236   4.699   4.447  0.00  0.00    +0.017 A 
ATOM     13  C   UNL     1       6.907   4.545   5.662  0.00  0.00    +0.013 A 
ATOM     14  C   UNL     1       6.677   5.435   6.690  0.00  0.00    +0.021 A 
ATOM     15  C   UNL     1       5.775   6.473   6.524  0.00  0.00    +0.041 A 
ATOM     16  C   UNL     1       5.103   6.627   5.323  0.00  0.00    +0.021 A 
ATOM     17  C   UNL     1       5.328   5.747   4.285  0.00  0.00    +0.013 A 
ATOM     18 CL   UNL     1       5.486   7.584   7.826  0.00  0.00    -0.084 Cl
ENDBRANCH  10  12
ENDBRANCH   6   7
ENDBRANCH   3   6
ENDBRANCH   1   4
BRANCH   1  19
ATOM     19  O   UNL     1       1.143   1.900   0.001  0.00  0.00    -0.452 OA
BRANCH  19  20
ATOM     20  C   UNL     1      -0.014   1.210   0.009  0.00  0.00    +0.340 C 
ATOM     21  O   UNL     1       0.002  -0.004   0.002  0.00  0.00    -0.245 OA
BRANCH  20  22
ATOM     22  C   UNL     1      -1.304   1.932   0.019  0.00  0.00    +0.059 A 
ATOM     23  C   UNL     1      -1.326   3.328   0.032  0.00  0.00    +0.015 A 
ATOM     24  C   UNL     1      -2.534   3.995   0.036  0.00  0.00    +0.006 A 
ATOM     25  C   UNL     1      -3.720   3.284   0.037  0.00  0.00    -0.030 A 
ATOM     26  C   UNL     1      -3.705   1.900   0.030  0.00  0.00    +0.006 A 
ATOM     27  C   UNL     1      -2.505   1.220   0.021  0.00  0.00    +0.015 A 
BRANCH  25  28
ATOM     28  C   UNL     1      -5.036   4.019   0.047  0.00  0.00    +0.153 C 
BRANCH  28  29
ATOM     29  N   UNL     1      -5.456   4.250   1.431  0.00  0.00    -0.220 N 
ATOM     30  C   UNL     1      -6.222   3.399   2.142  0.00  0.00    +0.240 C 
ATOM     31  O   UNL     1      -6.676   2.338   1.771  0.00  0.00    -0.273 OA
ATOM     32  C   UNL     1      -6.396   4.043   3.503  0.00  0.00    +0.202 C 
ATOM     33  N   UNL     1      -5.643   5.304   3.388  0.00  0.00    -0.290 N 
ATOM     34  C   UNL     1      -5.131   5.335   2.144  0.00  0.00    +0.309 C 
ATOM     35  O   UNL     1      -4.450   6.246   1.716  0.00  0.00    -0.252 OA
ATOM     36  H   UNL     1      -5.595   5.996   4.242  0.00  0.00    +0.151 HD
ENDBRANCH  28  29
ENDBRANCH  25  28
ENDBRANCH  20  22
ENDBRANCH  19  20
ENDBRANCH   1  19
TORSDOF 9
