REMARK  Name = ZINC04727419
REMARK  11 active torsions:
REMARK  status: ('A' for Active; 'I' for Inactive)
REMARK    1  A    between atoms: C_1  and  O_2
REMARK    2  A    between atoms: O_2  and  C_3
REMARK    3  A    between atoms: C_6  and  S_17
REMARK    4  A    between atoms: C_7  and  O_15
REMARK    5  A    between atoms: C_8  and  O_9
REMARK    6  A    between atoms: O_9  and  C_10
REMARK    7  A    between atoms: C_10  and  C_11
REMARK    8  A    between atoms: C_11  and  O_13
REMARK    9  A    between atoms: O_13  and  C_14
REMARK   10  A    between atoms: O_15  and  C_16
REMARK   11  A    between atoms: S_17  and  N_20
REMARK                            x       y       z     vdW  Elec       q    Type
REMARK                         _______ _______ _______ _____ _____    ______ ____
ROOT
ATOM      1  C   UNL     1      -2.401   4.954  -4.165  0.00  0.00    +0.165 A 
ATOM      2  C   UNL     1      -3.464   4.971  -3.275  0.00  0.00    +0.051 A 
ATOM      3  C   UNL     1      -3.284   4.545  -1.972  0.00  0.00    +0.036 A 
ATOM      4  C   UNL     1      -2.042   4.109  -1.549  0.00  0.00    +0.154 A 
ATOM      5  C   UNL     1      -0.974   4.089  -2.434  0.00  0.00    +0.192 A 
ATOM      6  C   UNL     1      -1.152   4.512  -3.746  0.00  0.00    +0.206 A 
ENDROOT
BRANCH   4   7
ATOM      7  S   UNL     1      -1.817   3.573   0.114  0.00  0.00    +0.078 S 
ATOM      8  O   UNL     1      -1.135   2.328   0.050  0.00  0.00    -0.150 OA
ATOM      9  O   UNL     1      -3.073   3.722   0.762  0.00  0.00    -0.150 OA
BRANCH   7  10
ATOM     10  N   UNL     1      -0.781   4.643   0.838  0.00  0.00    -0.202 N 
ATOM     11  C   UNL     1       0.664   4.449   0.978  0.00  0.00    +0.136 C 
ATOM     12  C   UNL     1       1.171   5.703   1.709  0.00  0.00    +0.058 C 
ATOM     13  C   UNL     1      -0.069   6.541   1.929  0.00  0.00    -0.023 A 
ATOM     14  C   UNL     1      -1.157   5.866   1.397  0.00  0.00    +0.054 A 
ATOM     15  C   UNL     1      -2.423   6.449   1.481  0.00  0.00    +0.025 A 
ATOM     16  C   UNL     1      -2.584   7.677   2.086  0.00  0.00    +0.002 A 
ATOM     17  C   UNL     1      -1.492   8.342   2.613  0.00  0.00    +0.000 A 
ATOM     18  C   UNL     1      -0.235   7.771   2.534  0.00  0.00    +0.005 A 
ENDBRANCH   7  10
ENDBRANCH   4   7
BRANCH   1  20
ATOM     19  C   UNL     1      -3.891   5.810  -5.810  0.00  0.00    +0.277 C 
ATOM     20  O   UNL     1      -2.581   5.369  -5.448  0.00  0.00    -0.491 OA
ENDBRANCH   1  20
BRANCH   5  21
ATOM     21  O   UNL     1       0.246   3.655  -2.018  0.00  0.00    -0.490 OA
ATOM     22  C   UNL     1       0.564   2.283  -2.260  0.00  0.00    +0.277 C 
ENDBRANCH   5  21
BRANCH   6  23
ATOM     23  O   UNL     1      -0.107   4.492  -4.617  0.00  0.00    -0.474 OA
BRANCH  23  24
ATOM     24  C   UNL     1      -0.007   3.362  -5.485  0.00  0.00    +0.349 C 
BRANCH  24  25
ATOM     25  C   UNL     1       1.274   3.448  -6.276  0.00  0.00    +0.345 C 
ATOM     26  O   UNL     1       2.023   4.381  -6.112  0.00  0.00    -0.247 OA
BRANCH  25  27
ATOM     27  O   UNL     1       1.581   2.487  -7.161  0.00  0.00    -0.466 OA
ATOM     28  C   UNL     1       2.830   2.635  -7.887  0.00  0.00    +0.280 C 
ENDBRANCH  25  27
ENDBRANCH  24  25
ENDBRANCH  23  24
ENDBRANCH   6  23
TORSDOF 8
