REMARK  Name = ZINC08791010
REMARK  7 active torsions:
REMARK  status: ('A' for Active; 'I' for Inactive)
REMARK    1  A    between atoms: C_1  and  C_2
REMARK    2  A    between atoms: C_16  and  C_18
REMARK    3  A    between atoms: C_18  and  C_19
REMARK    4  A    between atoms: C_22  and  O_25
REMARK    5  A    between atoms: N_28  and  C_31
REMARK    6  A    between atoms: C_31  and  C_32
REMARK    7  A    between atoms: C_32  and  C_33
REMARK                            x       y       z     vdW  Elec       q    Type
REMARK                         _______ _______ _______ _____ _____    ______ ____
ROOT
ATOM      1  C   UNL     1       3.680   2.176  -0.022  0.00  0.00    +0.046 C 
ATOM      2  C   UNL     1       2.382   1.411  -0.013  0.00  0.00    -0.028 A 
ATOM      3  C   UNL     1       2.397   0.031  -0.021  0.00  0.00    +0.025 A 
ATOM      4  C   UNL     1       1.210  -0.680  -0.013  0.00  0.00    +0.042 A 
ATOM      5  C   UNL     1       0.002  -0.004   0.002  0.00  0.00    +0.024 A 
ATOM      6  C   UNL     1      -0.017   1.372   0.010  0.00  0.00    -0.026 A 
ATOM      7  C   UNL     1       1.171   2.099   0.002  0.00  0.00    +0.039 A 
ATOM      8  N   UNL     1       0.899   3.469   0.013  0.00  0.00    -0.286 N 
ATOM      9  C   UNL     1      -0.423   3.724   0.029  0.00  0.00    +0.211 C 
ATOM     10  O   UNL     1      -0.950   4.816   0.042  0.00  0.00    -0.277 OA
ATOM     11  C   UNL     1      -1.120   2.391   0.032  0.00  0.00    +0.050 C 
ATOM     12  C   UNL     1      -2.048   2.242  -1.181  0.00  0.00    +0.088 C 
ATOM     13  C   UNL     1      -3.259   1.426  -0.647  0.00  0.00    +0.073 C 
ATOM     14  C   UNL     1      -2.932   1.156   0.837  0.00  0.00    -0.053 C 
ATOM     15  C   UNL     1      -4.418   2.391  -0.737  0.00  0.00    +0.224 C 
ATOM     16  O   UNL     1      -5.560   2.147  -0.412  0.00  0.00    -0.275 OA
ATOM     17  N   UNL     1      -3.964   3.565  -1.234  0.00  0.00    -0.241 N 
ATOM     18  C   UNL     1      -2.657   3.584  -1.521  0.00  0.00    +0.225 C 
ATOM     19  O   UNL     1      -2.055   4.530  -1.982  0.00  0.00    -0.275 OA
ATOM     20 CL   UNL     1       1.236  -2.416  -0.021  0.00  0.00    -0.084 Cl
ATOM     21  H   UNL     1       1.584   4.157   0.010  0.00  0.00    +0.155 HD
ATOM     22  N   UNL     1      -1.981   2.213   1.188  0.00  0.00    +0.394 N 
ATOM     23  H   UNL     1      -2.481   3.086   1.396  0.00  0.00    -0.083 HD
ATOM     24  H   UNL     1      -1.425   1.934   2.005  0.00  0.00    -0.083 HD
ENDROOT
BRANCH  14  25
ATOM     25  C   UNL     1      -4.202   1.243   1.685  0.00  0.00    +0.020 C 
BRANCH  25  26
ATOM     26  C   UNL     1      -3.868   0.930   3.122  0.00  0.00    -0.049 A 
ATOM     27  C   UNL     1      -3.936  -0.373   3.578  0.00  0.00    +0.007 A 
ATOM     28  C   UNL     1      -3.625  -0.663   4.892  0.00  0.00    +0.045 A 
ATOM     29  C   UNL     1      -3.257   0.356   5.758  0.00  0.00    +0.117 A 
ATOM     30  C   UNL     1      -3.195   1.664   5.299  0.00  0.00    +0.045 A 
ATOM     31  C   UNL     1      -3.501   1.948   3.982  0.00  0.00    +0.007 A 
BRANCH  29  32
ATOM     32  O   UNL     1      -2.957   0.075   7.053  0.00  0.00    -0.507 OA
ATOM     33  H   UNL     1      -3.717   0.111   7.649  0.00  0.00    +0.292 HD
ENDBRANCH  29  32
ENDBRANCH  25  26
ENDBRANCH  14  25
BRANCH  17  34
ATOM     34  C   UNL     1      -4.839   4.721  -1.447  0.00  0.00    +0.121 C 
BRANCH  34  35
ATOM     35  C   UNL     1      -5.429   4.661  -2.857  0.00  0.00    +0.054 C 
BRANCH  35  36
ATOM     36  C   UNL     1      -6.329   5.850  -3.076  0.00  0.00    -0.046 A 
ATOM     37  C   UNL     1      -7.673   5.766  -2.765  0.00  0.00    +0.004 A 
ATOM     38  C   UNL     1      -8.498   6.858  -2.961  0.00  0.00    +0.000 A 
ATOM     39  C   UNL     1      -7.980   8.031  -3.478  0.00  0.00    +0.000 A 
ATOM     40  C   UNL     1      -6.637   8.113  -3.794  0.00  0.00    +0.000 A 
ATOM     41  C   UNL     1      -5.811   7.023  -3.593  0.00  0.00    +0.004 A 
ENDBRANCH  35  36
ENDBRANCH  34  35
ENDBRANCH  17  34
TORSDOF 6
