REMARK  Name = ZINC67299000
REMARK  6 active torsions:
REMARK  status: ('A' for Active; 'I' for Inactive)
REMARK    1  A    between atoms: C_1  and  O_2
REMARK    2  A    between atoms: O_2  and  C_3
REMARK    3  A    between atoms: N_11  and  C_12
REMARK    4  A    between atoms: C_19  and  C_21
REMARK    5  A    between atoms: N_23  and  C_24
REMARK    6  A    between atoms: C_24  and  C_25
REMARK                            x       y       z     vdW  Elec       q    Type
REMARK                         _______ _______ _______ _____ _____    ______ ____
ROOT
ATOM      1  C   UNL     1      -1.288  -0.580   1.125  0.00  0.00    +0.163 A 
ATOM      2  C   UNL     1      -2.447   0.118   1.417  0.00  0.00    +0.049 A 
ATOM      3  C   UNL     1      -3.674  -0.529   1.442  0.00  0.00    +0.004 A 
ATOM      4  C   UNL     1      -3.756  -1.878   1.176  0.00  0.00    +0.012 A 
ATOM      5  C   UNL     1      -2.593  -2.599   0.880  0.00  0.00    +0.022 A 
ATOM      6  C   UNL     1      -1.351  -1.942   0.846  0.00  0.00    +0.179 A 
ATOM      7  O   UNL     1      -0.226  -2.638   0.546  0.00  0.00    -0.435 OA
ATOM      8  C   UNL     1      -0.225  -3.963   0.840  0.00  0.00    +0.212 A 
ATOM      9  N   UNL     1       0.840  -4.543   1.349  0.00  0.00    -0.323 N 
ATOM     10  C   UNL     1      -1.456  -4.733   0.571  0.00  0.00    +0.097 A 
ATOM     11  C   UNL     1      -2.654  -4.037   0.601  0.00  0.00    +0.030 A 
ATOM     12  H   UNL     1       0.803  -5.474   1.620  0.00  0.00    +0.169 HD
ENDROOT
BRANCH   9  13
ATOM     13  C   UNL     1       2.001  -3.834   1.496  0.00  0.00    +0.077 A 
ATOM     14  C   UNL     1       2.509  -3.090   0.428  0.00  0.00    +0.028 A 
ATOM     15  C   UNL     1       3.680  -2.378   0.584  0.00  0.00    +0.002 A 
ATOM     16  C   UNL     1       4.353  -2.399   1.792  0.00  0.00    +0.003 A 
ATOM     17  C   UNL     1       3.857  -3.134   2.855  0.00  0.00    +0.040 A 
ATOM     18  C   UNL     1       2.682  -3.847   2.717  0.00  0.00    +0.147 A 
ATOM     19  F   UNL     1       2.196  -4.559   3.757  0.00  0.00    -0.203 F 
ENDBRANCH   9  13
BRANCH  10  20
ATOM     20  C   UNL     1      -1.413  -6.179   0.295  0.00  0.00    +0.250 C 
ATOM     21  O   UNL     1      -0.354  -6.776   0.341  0.00  0.00    -0.270 OA
ATOM     22  N   UNL     1      -2.547  -6.841  -0.009  0.00  0.00    -0.304 N 
ATOM     23  H   UNL     1      -3.401  -6.382   0.026  0.00  0.00    +0.149 HD
BRANCH  22  24
ATOM     24  C   UNL     1      -2.490  -8.254  -0.391  0.00  0.00    +0.179 C 
BRANCH  24  25
ATOM     25  C   UNL     1      -3.883  -8.753  -0.678  0.00  0.00    +0.122 A 
ATOM     26  C   UNL     1      -4.496  -8.731  -1.875  0.00  0.00    +0.046 A 
ATOM     27  C   UNL     1      -5.779  -9.293  -1.689  0.00  0.00    +0.041 A 
ATOM     28  C   UNL     1      -5.874  -9.625  -0.389  0.00  0.00    +0.195 A 
ATOM     29  O   UNL     1      -4.721  -9.301   0.217  0.00  0.00    -0.466 OA
ENDBRANCH  24  25
ENDBRANCH  22  24
ENDBRANCH  10  20
BRANCH   1  31
ATOM     30  C   UNL     1      -0.102   1.464   1.399  0.00  0.00    +0.277 C 
ATOM     31  O   UNL     1      -0.091   0.065   1.103  0.00  0.00    -0.491 OA
ENDBRANCH   1  31
TORSDOF 5
