REMARK  Name = ZINC27318854
REMARK  7 active torsions:
REMARK  status: ('A' for Active; 'I' for Inactive)
REMARK    1  A    between atoms: C_1  and  C_2
REMARK    2  A    between atoms: N_6  and  C_10
REMARK    3  A    between atoms: C_17  and  C_21
REMARK    4  A    between atoms: C_18  and  C_19
REMARK    5  A    between atoms: C_18  and  C_20
REMARK    6  A    between atoms: C_21  and  S_22
REMARK    7  A    between atoms: S_22  and  N_25
REMARK                            x       y       z     vdW  Elec       q    Type
REMARK                         _______ _______ _______ _____ _____    ______ ____
ROOT
ATOM      1  C   UNL     1      -0.461  10.334  -2.276  0.00  0.00    +0.094 C 
ATOM      2  C   UNL     1      -0.721  11.827  -1.973  0.00  0.00    +0.027 C 
ATOM      3  C   UNL     1       0.003  12.086  -0.617  0.00  0.00    -0.003 C 
ATOM      4  C   UNL     1      -0.864  11.333   0.439  0.00  0.00    +0.005 C 
ATOM      5  C   UNL     1      -0.598   9.802   0.128  0.00  0.00    +0.011 C 
ATOM      6  C   UNL     1       0.395   9.831  -1.074  0.00  0.00    +0.016 C 
ATOM      7  C   UNL     1       1.232  11.119  -0.755  0.00  0.00    -0.023 C 
ATOM      8  C   UNL     1       2.024  10.981   0.547  0.00  0.00    +0.012 C 
ATOM      9  C   UNL     1       2.130  11.525  -1.925  0.00  0.00    +0.012 C 
ENDROOT
BRANCH   1  14
ATOM     10  C   UNL     1      -4.388   8.213  -0.810  0.00  0.00    +0.038 C 
ATOM     11  C   UNL     1      -3.893   8.929  -2.068  0.00  0.00    +0.158 C 
ATOM     12  C   UNL     1      -2.856   9.976  -1.713  0.00  0.00    +0.243 C 
ATOM     13  O   UNL     1      -3.011  10.950  -1.009  0.00  0.00    -0.273 OA
ATOM     14  N   UNL     1      -1.727   9.599  -2.345  0.00  0.00    -0.221 N 
ATOM     15  C   UNL     1      -1.905   8.473  -3.046  0.00  0.00    +0.309 C 
ATOM     16  O   UNL     1      -1.032   7.941  -3.702  0.00  0.00    -0.252 OA
ATOM     17  N   UNL     1      -3.159   7.996  -2.940  0.00  0.00    -0.288 N 
ATOM     18  H   UNL     1      -3.669   7.114  -3.356  0.00  0.00    +0.151 HD
ENDBRANCH   1  14
BRANCH   6  19
ATOM     19  C   UNL     1       1.194   8.548  -1.313  0.00  0.00    +0.194 C 
BRANCH  19  20
ATOM     20  S   UNL     1       1.139   7.515   0.178  0.00  0.00    +0.032 S 
ATOM     21  O   UNL     1      -0.203   7.157   0.476  0.00  0.00    -0.158 OA
ATOM     22  O   UNL     1       1.983   8.060   1.182  0.00  0.00    -0.158 OA
BRANCH  20  23
ATOM     23  N   UNL     1       1.868   6.094  -0.262  0.00  0.00    -0.181 NA
ATOM     24  C   UNL     1       3.317   5.916  -0.098  0.00  0.00    +0.110 C 
ATOM     25  C   UNL     1       3.567   4.643   0.719  0.00  0.00    +0.028 C 
ATOM     26  C   UNL     1       2.848   3.470   0.060  0.00  0.00    -0.001 C 
ATOM     27  C   UNL     1       3.398   3.248  -1.361  0.00  0.00    +0.016 C 
ATOM     28  C   UNL     1       3.328   1.712  -1.505  0.00  0.00    +0.036 C 
ATOM     29  C   UNL     1       3.410   1.177  -0.091  0.00  0.00    -0.044 A 
ATOM     30  C   UNL     1       3.132   2.190   0.810  0.00  0.00    -0.038 A 
ATOM     31  C   UNL     1       3.149   1.926   2.169  0.00  0.00    +0.004 A 
ATOM     32  C   UNL     1       3.442   0.656   2.627  0.00  0.00    +0.000 A 
ATOM     33  C   UNL     1       3.719  -0.355   1.728  0.00  0.00    +0.000 A 
ATOM     34  C   UNL     1       3.703  -0.095   0.371  0.00  0.00    +0.004 A 
ATOM     35  C   UNL     1       1.344   3.726   0.001  0.00  0.00    +0.028 C 
ATOM     36  C   UNL     1       1.077   4.991  -0.822  0.00  0.00    +0.110 C 
ENDBRANCH  20  23
ENDBRANCH  19  20
ENDBRANCH   6  19
TORSDOF 4
