REMARK  Name = ZINC09862413
REMARK  6 active torsions:
REMARK  status: ('A' for Active; 'I' for Inactive)
REMARK    1  A    between atoms: C_4  and  C_7
REMARK    2  A    between atoms: C_7  and  C_9
REMARK    3  A    between atoms: C_7  and  N_14
REMARK    4  A    between atoms: C_15  and  C_17
REMARK    5  A    between atoms: C_17  and  N_61
REMARK    6  A    between atoms: C_23  and  C_25
REMARK                            x       y       z     vdW  Elec       q    Type
REMARK                         _______ _______ _______ _____ _____    ______ ____
ROOT
ATOM      1  C   UNL     1       3.538   3.183  -0.926  0.00  0.00    -0.059 C 
ATOM      2  C   UNL     1       4.740   4.133  -0.933  0.00  0.00    +0.089 C 
ATOM      3  N   UNL     1       5.958   3.347  -0.683  0.00  0.00    -0.302 N 
ATOM      4  C   UNL     1       5.978   2.445   0.478  0.00  0.00    +0.089 C 
ATOM      5  C   UNL     1       4.727   1.562   0.430  0.00  0.00    -0.059 C 
ATOM      6  C   UNL     1       7.027   3.451  -1.497  0.00  0.00    +0.260 C 
ATOM      7  O   UNL     1       8.056   2.871  -1.223  0.00  0.00    -0.271 OA
ATOM      8  N   UNL     1       3.534   2.432   0.348  0.00  0.00    +0.387 N 
ATOM      9  H   UNL     1       3.555   3.099   1.128  0.00  0.00    -0.081 HD
ENDROOT
BRANCH   6  10
ATOM     10  C   UNL     1       6.944   4.289  -2.747  0.00  0.00    +0.296 C 
ATOM     11  C   UNL     1       6.044   3.593  -3.777  0.00  0.00    +0.283 C 
ATOM     12  O   UNL     1       5.999   4.407  -4.955  0.00  0.00    -0.484 OA
ATOM     13  C   UNL     1       7.188   4.888  -5.412  0.00  0.00    +0.162 A 
ATOM     14  C   UNL     1       7.273   5.369  -6.710  0.00  0.00    +0.049 A 
ATOM     15  C   UNL     1       8.471   5.866  -7.187  0.00  0.00    +0.004 A 
ATOM     16  C   UNL     1       9.587   5.886  -6.372  0.00  0.00    +0.004 A 
ATOM     17  C   UNL     1       9.509   5.408  -5.077  0.00  0.00    +0.049 A 
ATOM     18  C   UNL     1       8.310   4.906  -4.593  0.00  0.00    +0.163 A 
ATOM     19  O   UNL     1       8.249   4.436  -3.317  0.00  0.00    -0.473 OA
ENDBRANCH   6  10
BRANCH   8  20
ATOM     20  C   UNL     1       2.306   1.616   0.449  0.00  0.00    +0.019 C 
BRANCH  20  22
ATOM     21  N   UNL     1      -0.119   2.025   0.711  0.00  0.00    -0.306 N 
ATOM     22  C   UNL     1       1.121   2.537   0.583  0.00  0.00    +0.197 C 
ATOM     23  O   UNL     1       1.284   3.739   0.577  0.00  0.00    -0.278 OA
ATOM     24  H   UNL     1      -0.249   1.064   0.716  0.00  0.00    +0.150 HD
BRANCH  21  25
ATOM     25  C   UNL     1      -1.272   2.920   0.836  0.00  0.00    +0.140 C 
BRANCH  25  29
ATOM     26  C   UNL     1      -4.786   0.916  -0.534  0.00  0.00    +0.000 A 
ATOM     27  C   UNL     1      -4.589   2.250  -0.837  0.00  0.00    +0.000 A 
ATOM     28  C   UNL     1      -3.452   2.899  -0.394  0.00  0.00    +0.006 A 
ATOM     29  C   UNL     1      -2.512   2.213   0.353  0.00  0.00    -0.022 A 
ATOM     30  C   UNL     1      -2.706   0.877   0.651  0.00  0.00    +0.006 A 
ATOM     31  C   UNL     1      -3.846   0.230   0.212  0.00  0.00    +0.000 A 
ENDBRANCH  25  29
BRANCH  25  32
ATOM     32  C   UNL     1      -1.448   3.314   2.280  0.00  0.00    +0.014 A 
ATOM     33  C   UNL     1      -1.778   4.520   2.802  0.00  0.00    +0.013 A 
ATOM     34  C   UNL     1      -1.889   4.650   4.173  0.00  0.00    +0.008 A 
ATOM     35  C   UNL     1      -1.654   3.569   4.957  0.00  0.00    +0.045 A 
ATOM     36  S   UNL     1      -1.269   2.313   3.748  0.00  0.00    -0.099 S 
ENDBRANCH  25  32
ENDBRANCH  21  25
ENDBRANCH  20  22
ENDBRANCH   8  20
TORSDOF 6
