REMARK  Name = ZINC12915219
REMARK  7 active torsions:
REMARK  status: ('A' for Active; 'I' for Inactive)
REMARK    1  A    between atoms: C_5  and  C_7
REMARK    2  A    between atoms: C_7  and  C_9
REMARK    3  A    between atoms: C_7  and  N_62
REMARK    4  A    between atoms: C_9  and  N_10
REMARK    5  A    between atoms: C_11  and  C_13
REMARK    6  A    between atoms: C_16  and  S_19
REMARK    7  A    between atoms: S_19  and  N_22
REMARK                            x       y       z     vdW  Elec       q    Type
REMARK                         _______ _______ _______ _____ _____    ______ ____
ROOT
ATOM      1  N   UNL     1      -0.420   1.631   1.146  0.00  0.00    -0.313 N 
ATOM      2  C   UNL     1       0.318   1.577   2.272  0.00  0.00    +0.244 C 
ATOM      3  O   UNL     1       1.505   1.321   2.209  0.00  0.00    -0.270 OA
ATOM      4  H   UNL     1      -1.367   1.835   1.196  0.00  0.00    +0.149 HD
ENDROOT
BRANCH   2   5
ATOM      5  C   UNL     1      -0.315   1.828   3.584  0.00  0.00    +0.037 A 
ATOM      6  C   UNL     1      -1.676   2.128   3.659  0.00  0.00    +0.015 A 
ATOM      7  C   UNL     1      -2.262   2.357   4.887  0.00  0.00    +0.029 A 
ATOM      8  C   UNL     1      -1.501   2.300   6.042  0.00  0.00    +0.106 A 
ATOM      9  C   UNL     1      -0.150   2.009   5.973  0.00  0.00    +0.029 A 
ATOM     10  C   UNL     1       0.447   1.773   4.752  0.00  0.00    +0.015 A 
BRANCH   8  11
ATOM     11  S   UNL     1      -2.256   2.600   7.605  0.00  0.00    +0.061 S 
ATOM     12  O   UNL     1      -3.639   2.312   7.450  0.00  0.00    -0.153 OA
ATOM     13  O   UNL     1      -1.448   1.951   8.577  0.00  0.00    -0.153 OA
BRANCH  11  14
ATOM     14  N   UNL     1      -2.140   4.225   7.902  0.00  0.00    -0.177 NA
ATOM     15  C   UNL     1      -0.979   4.775   8.613  0.00  0.00    +0.109 C 
ATOM     16  C   UNL     1      -0.370   5.898   7.760  0.00  0.00    +0.017 C 
ATOM     17  C   UNL     1      -1.454   6.929   7.435  0.00  0.00    +0.003 C 
ATOM     18  C   UNL     1      -2.570   6.261   6.628  0.00  0.00    +0.017 C 
ATOM     19  C   UNL     1      -3.200   5.143   7.463  0.00  0.00    +0.109 C 
ENDBRANCH  11  14
ENDBRANCH   8  11
ENDBRANCH   2   5
BRANCH   1  20
ATOM     20  C   UNL     1       0.207   1.382  -0.154  0.00  0.00    +0.094 C 
BRANCH  20  21
ATOM     21  C   UNL     1      -0.802   1.663  -1.270  0.00  0.00    -0.019 C 
BRANCH  21  26
ATOM     22  C   UNL     1       1.052   1.972  -4.544  0.00  0.00    +0.000 A 
ATOM     23  C   UNL     1       0.942   0.689  -5.047  0.00  0.00    +0.001 A 
ATOM     24  C   UNL     1       0.268  -0.280  -4.328  0.00  0.00    +0.020 A 
ATOM     25  C   UNL     1      -0.297   0.035  -3.104  0.00  0.00    +0.043 A 
ATOM     26  C   UNL     1      -0.186   1.319  -2.602  0.00  0.00    -0.041 A 
ATOM     27  C   UNL     1       0.484   2.288  -3.324  0.00  0.00    +0.003 A 
ATOM     28 CL   UNL     1      -1.145  -1.181  -2.201  0.00  0.00    -0.083 Cl
ENDBRANCH  21  26
BRANCH  21  33
ATOM     29  C   UNL     1      -2.003   3.435  -2.430  0.00  0.00    -0.078 C 
ATOM     30  C   UNL     1      -2.706   4.743  -1.990  0.00  0.00    -0.020 C 
ATOM     31  C   UNL     1      -2.992   4.495  -0.491  0.00  0.00    -0.020 C 
ATOM     32  C   UNL     1      -1.990   3.406  -0.065  0.00  0.00    -0.078 C 
ATOM     33  N   UNL     1      -1.186   3.106  -1.251  0.00  0.00    +0.385 N 
ATOM     34  H   UNL     1      -0.335   3.681  -1.247  0.00  0.00    -0.081 HD
ENDBRANCH  21  33
ENDBRANCH  20  21
ENDBRANCH   1  20
TORSDOF 7
