REMARK  Name = ZINC13033983
REMARK  13 active torsions:
REMARK  status: ('A' for Active; 'I' for Inactive)
REMARK    1  A    between atoms: C_1  and  C_2
REMARK    2  A    between atoms: C_2  and  C_3
REMARK    3  A    between atoms: C_10  and  C_15
REMARK    4  A    between atoms: C_15  and  N_71
REMARK    5  A    between atoms: C_16  and  N_71
REMARK    6  A    between atoms: C_22  and  C_24
REMARK    7  A    between atoms: C_22  and  C_26
REMARK    8  A    between atoms: C_22  and  N_71
REMARK    9  A    between atoms: C_24  and  C_25
REMARK   10  A    between atoms: N_30  and  C_31
REMARK   11  A    between atoms: C_31  and  C_32
REMARK   12  A    between atoms: C_31  and  C_33
REMARK   13  A    between atoms: C_31  and  C_34
REMARK                            x       y       z     vdW  Elec       q    Type
REMARK                         _______ _______ _______ _____ _____    ______ ____
ROOT
ATOM      1  N   UNL     1       4.503   0.031   1.081  0.00  0.00    +0.391 N 
ATOM      2  H   UNL     1       4.151   0.045   2.045  0.00  0.00    -0.080 HD
ENDROOT
BRANCH   1   3
ATOM      3  C   UNL     1       4.219  -1.292   0.486  0.00  0.00    -0.067 C 
ATOM      4  C   UNL     1       4.558  -1.294  -1.006  0.00  0.00    -0.015 C 
ATOM      5  C   UNL     1       4.252  -2.671  -1.598  0.00  0.00    -0.002 C 
ATOM      6  C   UNL     1       2.766  -2.987  -1.412  0.00  0.00    -0.000 C 
ATOM      7  C   UNL     1       2.427  -2.985   0.079  0.00  0.00    -0.002 C 
ATOM      8  C   UNL     1       2.733  -1.608   0.671  0.00  0.00    -0.015 C 
ENDBRANCH   1   3
BRANCH   1   9
ATOM      9  C   UNL     1       5.961   0.274   1.098  0.00  0.00    -0.036 C 
BRANCH   9  17
ATOM     10  C   UNL     1       8.833  -4.492   3.804  0.00  0.00    -0.047 A 
ATOM     11  C   UNL     1       8.816  -3.974   5.091  0.00  0.00    +0.005 A 
ATOM     12  C   UNL     1       8.251  -2.743   5.346  0.00  0.00    +0.026 A 
ATOM     13  C   UNL     1       7.692  -2.011   4.304  0.00  0.00    +0.049 A 
ATOM     14  C   UNL     1       7.711  -2.540   3.000  0.00  0.00    -0.001 A 
ATOM     15  C   UNL     1       8.290  -3.791   2.765  0.00  0.00    +0.013 A 
ATOM     16  C   UNL     1       7.116  -1.763   1.910  0.00  0.00    +0.017 A 
ATOM     17  C   UNL     1       6.576  -0.553   2.197  0.00  0.00    +0.001 A 
ATOM     18  C   UNL     1       6.582  -0.068   3.523  0.00  0.00    +0.251 A 
ATOM     19  O   UNL     1       6.086   1.020   3.760  0.00  0.00    -0.268 OA
ATOM     20  N   UNL     1       7.121  -0.776   4.530  0.00  0.00    -0.322 N 
ATOM     21  H   UNL     1       7.109  -0.413   5.430  0.00  0.00    +0.169 HD
BRANCH  10  23
ATOM     22  C   UNL     1      10.940  -5.664   3.226  0.00  0.00    +0.009 C 
ATOM     23  C   UNL     1       9.456  -5.841   3.550  0.00  0.00    +0.032 C 
ENDBRANCH  10  23
ENDBRANCH   9  17
ENDBRANCH   1   9
BRANCH   1  24
ATOM     24  C   UNL     1       3.824   1.090   0.305  0.00  0.00    +0.003 C 
BRANCH  24  25
ATOM     25  C   UNL     1       4.537   1.329  -1.000  0.00  0.00    +0.139 A 
ATOM     26  N   UNL     1       5.830   1.271  -1.207  0.00  0.00    -0.115 NA
ATOM     27  N   UNL     1       6.047   1.536  -2.449  0.00  0.00    -0.023 NA
ATOM     28  N   UNL     1       4.926   1.761  -3.040  0.00  0.00    -0.043 NA
ATOM     29  N   UNL     1       3.971   1.643  -2.180  0.00  0.00    -0.226 N 
BRANCH  29  30
ATOM     30  C   UNL     1       2.540   1.817  -2.439  0.00  0.00    +0.059 C 
ATOM     31  C   UNL     1       2.340   2.350  -3.860  0.00  0.00    +0.036 C 
ATOM     32  C   UNL     1       1.827   0.471  -2.294  0.00  0.00    +0.036 C 
ATOM     33  C   UNL     1       1.958   2.814  -1.435  0.00  0.00    +0.036 C 
ENDBRANCH  29  30
ENDBRANCH  24  25
BRANCH  24  34
ATOM     34  C   UNL     1       3.823   2.379   1.129  0.00  0.00    -0.011 C 
ATOM     35  C   UNL     1       2.979   2.178   2.389  0.00  0.00    +0.002 C 
ENDBRANCH  24  34
ENDBRANCH   1  24
TORSDOF 8
