REMARK  Name = ZINC33794158
REMARK  7 active torsions:
REMARK  status: ('A' for Active; 'I' for Inactive)
REMARK    1  A    between atoms: C_1  and  C_2
REMARK    2  A    between atoms: C_2  and  C_28
REMARK    3  A    between atoms: N_7  and  C_8
REMARK    4  A    between atoms: N_14  and  C_15
REMARK    5  A    between atoms: C_15  and  C_16
REMARK    6  A    between atoms: C_15  and  C_22
REMARK    7  A    between atoms: C_28  and  C_29
REMARK                            x       y       z     vdW  Elec       q    Type
REMARK                         _______ _______ _______ _____ _____    ______ ____
ROOT
ATOM      1  C   UNL     1       3.974   0.260  -1.266  0.00  0.00    +0.040 C 
ATOM      2  C   UNL     1       4.058  -1.258  -1.091  0.00  0.00    +0.096 C 
ATOM      3  C   UNL     1       3.085  -1.957  -2.019  0.00  0.00    +0.099 C 
ATOM      4  N   UNL     1       3.810  -2.706  -2.810  0.00  0.00    -0.285 N 
ATOM      5  C   UNL     1       5.117  -2.610  -2.548  0.00  0.00    +0.143 C 
ATOM      6  S   UNL     1       6.328  -3.464  -3.406  0.00  0.00    -0.018 S 
ATOM      7  N   UNL     1       5.371  -1.764  -1.531  0.00  0.00    -0.269 N 
ATOM      8  N   UNL     1       1.733  -1.832  -2.029  0.00  0.00    -0.364 N 
ATOM      9  H   UNL     1       3.326  -3.321  -3.583  0.00  0.00    +0.155 HD
ATOM     10  H   UNL     1       1.237  -1.165  -1.307  0.00  0.00    +0.161 HD
ENDROOT
BRANCH   7  11
ATOM     11  C   UNL     1       6.622  -1.434  -1.002  0.00  0.00    +0.036 A 
ATOM     12  C   UNL     1       7.336  -0.361  -1.520  0.00  0.00    +0.023 A 
ATOM     13  C   UNL     1       8.569  -0.034  -0.992  0.00  0.00    +0.002 A 
ATOM     14  C   UNL     1       9.098  -0.780   0.046  0.00  0.00    +0.000 A 
ATOM     15  C   UNL     1       8.393  -1.852   0.560  0.00  0.00    +0.002 A 
ATOM     16  C   UNL     1       7.156  -2.181   0.040  0.00  0.00    +0.023 A 
ENDBRANCH   7  11
BRANCH   8  17
ATOM     17  C   UNL     1       0.934  -2.585  -2.999  0.00  0.00    +0.141 C 
BRANCH  17  18
ATOM     18  C   UNL     1      -0.460  -2.778  -2.460  0.00  0.00    -0.021 A 
ATOM     19  C   UNL     1      -1.086  -1.751  -1.778  0.00  0.00    +0.006 A 
ATOM     20  C   UNL     1      -2.367  -1.927  -1.288  0.00  0.00    +0.000 A 
ATOM     21  C   UNL     1      -3.017  -3.133  -1.470  0.00  0.00    +0.000 A 
ATOM     22  C   UNL     1      -2.389  -4.162  -2.147  0.00  0.00    +0.000 A 
ATOM     23  C   UNL     1      -1.111  -3.984  -2.642  0.00  0.00    +0.006 A 
ENDBRANCH  17  18
BRANCH  17  24
ATOM     24  C   UNL     1       0.869  -1.821  -4.296  0.00  0.00    -0.021 A 
ATOM     25  C   UNL     1       0.715  -0.447  -4.283  0.00  0.00    +0.006 A 
ATOM     26  C   UNL     1       0.661   0.254  -5.473  0.00  0.00    +0.000 A 
ATOM     27  C   UNL     1       0.750  -0.420  -6.677  0.00  0.00    +0.000 A 
ATOM     28  C   UNL     1       0.898  -1.794  -6.690  0.00  0.00    +0.000 A 
ATOM     29  C   UNL     1       0.958  -2.495  -5.500  0.00  0.00    +0.006 A 
ENDBRANCH  17  24
ENDBRANCH   8  17
BRANCH   2  30
ATOM     30  C   UNL     1       3.790  -1.647   0.364  0.00  0.00    +0.068 C 
BRANCH  30  31
ATOM     31  C   UNL     1       2.398  -1.217   0.751  0.00  0.00    -0.045 A 
ATOM     32  C   UNL     1       1.333  -2.078   0.567  0.00  0.00    +0.004 A 
ATOM     33  C   UNL     1       0.056  -1.684   0.922  0.00  0.00    +0.000 A 
ATOM     34  C   UNL     1      -0.154  -0.429   1.463  0.00  0.00    +0.000 A 
ATOM     35  C   UNL     1       0.912   0.432   1.647  0.00  0.00    +0.000 A 
ATOM     36  C   UNL     1       2.188   0.038   1.290  0.00  0.00    +0.004 A 
ENDBRANCH  30  31
ENDBRANCH   2  30
TORSDOF 6
