REMARK  Name = ZINC14989525
REMARK  9 active torsions:
REMARK  status: ('A' for Active; 'I' for Inactive)
REMARK    1  A    between atoms: C_1  and  C_2
REMARK    2  A    between atoms: C_4  and  C_8
REMARK    3  A    between atoms: C_5  and  C_7
REMARK    4  A    between atoms: C_13  and  C_16
REMARK    5  A    between atoms: C_16  and  C_29
REMARK    6  A    between atoms: N_19  and  C_23
REMARK    7  A    between atoms: C_23  and  C_24
REMARK    8  A    between atoms: C_24  and  N_72
REMARK    9  A    between atoms: C_29  and  C_30
REMARK                            x       y       z     vdW  Elec       q    Type
REMARK                         _______ _______ _______ _____ _____    ______ ____
ROOT
ATOM      1  C   UNL     1       0.408   4.817   1.500  0.00  0.00    +0.119 C 
ATOM      2  C   UNL     1       0.650   5.894   2.539  0.00  0.00    +0.247 C 
ATOM      3  O   UNL     1      -0.133   6.741   2.912  0.00  0.00    -0.273 OA
ATOM      4  N   UNL     1       1.918   5.717   2.959  0.00  0.00    -0.226 N 
ATOM      5  C   UNL     1       2.504   4.686   2.339  0.00  0.00    +0.309 C 
ATOM      6  O   UNL     1       3.647   4.332   2.550  0.00  0.00    -0.252 OA
ATOM      7  N   UNL     1       1.686   4.085   1.456  0.00  0.00    -0.284 N 
ATOM      8  H   UNL     1       1.898   3.322   0.896  0.00  0.00    +0.151 HD
ENDROOT
BRANCH   1  14
ATOM      9  C   UNL     1      -3.777   3.234   4.613  0.00  0.00    +0.250 C 
ATOM     10  O   UNL     1      -3.546   2.694   5.678  0.00  0.00    -0.270 OA
ATOM     11  N   UNL     1      -2.889   3.140   3.603  0.00  0.00    -0.297 N 
ATOM     12  C   UNL     1      -1.596   2.470   3.803  0.00  0.00    +0.108 C 
ATOM     13  C   UNL     1      -0.476   3.424   3.377  0.00  0.00    +0.025 C 
ATOM     14  C   UNL     1      -0.727   3.891   1.941  0.00  0.00    +0.025 C 
ATOM     15  C   UNL     1      -2.056   4.647   1.874  0.00  0.00    +0.025 C 
ATOM     16  C   UNL     1      -3.195   3.707   2.283  0.00  0.00    +0.108 C 
BRANCH   9  20
ATOM     17  C   UNL     1      -8.165   4.998   2.699  0.00  0.00    +0.086 C 
ATOM     18  C   UNL     1      -6.958   4.755   3.569  0.00  0.00    +0.103 A 
ATOM     19  C   UNL     1      -5.977   3.877   3.309  0.00  0.00    +0.057 A 
ATOM     20  C   UNL     1      -5.028   3.990   4.427  0.00  0.00    +0.078 A 
ATOM     21  C   UNL     1      -5.550   4.937   5.258  0.00  0.00    +0.114 A 
ATOM     22  O   UNL     1      -6.693   5.381   4.726  0.00  0.00    -0.464 OA
ATOM     23  C   UNL     1      -4.941   5.406   6.553  0.00  0.00    +0.087 C 
ENDBRANCH   9  20
ENDBRANCH   1  14
BRANCH   4  24
ATOM     24  C   UNL     1       2.575   6.551   3.968  0.00  0.00    +0.099 C 
BRANCH  24  25
ATOM     25  C   UNL     1       3.270   7.729   3.283  0.00  0.00    -0.059 C 
BRANCH  25  30
ATOM     26  C   UNL     1       4.813   7.750   5.166  0.00  0.00    -0.079 C 
ATOM     27  C   UNL     1       5.779   8.799   5.772  0.00  0.00    -0.020 C 
ATOM     28  C   UNL     1       6.013   9.774   4.596  0.00  0.00    -0.020 C 
ATOM     29  C   UNL     1       4.806   9.573   3.661  0.00  0.00    -0.079 C 
ATOM     30  N   UNL     1       3.951   8.577   4.308  0.00  0.00    +0.381 N 
ATOM     31  H   UNL     1       3.240   9.048   4.880  0.00  0.00    -0.082 HD
ENDBRANCH  25  30
ENDBRANCH  24  25
ENDBRANCH   4  24
BRANCH   1  32
ATOM     32  C   UNL     1       0.098   5.441   0.138  0.00  0.00    +0.070 C 
BRANCH  32  33
ATOM     33  C   UNL     1       1.261   6.292  -0.302  0.00  0.00    -0.045 A 
ATOM     34  C   UNL     1       1.304   7.631   0.036  0.00  0.00    +0.004 A 
ATOM     35  C   UNL     1       2.373   8.411  -0.363  0.00  0.00    +0.000 A 
ATOM     36  C   UNL     1       3.395   7.854  -1.109  0.00  0.00    +0.000 A 
ATOM     37  C   UNL     1       3.349   6.515  -1.452  0.00  0.00    +0.000 A 
ATOM     38  C   UNL     1       2.282   5.734  -1.049  0.00  0.00    +0.004 A 
ENDBRANCH  32  33
ENDBRANCH   1  32
TORSDOF 7
