REMARK  Name = ZINC63908538
REMARK  6 active torsions:
REMARK  status: ('A' for Active; 'I' for Inactive)
REMARK    1  A    between atoms: C_4  and  C_7
REMARK    2  A    between atoms: C_7  and  C_9
REMARK    3  A    between atoms: C_7  and  C_21
REMARK    4  A    between atoms: C_9  and  N_10
REMARK    5  A    between atoms: N_10  and  S_11
REMARK    6  A    between atoms: S_11  and  C_14
REMARK                            x       y       z     vdW  Elec       q    Type
REMARK                         _______ _______ _______ _____ _____    ______ ____
ROOT
ATOM      1  C   UNL     1       3.711  -0.707  -0.038  0.00  0.00    +0.063 C 
ENDROOT
BRANCH   1   2
ATOM      2  C   UNL     1       3.816  -1.579   1.188  0.00  0.00    -0.033 C 
ATOM      3  C   UNL     1       4.756  -1.509   2.157  0.00  0.00    -0.000 A 
ATOM      4  C   UNL     1       5.920  -0.636   2.352  0.00  0.00    +0.010 A 
ATOM      5  C   UNL     1       6.696  -0.812   3.446  0.00  0.00    +0.001 A 
ATOM      6  C   UNL     1       6.417  -1.805   4.396  0.00  0.00    +0.002 A 
ATOM      7  C   UNL     1       5.366  -2.646   4.285  0.00  0.00    +0.026 A 
ATOM      8  C   UNL     1       4.483  -2.550   3.174  0.00  0.00    +0.043 A 
ATOM      9  N   UNL     1       3.415  -3.236   2.846  0.00  0.00    -0.380 N 
ATOM     10  C   UNL     1       2.886  -2.703   1.585  0.00  0.00    +0.145 C 
ATOM     11  H   UNL     1       3.036  -3.970   3.354  0.00  0.00    +0.160 HD
ENDBRANCH   1   2
BRANCH   1  15
ATOM     12  C   UNL     1      -0.017   1.378   0.010  0.00  0.00    +0.000 A 
ATOM     13  C   UNL     1       1.171   2.086   0.002  0.00  0.00    +0.000 A 
ATOM     14  C   UNL     1       2.377   1.411  -0.013  0.00  0.00    +0.004 A 
ATOM     15  C   UNL     1       2.396   0.029  -0.020  0.00  0.00    -0.039 A 
ATOM     16  C   UNL     1       1.208  -0.679  -0.012  0.00  0.00    +0.004 A 
ATOM     17  C   UNL     1       0.002  -0.004   0.002  0.00  0.00    +0.000 A 
ENDBRANCH   1  15
BRANCH   1  18
ATOM     18  C   UNL     1       3.791  -1.579  -1.292  0.00  0.00    +0.118 C 
BRANCH  18  19
ATOM     19  N   UNL     1       3.810  -0.724  -2.481  0.00  0.00    -0.189 NA
ATOM     20  H   UNL     1       3.558   0.210  -2.411  0.00  0.00    +0.148 HD
BRANCH  19  21
ATOM     21  S   UNL     1       4.261  -1.351  -3.946  0.00  0.00    +0.060 S 
ATOM     22  O   UNL     1       4.152  -0.296  -4.891  0.00  0.00    -0.153 OA
ATOM     23  O   UNL     1       5.476  -2.056  -3.728  0.00  0.00    -0.153 OA
BRANCH  21  24
ATOM     24  C   UNL     1       3.054  -2.554  -4.392  0.00  0.00    +0.123 A 
ATOM     25  C   UNL     1       3.205  -3.878  -4.006  0.00  0.00    +0.033 A 
ATOM     26  C   UNL     1       2.231  -4.790  -4.379  0.00  0.00    +0.042 A 
ATOM     27  C   UNL     1       1.146  -4.352  -5.119  0.00  0.00    +0.129 A 
ATOM     28  N   UNL     1       1.035  -3.085  -5.468  0.00  0.00    -0.242 NA
ATOM     29  C   UNL     1       1.941  -2.189  -5.125  0.00  0.00    +0.141 A 
ATOM     30 CL   UNL     1      -0.081  -5.484  -5.594  0.00  0.00    -0.062 Cl
ENDBRANCH  21  24
ENDBRANCH  19  21
ENDBRANCH  18  19
ENDBRANCH   1  18
TORSDOF 6
