REMARK  Name = ZINC08832445
REMARK  11 active torsions:
REMARK  status: ('A' for Active; 'I' for Inactive)
REMARK    1  A    between atoms: C_1  and  C_2
REMARK    2  A    between atoms: C_4  and  O_10
REMARK    3  A    between atoms: C_6  and  C_9
REMARK    4  A    between atoms: O_10  and  C_11
REMARK    5  A    between atoms: C_11  and  C_12
REMARK    6  A    between atoms: N_14  and  C_15
REMARK    7  A    between atoms: C_16  and  C_29
REMARK    8  A    between atoms: C_21  and  C_25
REMARK    9  A    between atoms: C_25  and  C_26
REMARK   10  A    between atoms: C_25  and  C_27
REMARK   11  A    between atoms: C_25  and  C_28
REMARK                            x       y       z     vdW  Elec       q    Type
REMARK                         _______ _______ _______ _____ _____    ______ ____
ROOT
ATOM      1  C   UNL     1       1.175   2.053   0.002  0.00  0.00    +0.084 A 
ATOM      2  C   UNL     1       1.359   3.429   0.007  0.00  0.00    +0.068 A 
ATOM      3  C   UNL     1       2.726   3.923  -0.002  0.00  0.00    -0.023 A 
ATOM      4  C   UNL     1       3.682   2.970  -0.017  0.00  0.00    -0.004 A 
ATOM      5  S   UNL     1       2.795   1.438  -0.009  0.00  0.00    -0.077 S 
ATOM      6  C   UNL     1       5.165   3.178  -0.030  0.00  0.00    +0.046 C 
ATOM      7  C   UNL     1       5.445   4.641  -0.403  0.00  0.00    -0.000 C 
ATOM      8  C   UNL     1       4.549   5.547   0.447  0.00  0.00    +0.009 C 
ATOM      9  C   UNL     1       3.092   5.402   0.003  0.00  0.00    +0.037 C 
ENDROOT
BRANCH   2  10
ATOM     10  C   UNL     1       0.218   4.349   0.022  0.00  0.00    +0.244 C 
ATOM     11  O   UNL     1      -0.246   4.725   1.083  0.00  0.00    -0.270 OA
ATOM     12  N   UNL     1      -0.317   4.777  -1.138  0.00  0.00    -0.325 N 
ATOM     13  H   UNL     1       0.053   4.477  -1.983  0.00  0.00    +0.145 HD
ATOM     14  H   UNL     1      -1.072   5.386  -1.128  0.00  0.00    +0.145 HD
ENDBRANCH   2  10
BRANCH   1  17
ATOM     15  C   UNL     1       0.002  -0.004   0.002  0.00  0.00    +0.255 C 
ATOM     16  O   UNL     1       1.060  -0.596  -0.011  0.00  0.00    -0.272 OA
ATOM     17  N   UNL     1      -0.016   1.344   0.009  0.00  0.00    -0.277 N 
ATOM     18  H   UNL     1      -0.863   1.817   0.016  0.00  0.00    +0.155 HD
BRANCH  15  19
ATOM     19  C   UNL     1      -1.293  -0.775   0.010  0.00  0.00    +0.324 C 
BRANCH  19  20
ATOM     20  O   UNL     1      -1.012  -2.176   0.000  0.00  0.00    -0.483 OA
BRANCH  20  24
ATOM     21  C   UNL     1      -2.749  -6.738  -0.007  0.00  0.00    +0.045 C 
ATOM     22  C   UNL     1      -2.965  -5.247   0.003  0.00  0.00    -0.028 A 
ATOM     23  C   UNL     1      -1.880  -4.392  -0.004  0.00  0.00    +0.050 A 
ATOM     24  C   UNL     1      -2.079  -3.019   0.006  0.00  0.00    +0.122 A 
ATOM     25  C   UNL     1      -3.368  -2.507   0.027  0.00  0.00    +0.050 A 
ATOM     26  C   UNL     1      -4.451  -3.365   0.027  0.00  0.00    -0.028 A 
ATOM     27  C   UNL     1      -4.250  -4.734   0.018  0.00  0.00    +0.047 A 
ATOM     28 CL   UNL     1      -5.612  -5.810   0.025  0.00  0.00    -0.083 Cl
ATOM     29  C   UNL     1      -5.852  -2.810   0.044  0.00  0.00    +0.045 C 
ENDBRANCH  20  24
ENDBRANCH  19  20
ENDBRANCH  15  19
ENDBRANCH   1  17
BRANCH   7  30
ATOM     30  C   UNL     1       6.913   4.969  -0.128  0.00  0.00    -0.035 C 
ATOM     31  C   UNL     1       7.218   4.740   1.354  0.00  0.00    +0.011 C 
ATOM     32  C   UNL     1       7.806   4.063  -0.978  0.00  0.00    +0.011 C 
ATOM     33  C   UNL     1       7.185   6.432  -0.484  0.00  0.00    +0.011 C 
ENDBRANCH   7  30
TORSDOF 6
