REMARK  Name = ZINC08453966
REMARK  4 active torsions:
REMARK  status: ('A' for Active; 'I' for Inactive)
REMARK    1  A    between atoms: C_3  and  C_6
REMARK    2  A    between atoms: C_13  and  C_14
REMARK    3  A    between atoms: C_13  and  N_76
REMARK    4  A    between atoms: C_23  and  C_33
REMARK                            x       y       z     vdW  Elec       q    Type
REMARK                         _______ _______ _______ _____ _____    ______ ____
ROOT
ATOM      1  C   UNL     1      -4.457   6.058   6.665  0.00  0.00    +0.200 C 
ATOM      2  O   UNL     1      -4.924   6.972   6.020  0.00  0.00    -0.278 OA
ATOM      3  N   UNL     1      -4.271   4.853   6.091  0.00  0.00    -0.293 N 
ATOM      4  C   UNL     1      -3.706   3.723   6.847  0.00  0.00    +0.130 C 
ATOM      5  C   UNL     1      -2.350   3.304   6.271  0.00  0.00    +0.141 C 
ATOM      6  N   UNL     1      -2.433   3.264   4.804  0.00  0.00    -0.340 N 
ATOM      7  C   UNL     1      -1.582   2.679   3.909  0.00  0.00    +0.050 A 
ATOM      8  C   UNL     1      -0.435   1.909   4.085  0.00  0.00    +0.027 A 
ATOM      9  C   UNL     1       0.210   1.465   2.945  0.00  0.00    +0.006 A 
ATOM     10  C   UNL     1      -0.246   1.772   1.673  0.00  0.00    -0.044 A 
ATOM     11  C   UNL     1      -1.373   2.526   1.465  0.00  0.00    +0.014 A 
ATOM     12  C   UNL     1      -2.054   2.985   2.598  0.00  0.00    +0.004 A 
ATOM     13  C   UNL     1      -3.240   3.776   2.777  0.00  0.00    -0.017 A 
ATOM     14  C   UNL     1      -3.440   3.866   4.108  0.00  0.00    +0.044 A 
ATOM     15  C   UNL     1      -4.627   4.612   4.678  0.00  0.00    +0.123 C 
ATOM     16  C   UNL     1      -4.769   5.920   3.918  0.00  0.00    +0.029 C 
ATOM     17  C   UNL     1      -4.540   5.843   2.427  0.00  0.00    +0.007 C 
ATOM     18  C   UNL     1      -4.198   4.475   1.853  0.00  0.00    +0.037 C 
ENDROOT
BRANCH  10  19
ATOM     19  C   UNL     1       0.517   1.256   0.481  0.00  0.00    +0.019 C 
ATOM     20  C   UNL     1       1.946   1.803   0.514  0.00  0.00    +0.008 C 
ATOM     21  C   UNL     1       2.721   1.279  -0.697  0.00  0.00    +0.001 C 
ATOM     22  C   UNL     1       2.759  -0.250  -0.656  0.00  0.00    +0.000 C 
ATOM     23  C   UNL     1       1.330  -0.797  -0.689  0.00  0.00    +0.001 C 
ATOM     24  C   UNL     1       0.555  -0.273   0.522  0.00  0.00    +0.008 C 
ENDBRANCH  10  19
BRANCH   1  25
ATOM     25  C   UNL     1      -4.082   6.270   8.110  0.00  0.00    +0.019 C 
BRANCH  25  33
ATOM     26  C   UNL     1      -3.401  11.279  10.083  0.00  0.00    +0.282 C 
ATOM     27  O   UNL     1      -3.495  11.461  11.282  0.00  0.00    -0.267 OA
ATOM     28  N   UNL     1      -4.018  10.226   9.510  0.00  0.00    -0.299 N 
ATOM     29  C   UNL     1      -4.743   9.241  10.326  0.00  0.00    +0.089 C 
ATOM     30  C   UNL     1      -4.253   7.839   9.946  0.00  0.00    -0.059 C 
ATOM     31  C   UNL     1      -3.524   8.601   7.762  0.00  0.00    -0.059 C 
ATOM     32  C   UNL     1      -3.984  10.033   8.052  0.00  0.00    +0.089 C 
ATOM     33  N   UNL     1      -4.408   7.662   8.486  0.00  0.00    +0.387 N 
ATOM     34  H   UNL     1      -5.383   7.857   8.229  0.00  0.00    -0.081 HD
BRANCH  26  37
ATOM     35  C   UNL     1      -1.274  13.847   8.597  0.00  0.00    +0.042 A 
ATOM     36  C   UNL     1      -1.838  13.227   9.723  0.00  0.00    +0.054 A 
ATOM     37  C   UNL     1      -2.617  12.206   9.260  0.00  0.00    +0.189 A 
ATOM     38  O   UNL     1      -2.543  12.202   7.913  0.00  0.00    -0.458 OA
ATOM     39  C   UNL     1      -1.734  13.191   7.509  0.00  0.00    +0.196 A 
ENDBRANCH  26  37
ENDBRANCH  25  33
ENDBRANCH   1  25
TORSDOF 4
