REMARK  Name = ZINC21811044
REMARK  10 active torsions:
REMARK  status: ('A' for Active; 'I' for Inactive)
REMARK    1  A    between atoms: C_1  and  C_2
REMARK    2  A    between atoms: C_5  and  N_8
REMARK    3  A    between atoms: C_9  and  C_11
REMARK    4  A    between atoms: C_11  and  C_35
REMARK    5  A    between atoms: N_23  and  C_24
REMARK    6  A    between atoms: C_24  and  C_25
REMARK    7  A    between atoms: C_28  and  O_31
REMARK    8  A    between atoms: O_31  and  C_32
REMARK    9  A    between atoms: C_32  and  C_33
REMARK   10  A    between atoms: C_32  and  C_34
REMARK                            x       y       z     vdW  Elec       q    Type
REMARK                         _______ _______ _______ _____ _____    ______ ____
ROOT
ATOM      1  C   UNL     1       2.531   0.345   1.163  0.00  0.00    +0.129 C 
ATOM      2  C   UNL     1       2.739   1.858   1.229  0.00  0.00    +0.157 C 
ATOM      3  N   UNL     1       1.444   2.529   1.082  0.00  0.00    -0.331 N 
ATOM      4  C   UNL     1       1.020   3.729   1.568  0.00  0.00    +0.088 A 
ATOM      5  C   UNL     1       1.354   4.866   2.342  0.00  0.00    +0.067 A 
ATOM      6  C   UNL     1       0.286   5.681   2.336  0.00  0.00    +0.198 A 
ATOM      7  O   UNL     1      -0.697   5.126   1.607  0.00  0.00    -0.461 OA
ATOM      8  C   UNL     1      -0.287   3.933   1.125  0.00  0.00    +0.153 A 
ATOM      9  C   UNL     1      -0.656   2.815   0.363  0.00  0.00    +0.079 A 
ATOM     10  C   UNL     1       0.407   1.961   0.347  0.00  0.00    +0.109 A 
ATOM     11  C   UNL     1       0.566   0.645  -0.284  0.00  0.00    +0.264 C 
ATOM     12  O   UNL     1      -0.255   0.207  -1.070  0.00  0.00    -0.268 OA
ATOM     13  N   UNL     1       1.674  -0.054   0.053  0.00  0.00    -0.276 N 
ATOM     14  C   UNL     1       1.895  -0.124   2.473  0.00  0.00    +0.043 C 
ENDROOT
BRANCH   1  16
ATOM     15  N   UNL     1       4.913   0.361   0.496  0.00  0.00    -0.311 N 
ATOM     16  C   UNL     1       3.872  -0.325   1.009  0.00  0.00    +0.238 C 
ATOM     17  O   UNL     1       4.015  -1.481   1.346  0.00  0.00    -0.273 OA
ATOM     18  H   UNL     1       4.801   1.427   0.248  0.00  0.00    +0.149 HD
BRANCH  15  23
ATOM     19  C   UNL     1       8.295   3.269   1.484  0.00  0.00    +0.007 C 
ATOM     20  C   UNL     1       8.041   1.841   1.000  0.00  0.00    -0.014 C 
ATOM     21  C   UNL     1       7.246   1.879  -0.307  0.00  0.00    +0.005 C 
ATOM     22  C   UNL     1       6.991   0.450  -0.791  0.00  0.00    +0.022 C 
ATOM     23  C   UNL     1       6.194  -0.313   0.269  0.00  0.00    +0.073 C 
ATOM     24  C   UNL     1       6.989  -0.351   1.575  0.00  0.00    +0.022 C 
ATOM     25  C   UNL     1       7.243   1.077   2.060  0.00  0.00    +0.005 C 
ENDBRANCH  15  23
ENDBRANCH   1  16
BRANCH  13  26
ATOM     26  C   UNL     1       2.024  -1.249  -0.720  0.00  0.00    +0.144 C 
BRANCH  26  27
ATOM     27  C   UNL     1       2.747  -0.839  -1.978  0.00  0.00    -0.030 A 
ATOM     28  C   UNL     1       2.028  -0.437  -3.088  0.00  0.00    +0.009 A 
ATOM     29  C   UNL     1       2.689  -0.056  -4.239  0.00  0.00    +0.046 A 
ATOM     30  C   UNL     1       4.075  -0.087  -4.285  0.00  0.00    +0.121 A 
ATOM     31  C   UNL     1       4.794  -0.497  -3.172  0.00  0.00    +0.046 A 
ATOM     32  C   UNL     1       4.129  -0.873  -2.021  0.00  0.00    +0.009 A 
BRANCH  30  33
ATOM     33  O   UNL     1       4.727   0.282  -5.419  0.00  0.00    -0.489 OA
BRANCH  33  34
ATOM     34  C   UNL     1       3.925   0.736  -6.510  0.00  0.00    +0.167 C 
ATOM     35  C   UNL     1       3.591   2.217  -6.316  0.00  0.00    +0.051 C 
ATOM     36  C   UNL     1       4.695   0.554  -7.820  0.00  0.00    +0.051 C 
ENDBRANCH  33  34
ENDBRANCH  30  33
ENDBRANCH  26  27
ENDBRANCH  13  26
TORSDOF 6
