REMARK  Name = ZINC01199675
REMARK  11 active torsions:
REMARK  status: ('A' for Active; 'I' for Inactive)
REMARK    1  A    between atoms: C_1  and  C_2
REMARK    2  A    between atoms: C_2  and  C_23
REMARK    3  A    between atoms: C_4  and  C_13
REMARK    4  A    between atoms: C_16  and  O_21
REMARK    5  A    between atoms: C_18  and  O_19
REMARK    6  A    between atoms: O_19  and  C_20
REMARK    7  A    between atoms: O_21  and  C_22
REMARK    8  A    between atoms: C_26  and  O_31
REMARK    9  A    between atoms: C_28  and  O_29
REMARK   10  A    between atoms: O_29  and  C_30
REMARK   11  A    between atoms: O_31  and  C_32
REMARK                            x       y       z     vdW  Elec       q    Type
REMARK                         _______ _______ _______ _____ _____    ______ ____
ROOT
ATOM      1  C   UNL     1       1.235   5.568  -1.163  0.00  0.00    +0.037 C 
ATOM      2  C   UNL     1       1.941   4.240  -0.882  0.00  0.00    +0.063 C 
ATOM      3  C   UNL     1       3.273   4.519  -0.208  0.00  0.00    +0.086 C 
ATOM      4  C   UNL     1       4.096   3.285  -0.088  0.00  0.00    +0.055 C 
ATOM      5  N   UNL     1       3.712   2.109   0.139  0.00  0.00    -0.250 NA
ATOM      6  C   UNL     1       2.538   1.471   0.286  0.00  0.00    +0.085 A 
ATOM      7  C   UNL     1       2.607   0.087   0.547  0.00  0.00    +0.029 A 
ATOM      8  C   UNL     1       1.466  -0.661   0.705  0.00  0.00    +0.002 A 
ATOM      9  C   UNL     1       0.222  -0.060   0.606  0.00  0.00    +0.002 A 
ATOM     10  C   UNL     1       0.132   1.292   0.353  0.00  0.00    +0.025 A 
ATOM     11  C   UNL     1       1.280   2.069   0.193  0.00  0.00    +0.053 A 
ATOM     12  N   UNL     1       1.094   3.421  -0.048  0.00  0.00    -0.332 N 
ATOM     13  H   UNL     1       0.336   3.850   0.378  0.00  0.00    +0.147 HD
ENDROOT
BRANCH   4  14
ATOM     14  C   UNL     1       5.544   3.463  -0.255  0.00  0.00    +0.038 A 
ATOM     15  C   UNL     1       6.083   4.747  -0.393  0.00  0.00    +0.017 A 
ATOM     16  C   UNL     1       7.441   4.910  -0.549  0.00  0.00    +0.046 A 
ATOM     17  C   UNL     1       8.281   3.801  -0.571  0.00  0.00    +0.124 A 
ATOM     18  C   UNL     1       7.758   2.523  -0.434  0.00  0.00    +0.091 A 
ATOM     19  C   UNL     1       6.395   2.346  -0.271  0.00  0.00    +0.132 A 
BRANCH  19  20
ATOM     20  O   UNL     1       5.883   1.097  -0.132  0.00  0.00    -0.494 OA
ATOM     21  C   UNL     1       6.809   0.009  -0.158  0.00  0.00    +0.277 C 
ENDBRANCH  19  20
BRANCH  17  22
ATOM     22  O   UNL     1       9.619   3.970  -0.725  0.00  0.00    -0.495 OA
ATOM     23  C   UNL     1      10.092   5.312  -0.859  0.00  0.00    +0.277 C 
ENDBRANCH  17  22
ENDBRANCH   4  14
BRANCH   2  24
ATOM     24  C   UNL     1       2.188   3.528  -2.187  0.00  0.00    +0.018 A 
ATOM     25  C   UNL     1       1.534   2.341  -2.459  0.00  0.00    +0.013 A 
ATOM     26  C   UNL     1       1.754   1.688  -3.657  0.00  0.00    +0.046 A 
ATOM     27  C   UNL     1       2.640   2.217  -4.585  0.00  0.00    +0.124 A 
ATOM     28  C   UNL     1       3.301   3.404  -4.312  0.00  0.00    +0.091 A 
ATOM     29  C   UNL     1       3.074   4.061  -3.111  0.00  0.00    +0.129 A 
BRANCH  29  30
ATOM     30  O   UNL     1       3.720   5.226  -2.841  0.00  0.00    -0.495 OA
ATOM     31  C   UNL     1       4.619   5.716  -3.838  0.00  0.00    +0.277 C 
ENDBRANCH  29  30
BRANCH  27  32
ATOM     32  O   UNL     1       2.860   1.571  -5.760  0.00  0.00    -0.495 OA
ATOM     33  C   UNL     1       2.145   0.353  -5.975  0.00  0.00    +0.277 C 
ENDBRANCH  27  32
ENDBRANCH   2  24
TORSDOF 6
