REMARK  Name = ZINC05065024
REMARK  2 active torsions:
REMARK  status: ('A' for Active; 'I' for Inactive)
REMARK    1  A    between atoms: C_1  and  C_2
REMARK    2  A    between atoms: C_2  and  C_9
REMARK                            x       y       z     vdW  Elec       q    Type
REMARK                         _______ _______ _______ _____ _____    ______ ____
ROOT
ATOM      1  C   UNL     1      -1.658   2.553   1.455  0.00  0.00    +0.047 C 
ATOM      2  C   UNL     1      -1.200   2.284   0.021  0.00  0.00    +0.141 C 
ATOM      3  C   UNL     1      -0.862   3.583  -0.684  0.00  0.00    +0.249 C 
ATOM      4  O   UNL     1      -0.006   4.383  -0.373  0.00  0.00    -0.273 OA
ATOM      5  N   UNL     1      -1.710   3.663  -1.728  0.00  0.00    -0.238 N 
ATOM      6  C   UNL     1      -2.529   2.606  -1.781  0.00  0.00    +0.307 C 
ATOM      7  O   UNL     1      -3.381   2.454  -2.633  0.00  0.00    -0.252 OA
ATOM      8  N   UNL     1      -2.303   1.731  -0.784  0.00  0.00    -0.281 N 
ATOM      9  H   UNL     1      -1.726   4.396  -2.362  0.00  0.00    +0.159 HD
ATOM     10  H   UNL     1      -2.775   0.898  -0.626  0.00  0.00    +0.152 HD
ENDROOT
BRANCH   2  11
ATOM     11  C   UNL     1      -0.016   1.351   0.009  0.00  0.00    +0.023 A 
ATOM     12  C   UNL     1       0.002  -0.004   0.002  0.00  0.00    +0.015 A 
ATOM     13  C   UNL     1       1.220  -0.658  -0.013  0.00  0.00    +0.028 A 
ATOM     14  C   UNL     1       2.361   0.076  -0.020  0.00  0.00    +0.078 A 
ATOM     15  S   UNL     1       1.725   1.745  -0.005  0.00  0.00    -0.079 S 
ATOM     16 CL   UNL     1       4.010  -0.465  -0.038  0.00  0.00    -0.076 Cl
ENDBRANCH   2  11
TORSDOF 1
