REMARK  Name = ZINC12035368
REMARK  7 active torsions:
REMARK  status: ('A' for Active; 'I' for Inactive)
REMARK    1  A    between atoms: C_9  and  C_12
REMARK    2  A    between atoms: C_19  and  C_20
REMARK    3  A    between atoms: C_19  and  N_59
REMARK    4  A    between atoms: C_20  and  N_21
REMARK    5  A    between atoms: C_22  and  C_24
REMARK    6  A    between atoms: C_24  and  C_25
REMARK    7  A    between atoms: C_25  and  C_26
REMARK                            x       y       z     vdW  Elec       q    Type
REMARK                         _______ _______ _______ _____ _____    ______ ____
ROOT
ATOM      1  C   UNL     1      -0.390  -7.344  -5.040  0.00  0.00    +0.000 A 
ATOM      2  C   UNL     1       0.178  -8.427  -4.395  0.00  0.00    +0.004 A 
ATOM      3  C   UNL     1       0.699  -8.284  -3.123  0.00  0.00    +0.046 A 
ATOM      4  C   UNL     1       0.648  -7.048  -2.495  0.00  0.00    +0.123 A 
ATOM      5  C   UNL     1       0.063  -5.973  -3.137  0.00  0.00    -0.022 A 
ATOM      6  C   UNL     1      -0.450  -6.114  -4.410  0.00  0.00    +0.005 A 
ATOM      7  C   UNL     1      -0.015  -4.635  -2.427  0.00  0.00    -0.039 C 
ATOM      8  C   UNL     1       2.040  -4.612  -1.121  0.00  0.00    -0.028 C 
ATOM      9  C   UNL     1       2.388  -6.081  -1.226  0.00  0.00    +0.190 C 
ATOM     10  O   UNL     1       1.202  -6.883  -1.262  0.00  0.00    -0.486 OA
ATOM     11  N   UNL     1       1.362  -4.093  -2.327  0.00  0.00    +0.386 N 
ATOM     12  H   UNL     1       1.892  -4.387  -3.156  0.00  0.00    -0.081 HD
ENDROOT
BRANCH   9  13
ATOM     13  C   UNL     1       3.220  -6.480  -0.034  0.00  0.00    +0.026 A 
ATOM     14  C   UNL     1       2.616  -7.057   1.068  0.00  0.00    +0.010 A 
ATOM     15  C   UNL     1       3.380  -7.428   2.159  0.00  0.00    +0.001 A 
ATOM     16  C   UNL     1       4.745  -7.212   2.155  0.00  0.00    +0.003 A 
ATOM     17  C   UNL     1       5.349  -6.630   1.057  0.00  0.00    +0.039 A 
ATOM     18  C   UNL     1       4.587  -6.263  -0.039  0.00  0.00    +0.130 A 
ATOM     19  F   UNL     1       5.177  -5.693  -1.113  0.00  0.00    -0.205 F 
ENDBRANCH   9  13
BRANCH  11  20
ATOM     20  C   UNL     1       1.321  -2.623  -2.285  0.00  0.00    -0.059 C 
BRANCH  20  21
ATOM     21  C   UNL     1       0.605  -2.129  -1.026  0.00  0.00    +0.085 C 
BRANCH  21  22
ATOM     22  N   UNL     1       0.585  -0.664  -1.018  0.00  0.00    -0.317 N 
ATOM     23  C   UNL     1       0.002  -0.004   0.002  0.00  0.00    +0.213 C 
ATOM     24  O   UNL     1      -0.506  -0.622   0.913  0.00  0.00    -0.276 OA
ATOM     25  H   UNL     1       0.992  -0.170  -1.747  0.00  0.00    +0.149 HD
BRANCH  23  26
ATOM     26  C   UNL     1      -0.018   1.503   0.010  0.00  0.00    +0.101 C 
BRANCH  26  27
ATOM     27  C   UNL     1      -0.735   1.996   1.269  0.00  0.00    +0.061 C 
BRANCH  27  28
ATOM     28  C   UNL     1      -0.755   3.503   1.277  0.00  0.00    +0.038 C 
ATOM     29  N   UNL     1      -0.212   4.142   0.316  0.00  0.00    -0.189 NA
ATOM     30  N   UNL     1      -0.208   5.540   0.280  0.00  0.00    -0.207 N 
ATOM     31  C   UNL     1      -0.409   6.250   1.408  0.00  0.00    +0.233 C 
ATOM     32  O   UNL     1      -0.393   7.463   1.377  0.00  0.00    -0.274 OA
ATOM     33  C   UNL     1      -0.654   5.527   2.708  0.00  0.00    +0.103 C 
ATOM     34  C   UNL     1      -1.410   4.227   2.423  0.00  0.00    +0.062 C 
ATOM     35  H   UNL     1      -0.058   6.001  -0.560  0.00  0.00    +0.177 HD
ENDBRANCH  27  28
ENDBRANCH  26  27
ENDBRANCH  23  26
ENDBRANCH  21  22
ENDBRANCH  20  21
ENDBRANCH  11  20
TORSDOF 7
