REMARK  Name = ZINC13034007
REMARK  15 active torsions:
REMARK  status: ('A' for Active; 'I' for Inactive)
REMARK    1  A    between atoms: C_1  and  C_2
REMARK    2  A    between atoms: C_2  and  C_3
REMARK    3  A    between atoms: C_10  and  C_15
REMARK    4  A    between atoms: C_15  and  N_72
REMARK    5  A    between atoms: C_16  and  C_17
REMARK    6  A    between atoms: C_16  and  N_72
REMARK    7  A    between atoms: C_23  and  C_25
REMARK    8  A    between atoms: C_23  and  C_27
REMARK    9  A    between atoms: C_23  and  N_72
REMARK   10  A    between atoms: C_25  and  C_26
REMARK   11  A    between atoms: N_31  and  C_32
REMARK   12  A    between atoms: C_32  and  C_33
REMARK   13  A    between atoms: C_32  and  C_34
REMARK   14  A    between atoms: C_32  and  C_35
REMARK   15  A    between atoms: C_35  and  C_36
REMARK                            x       y       z     vdW  Elec       q    Type
REMARK                         _______ _______ _______ _____ _____    ______ ____
ROOT
ATOM      1  N   UNL     1       0.094   3.325   0.480  0.00  0.00    +0.391 N 
ATOM      2  H   UNL     1       0.308   4.250   0.090  0.00  0.00    -0.080 HD
ENDROOT
BRANCH   1   3
ATOM      3  C   UNL     1      -0.021   2.353  -0.628  0.00  0.00    -0.036 C 
BRANCH   3  11
ATOM      4  C   UNL     1      -1.009   5.479  -5.875  0.00  0.00    -0.047 A 
ATOM      5  C   UNL     1      -2.394   5.389  -5.852  0.00  0.00    +0.005 A 
ATOM      6  C   UNL     1      -3.039   4.734  -4.825  0.00  0.00    +0.026 A 
ATOM      7  C   UNL     1      -2.296   4.154  -3.802  0.00  0.00    +0.049 A 
ATOM      8  C   UNL     1      -0.892   4.246  -3.830  0.00  0.00    -0.001 A 
ATOM      9  C   UNL     1      -0.259   4.917  -4.881  0.00  0.00    +0.013 A 
ATOM     10  C   UNL     1      -0.119   3.633  -2.748  0.00  0.00    +0.017 A 
ATOM     11  C   UNL     1      -0.787   2.995  -1.756  0.00  0.00    +0.001 A 
ATOM     12  C   UNL     1      -2.196   2.926  -1.778  0.00  0.00    +0.251 A 
ATOM     13  O   UNL     1      -2.777   2.343  -0.878  0.00  0.00    -0.268 OA
ATOM     14  N   UNL     1      -2.915   3.491  -2.764  0.00  0.00    -0.322 N 
ATOM     15  H   UNL     1      -3.883   3.428  -2.746  0.00  0.00    +0.169 HD
BRANCH   4  17
ATOM     16  C   UNL     1      -0.029   5.214  -8.138  0.00  0.00    +0.009 C 
ATOM     17  C   UNL     1      -0.327   6.202  -7.008  0.00  0.00    +0.032 C 
ENDBRANCH   4  17
ENDBRANCH   3  11
ENDBRANCH   1   3
BRANCH   1  18
ATOM     18  C   UNL     1       1.185   2.924   1.393  0.00  0.00    -0.045 C 
BRANCH  18  19
ATOM     19  C   UNL     1       2.525   3.236   0.723  0.00  0.00    +0.102 C 
ATOM     20  C   UNL     1       3.689   2.994   1.710  0.00  0.00    +0.032 C 
ATOM     21  C   UNL     1       4.693   4.124   1.389  0.00  0.00    +0.030 C 
ATOM     22  C   UNL     1       4.017   4.914   0.247  0.00  0.00    +0.160 C 
ATOM     23  O   UNL     1       2.607   4.639   0.392  0.00  0.00    -0.378 OA
ENDBRANCH  18  19
ENDBRANCH   1  18
BRANCH   1  24
ATOM     24  C   UNL     1      -1.182   3.400   1.221  0.00  0.00    +0.003 C 
BRANCH  24  25
ATOM     25  C   UNL     1      -1.116   4.555   2.187  0.00  0.00    +0.139 A 
ATOM     26  N   UNL     1      -0.123   4.848   2.990  0.00  0.00    -0.115 NA
ATOM     27  N   UNL     1      -0.445   5.905   3.653  0.00  0.00    -0.023 NA
ATOM     28  N   UNL     1      -1.619   6.293   3.294  0.00  0.00    -0.043 NA
ATOM     29  N   UNL     1      -2.064   5.490   2.388  0.00  0.00    -0.225 N 
BRANCH  29  30
ATOM     30  C   UNL     1      -3.359   5.576   1.708  0.00  0.00    +0.061 C 
ATOM     31  C   UNL     1      -3.634   7.030   1.318  0.00  0.00    +0.036 C 
ATOM     32  C   UNL     1      -3.333   4.707   0.449  0.00  0.00    +0.036 C 
BRANCH  30  33
ATOM     33  C   UNL     1      -4.462   5.082   2.646  0.00  0.00    +0.026 C 
ATOM     34  C   UNL     1      -5.814   5.172   1.936  0.00  0.00    +0.006 C 
ENDBRANCH  30  33
ENDBRANCH  29  30
ENDBRANCH  24  25
BRANCH  24  35
ATOM     35  C   UNL     1      -1.431   2.103   1.994  0.00  0.00    -0.011 C 
ATOM     36  C   UNL     1      -2.781   2.186   2.709  0.00  0.00    +0.002 C 
ENDBRANCH  24  35
ENDBRANCH   1  24
TORSDOF 10
