REMARK  Name = ZINC59017595
REMARK  8 active torsions:
REMARK  status: ('A' for Active; 'I' for Inactive)
REMARK    1  A    between atoms: C_1  and  C_2
REMARK    2  A    between atoms: C_2  and  C_3
REMARK    3  A    between atoms: C_2  and  N_4
REMARK    4  A    between atoms: N_7  and  C_8
REMARK    5  A    between atoms: C_13  and  N_14
REMARK    6  A    between atoms: C_15  and  C_17
REMARK    7  A    between atoms: C_17  and  O_18
REMARK    8  A    between atoms: O_18  and  C_19
REMARK                            x       y       z     vdW  Elec       q    Type
REMARK                         _______ _______ _______ _____ _____    ______ ____
ROOT
ATOM      1  N   UNL     1       2.003  -1.878   5.891  0.00  0.00    -0.281 N 
ATOM      2  C   UNL     1       2.609  -2.337   7.005  0.00  0.00    +0.255 C 
ATOM      3  O   UNL     1       2.004  -2.366   8.056  0.00  0.00    -0.272 OA
ATOM      4  H   UNL     1       2.509  -1.778   5.070  0.00  0.00    +0.155 HD
ENDROOT
BRANCH   1  10
ATOM      5  C   UNL     1       0.129  -0.621   5.012  0.00  0.00    +0.056 A 
ATOM      6  C   UNL     1      -1.220  -0.300   5.042  0.00  0.00    +0.025 A 
ATOM      7  C   UNL     1      -2.050  -0.893   5.975  0.00  0.00    +0.002 A 
ATOM      8  C   UNL     1      -1.540  -1.805   6.880  0.00  0.00    +0.002 A 
ATOM      9  C   UNL     1      -0.197  -2.131   6.857  0.00  0.00    +0.025 A 
ATOM     10  C   UNL     1       0.643  -1.545   5.921  0.00  0.00    +0.055 A 
BRANCH   5  14
ATOM     11  N   UNL     1       1.252   1.125   2.053  0.00  0.00    -0.297 N 
ATOM     12  C   UNL     1       0.463   0.449   2.911  0.00  0.00    +0.304 C 
ATOM     13  O   UNL     1      -0.708   0.263   2.643  0.00  0.00    -0.253 OA
ATOM     14  N   UNL     1       0.973  -0.021   4.067  0.00  0.00    -0.268 N 
ATOM     15  H   UNL     1       2.187   1.273   2.267  0.00  0.00    +0.151 HD
ATOM     16  H   UNL     1       1.923   0.056   4.245  0.00  0.00    +0.156 HD
BRANCH  11  18
ATOM     17  C   UNL     1       0.048   2.998   1.042  0.00  0.00    +0.027 C 
ATOM     18  C   UNL     1       0.699   1.635   0.796  0.00  0.00    +0.068 C 
ATOM     19  C   UNL     1       1.821   1.784  -0.233  0.00  0.00    +0.027 C 
ENDBRANCH  11  18
ENDBRANCH   5  14
ENDBRANCH   1  10
BRANCH   2  20
ATOM     20  C   UNL     1       4.037  -2.813   6.944  0.00  0.00    +0.324 C 
BRANCH  20  21
ATOM     21  O   UNL     1       4.450  -3.247   8.241  0.00  0.00    -0.483 OA
BRANCH  21  22
ATOM     22  C   UNL     1       5.723  -3.710   8.360  0.00  0.00    +0.122 A 
ATOM     23  C   UNL     1       6.559  -3.740   7.247  0.00  0.00    +0.049 A 
ATOM     24  C   UNL     1       7.851  -4.206   7.352  0.00  0.00    +0.050 A 
ATOM     25  C   UNL     1       8.332  -4.654   8.575  0.00  0.00    +0.136 A 
ATOM     26  C   UNL     1       7.490  -4.626   9.702  0.00  0.00    +0.027 A 
ATOM     27  C   UNL     1       6.186  -4.146   9.587  0.00  0.00    +0.057 A 
ATOM     28  C   UNL     1       8.297  -5.157  10.798  0.00  0.00    +0.001 A 
ATOM     29  C   UNL     1       9.503  -5.452  10.284  0.00  0.00    +0.109 A 
ATOM     30  O   UNL     1       9.521  -5.154   8.974  0.00  0.00    -0.459 OA
ATOM     31  C   UNL     1      10.639  -6.029  11.097  0.00  0.00    +0.075 C 
ATOM     32  C   UNL     1      10.335  -5.810  12.583  0.00  0.00    +0.008 C 
ATOM     33  C   UNL     1       8.918  -6.300  12.893  0.00  0.00    +0.005 C 
ATOM     34  C   UNL     1       7.901  -5.357  12.237  0.00  0.00    +0.039 C 
ENDBRANCH  21  22
ENDBRANCH  20  21
ENDBRANCH   2  20
TORSDOF 6
