REMARK  Name = ZINC58424320
REMARK  3 active torsions:
REMARK  status: ('A' for Active; 'I' for Inactive)
REMARK    1  A    between atoms: C_8  and  C_25
REMARK    2  A    between atoms: C_11  and  C_13
REMARK    3  A    between atoms: C_14  and  C_15
REMARK                            x       y       z     vdW  Elec       q    Type
REMARK                         _______ _______ _______ _____ _____    ______ ____
ROOT
ATOM      1  C   UNL     1      -0.017   1.378   0.021  0.00  0.00    +0.000 A 
ATOM      2  C   UNL     1       1.174   2.082   0.016  0.00  0.00    +0.002 A 
ATOM      3  C   UNL     1       2.377   1.411  -0.003  0.00  0.00    +0.024 A 
ATOM      4  C   UNL     1       2.404   0.014  -0.017  0.00  0.00    +0.041 A 
ATOM      5  C   UNL     1       1.206  -0.682  -0.011  0.00  0.00    -0.024 A 
ATOM      6  C   UNL     1       0.002  -0.004   0.008  0.00  0.00    +0.005 A 
ATOM      7  C   UNL     1       1.510  -2.163  -0.028  0.00  0.00    +0.069 C 
ATOM      8  C   UNL     1       3.046  -2.242  -0.044  0.00  0.00    +0.171 C 
ATOM      9  N   UNL     1       3.502  -0.850  -0.036  0.00  0.00    -0.255 N 
ATOM     10  C   UNL     1       4.792  -0.460  -0.047  0.00  0.00    +0.244 C 
ATOM     11  O   UNL     1       5.070   0.722  -0.135  0.00  0.00    -0.270 OA
ENDROOT
BRANCH   8  12
ATOM     12  C   UNL     1       3.519  -2.943  -1.292  0.00  0.00    +0.232 C 
ATOM     13  O   UNL     1       3.925  -2.296  -2.234  0.00  0.00    -0.274 OA
ATOM     14  N   UNL     1       3.493  -4.288  -1.360  0.00  0.00    -0.328 N 
ATOM     15  H   UNL     1       3.169  -4.806  -0.607  0.00  0.00    +0.145 HD
ATOM     16  H   UNL     1       3.798  -4.739  -2.163  0.00  0.00    +0.145 HD
ENDBRANCH   8  12
BRANCH  10  17
ATOM     17  C   UNL     1       5.858  -1.456   0.049  0.00  0.00    +0.068 C 
ATOM     18  C   UNL     1       7.146  -1.061   0.140  0.00  0.00    +0.013 C 
BRANCH  18  19
ATOM     19  C   UNL     1       8.217  -2.063   0.235  0.00  0.00    -0.020 A 
ATOM     20  C   UNL     1       9.552  -1.655   0.336  0.00  0.00    +0.057 A 
ATOM     21  C   UNL     1      10.556  -2.599   0.426  0.00  0.00    +0.168 A 
ATOM     22  C   UNL     1      10.238  -3.958   0.417  0.00  0.00    +0.184 A 
ATOM     23  C   UNL     1       8.912  -4.364   0.317  0.00  0.00    +0.087 A 
ATOM     24  C   UNL     1       7.905  -3.426   0.232  0.00  0.00    +0.031 A 
ATOM     25 CL   UNL     1       8.524  -6.055   0.306  0.00  0.00    -0.080 Cl
ATOM     26  O   UNL     1      11.394  -4.676   0.517  0.00  0.00    -0.451 OA
ATOM     27  C   UNL     1      12.448  -3.757   0.174  0.00  0.00    +0.466 C 
ATOM     28  O   UNL     1      11.911  -2.470   0.531  0.00  0.00    -0.453 OA
ENDBRANCH  18  19
ENDBRANCH  10  17
TORSDOF 3
