REMARK  Name = ZINC01217093
REMARK  13 active torsions:
REMARK  status: ('A' for Active; 'I' for Inactive)
REMARK    1  A    between atoms: C_1  and  C_2
REMARK    2  A    between atoms: C_2  and  O_3
REMARK    3  A    between atoms: O_3  and  C_4
REMARK    4  A    between atoms: C_4  and  C_6
REMARK    5  A    between atoms: C_7  and  C_36
REMARK    6  A    between atoms: C_14  and  C_15
REMARK    7  A    between atoms: C_18  and  O_22
REMARK    8  A    between atoms: C_19  and  O_21
REMARK    9  A    between atoms: O_22  and  C_23
REMARK   10  A    between atoms: C_25  and  C_27
REMARK   11  A    between atoms: C_30  and  N_33
REMARK   12  A    between atoms: N_33  and  C_34
REMARK   13  A    between atoms: N_33  and  C_35
REMARK                            x       y       z     vdW  Elec       q    Type
REMARK                         _______ _______ _______ _____ _____    ______ ____
ROOT
ATOM      1  C   UNL     1      -7.179   0.770   0.513  0.00  0.00    +0.085 C 
ATOM      2  C   UNL     1      -6.935   2.104   0.345  0.00  0.00    +0.053 C 
ATOM      3  N   UNL     1      -5.690   2.563   0.303  0.00  0.00    -0.228 NA
ATOM      4  C   UNL     1      -4.617   1.821   0.413  0.00  0.00    +0.178 A 
ATOM      5  N   UNL     1      -4.638   0.457   0.588  0.00  0.00    -0.275 N 
ATOM      6  C   UNL     1      -3.473  -0.197   0.683  0.00  0.00    +0.268 A 
ATOM      7  O   UNL     1      -3.441  -1.404   0.832  0.00  0.00    -0.266 OA
ATOM      8  C   UNL     1      -2.233   0.589   0.604  0.00  0.00    +0.081 A 
ATOM      9  C   UNL     1      -0.942   0.173   0.675  0.00  0.00    +0.028 C 
ATOM     10  S   UNL     1      -2.884   2.237   0.383  0.00  0.00    -0.046 S 
ATOM     11  C   UNL     1      -5.994  -0.158   0.649  0.00  0.00    +0.162 C 
ATOM     12  C   UNL     1      -8.089   3.063   0.206  0.00  0.00    +0.066 C 
ENDROOT
BRANCH   9  13
ATOM     13  C   UNL     1       0.144   1.158   0.738  0.00  0.00    -0.020 A 
ATOM     14  C   UNL     1       1.478   0.740   0.655  0.00  0.00    +0.012 A 
ATOM     15  C   UNL     1       2.495   1.667   0.714  0.00  0.00    +0.050 A 
ATOM     16  C   UNL     1       2.202   3.017   0.856  0.00  0.00    +0.161 A 
ATOM     17  C   UNL     1       0.876   3.442   0.939  0.00  0.00    +0.159 A 
ATOM     18  C   UNL     1      -0.150   2.520   0.881  0.00  0.00    +0.057 A 
BRANCH  17  19
ATOM     19  O   UNL     1       0.594   4.765   1.078  0.00  0.00    -0.503 OA
ATOM     20  H   UNL     1       0.540   5.061   1.997  0.00  0.00    +0.292 HD
ENDBRANCH  17  19
BRANCH  16  21
ATOM     21  O   UNL     1       3.209   3.926   0.914  0.00  0.00    -0.491 OA
ATOM     22  C   UNL     1       4.543   3.423   0.824  0.00  0.00    +0.277 C 
ENDBRANCH  16  21
ENDBRANCH   9  13
BRANCH  11  23
ATOM     23  C   UNL     1      -6.117  -0.877   1.968  0.00  0.00    -0.020 A 
ATOM     24  C   UNL     1      -5.593  -0.311   3.115  0.00  0.00    +0.008 A 
ATOM     25  C   UNL     1      -5.709  -0.965   4.325  0.00  0.00    +0.023 A 
ATOM     26  C   UNL     1      -6.345  -2.198   4.388  0.00  0.00    +0.029 A 
ATOM     27  C   UNL     1      -6.867  -2.767   3.233  0.00  0.00    +0.023 A 
ATOM     28  C   UNL     1      -6.751  -2.105   2.027  0.00  0.00    +0.008 A 
BRANCH  26  29
ATOM     29  N   UNL     1      -6.460  -2.865   5.610  0.00  0.00    -0.336 N 
ATOM     30  C   UNL     1      -7.130  -4.166   5.675  0.00  0.00    +0.129 C 
ATOM     31  C   UNL     1      -5.910  -2.264   6.827  0.00  0.00    +0.129 C 
ENDBRANCH  26  29
ENDBRANCH  11  23
BRANCH   1  32
ATOM     32  C   UNL     1      -8.492   0.276   0.559  0.00  0.00    +0.339 C 
ATOM     33  O   UNL     1      -9.434   1.048   0.559  0.00  0.00    -0.245 OA
BRANCH  32  34
ATOM     34  O   UNL     1      -8.711  -1.057   0.602  0.00  0.00    -0.462 OA
BRANCH  34  36
ATOM     35  C   UNL     1     -10.121  -3.018   0.691  0.00  0.00    +0.048 C 
ATOM     36  C   UNL     1     -10.073  -1.489   0.647  0.00  0.00    +0.229 C 
ENDBRANCH  34  36
ENDBRANCH  32  34
ENDBRANCH   1  32
TORSDOF 8
