REMARK  Name = ZINC38905311
REMARK  8 active torsions:
REMARK  status: ('A' for Active; 'I' for Inactive)
REMARK    1  A    between atoms: C_1  and  C_2
REMARK    2  A    between atoms: C_2  and  C_3
REMARK    3  A    between atoms: C_2  and  C_4
REMARK    4  A    between atoms: C_9  and  N_10
REMARK    5  A    between atoms: C_11  and  C_13
REMARK    6  A    between atoms: N_18  and  C_20
REMARK    7  A    between atoms: C_20  and  C_21
REMARK    8  A    between atoms: C_23  and  C_26
REMARK                            x       y       z     vdW  Elec       q    Type
REMARK                         _______ _______ _______ _____ _____    ______ ____
ROOT
ATOM      1  C   UNL     1      -0.490  -2.380  -4.357  0.00  0.00    +0.059 C 
ATOM      2  C   UNL     1       0.589  -3.334  -3.836  0.00  0.00    +0.009 C 
ATOM      3  C   UNL     1       1.508  -3.731  -4.995  0.00  0.00    -0.018 C 
ATOM      4  C   UNL     1       0.669  -4.358  -6.112  0.00  0.00    -0.078 C 
ATOM      5  N   UNL     1      -0.326  -3.387  -6.584  0.00  0.00    +0.386 N 
ATOM      6  C   UNL     1      -1.254  -3.055  -5.497  0.00  0.00    -0.065 C 
ATOM      7  H   UNL     1       0.143  -2.549  -6.892  0.00  0.00    -0.081 HD
ENDROOT
BRANCH   1   9
ATOM      8  N   UNL     1      -0.991  -1.440  -2.124  0.00  0.00    -0.285 N 
ATOM      9  C   UNL     1      -1.445  -2.043  -3.241  0.00  0.00    +0.219 C 
ATOM     10  O   UNL     1      -2.622  -2.315  -3.347  0.00  0.00    -0.275 OA
ATOM     11  H   UNL     1      -0.061  -1.171  -2.062  0.00  0.00    +0.155 HD
BRANCH   8  17
ATOM     12  C   UNL     1      -1.363  -1.099   0.238  0.00  0.00    -0.024 A 
ATOM     13  C   UNL     1      -2.223  -0.859   1.291  0.00  0.00    +0.006 A 
ATOM     14  C   UNL     1      -3.580  -0.726   1.060  0.00  0.00    +0.000 A 
ATOM     15  C   UNL     1      -4.080  -0.833  -0.225  0.00  0.00    +0.002 A 
ATOM     16  C   UNL     1      -3.225  -1.073  -1.282  0.00  0.00    +0.023 A 
ATOM     17  C   UNL     1      -1.861  -1.202  -1.054  0.00  0.00    +0.037 A 
BRANCH  12  19
ATOM     18  C   UNL     1       0.677   0.082   1.009  0.00  0.00    +0.012 C 
ATOM     19  C   UNL     1       0.116  -1.243   0.490  0.00  0.00    +0.015 C 
ATOM     20  C   UNL     1       0.351  -2.340   1.531  0.00  0.00    +0.012 C 
ENDBRANCH  12  19
ENDBRANCH   8  17
ENDBRANCH   1   9
BRANCH   5  21
ATOM     21  C   UNL     1      -1.076  -3.965  -7.708  0.00  0.00    +0.022 C 
BRANCH  21  22
ATOM     22  C   UNL     1      -0.146  -4.184  -8.873  0.00  0.00    +0.211 A 
ATOM     23  N   UNL     1       0.536  -5.268  -9.110  0.00  0.00    -0.193 NA
ATOM     24  C   UNL     1       1.261  -5.120 -10.233  0.00  0.00    +0.202 A 
ATOM     25  N   UNL     1       1.039  -3.924 -10.720  0.00  0.00    -0.056 NA
ATOM     26  O   UNL     1       0.114  -3.298  -9.844  0.00  0.00    -0.340 OA
BRANCH  24  27
ATOM     27  C   UNL     1       2.164  -6.140 -10.822  0.00  0.00    +0.023 A 
ATOM     28  C   UNL     1       2.311  -7.382 -10.206  0.00  0.00    +0.013 A 
ATOM     29  C   UNL     1       3.151  -8.327 -10.757  0.00  0.00    +0.016 A 
ATOM     30  C   UNL     1       3.848  -8.044 -11.919  0.00  0.00    +0.018 A 
ATOM     31  C   UNL     1       3.705  -6.812 -12.534  0.00  0.00    +0.016 A 
ATOM     32  C   UNL     1       2.862  -5.862 -11.995  0.00  0.00    +0.013 A 
ATOM     33 BR   UNL     1       4.998  -9.344 -12.669  0.00  0.00    -0.050 Br
ENDBRANCH  24  27
ENDBRANCH  21  22
ENDBRANCH   5  21
TORSDOF 6
