REMARK  Name = ZINC14880372
REMARK  7 active torsions:
REMARK  status: ('A' for Active; 'I' for Inactive)
REMARK    1  A    between atoms: C_4  and  C_26
REMARK    2  A    between atoms: C_5  and  O_14
REMARK    3  A    between atoms: O_14  and  C_15
REMARK    4  A    between atoms: C_15  and  C_16
REMARK    5  A    between atoms: C_26  and  N_60
REMARK    6  A    between atoms: C_27  and  C_28
REMARK    7  A    between atoms: C_27  and  N_60
REMARK                            x       y       z     vdW  Elec       q    Type
REMARK                         _______ _______ _______ _____ _____    ______ ____
ROOT
ATOM      1  C   UNL     1       2.399  -0.030  -0.020  0.00  0.00    +0.014 A 
ATOM      2  C   UNL     1       2.413   1.372  -0.014  0.00  0.00    +0.001 A 
ATOM      3  C   UNL     1       3.624   2.094  -0.024  0.00  0.00    +0.017 A 
ATOM      4  C   UNL     1       3.563   3.456  -0.017  0.00  0.00    -0.002 A 
ATOM      5  C   UNL     1       2.319   4.099   0.001  0.00  0.00    +0.217 A 
ATOM      6  N   UNL     1       1.192   3.420   0.010  0.00  0.00    -0.213 NA
ATOM      7  C   UNL     1       1.188   2.082   0.002  0.00  0.00    +0.075 A 
ATOM      8  C   UNL     1      -0.016   1.361   0.009  0.00  0.00    +0.032 A 
ATOM      9  C   UNL     1       0.002  -0.004   0.002  0.00  0.00    -0.042 A 
ATOM     10  C   UNL     1       1.210  -0.700  -0.013  0.00  0.00    -0.043 A 
ATOM     11  C   UNL     1       0.937  -2.190  -0.018  0.00  0.00    +0.036 C 
ATOM     12  C   UNL     1      -0.538  -2.330  -0.450  0.00  0.00    +0.009 C 
ATOM     13  C   UNL     1      -1.149  -0.989   0.006  0.00  0.00    +0.036 C 
ENDROOT
BRANCH   5  14
ATOM     14  O   UNL     1       2.275   5.454   0.009  0.00  0.00    -0.471 OA
BRANCH  14  15
ATOM     15  C   UNL     1       0.981   6.060   0.027  0.00  0.00    +0.267 C 
BRANCH  15  16
ATOM     16  C   UNL     1       1.129   7.560   0.034  0.00  0.00    +0.012 A 
ATOM     17  C   UNL     1       2.390   8.129   0.023  0.00  0.00    +0.058 A 
ATOM     18  C   UNL     1       2.529   9.507   0.030  0.00  0.00    +0.167 A 
ATOM     19  C   UNL     1       1.397  10.318   0.047  0.00  0.00    +0.168 A 
ATOM     20  C   UNL     1       0.137   9.742   0.057  0.00  0.00    +0.070 A 
ATOM     21  C   UNL     1       0.005   8.365   0.046  0.00  0.00    +0.051 A 
ATOM     22 CL   UNL     1      -1.575   7.646   0.052  0.00  0.00    -0.083 Cl
ATOM     23  O   UNL     1       1.795  11.623   0.051  0.00  0.00    -0.453 OA
ATOM     24  C   UNL     1       3.179  11.602   0.448  0.00  0.00    +0.466 C 
ATOM     25  O   UNL     1       3.637  10.305   0.022  0.00  0.00    -0.453 OA
ENDBRANCH  15  16
ENDBRANCH  14  15
ENDBRANCH   5  14
BRANCH   4  26
ATOM     26  C   UNL     1       4.832   4.268  -0.028  0.00  0.00    -0.041 C 
BRANCH  26  27
ATOM     27  N   UNL     1       5.125   4.725   1.344  0.00  0.00    +0.384 N 
ATOM     28  H   UNL     1       5.239   3.909   1.956  0.00  0.00    -0.085 HD
ATOM     29  H   UNL     1       4.346   5.301   1.683  0.00  0.00    -0.085 HD
BRANCH  27  30
ATOM     30  C   UNL     1       6.365   5.525   1.363  0.00  0.00    -0.048 C 
BRANCH  30  31
ATOM     31  C   UNL     1       6.643   5.984   2.796  0.00  0.00    +0.127 C 
ATOM     32  C   UNL     1       7.857   6.917   2.808  0.00  0.00    +0.189 C 
ATOM     33  O   UNL     1       8.178   7.253   4.161  0.00  0.00    -0.375 OA
ATOM     34  C   UNL     1       8.453   6.115   4.983  0.00  0.00    +0.188 C 
ATOM     35  C   UNL     1       7.238   5.182   4.972  0.00  0.00    +0.188 C 
ATOM     36  O   UNL     1       6.917   4.846   3.618  0.00  0.00    -0.374 OA
ENDBRANCH  30  31
ENDBRANCH  27  30
ENDBRANCH  26  27
ENDBRANCH   4  26
TORSDOF 7
