REMARK  Name = ZINC40376060
REMARK  7 active torsions:
REMARK  status: ('A' for Active; 'I' for Inactive)
REMARK    1  A    between atoms: C_1  and  C_2
REMARK    2  A    between atoms: C_3  and  S_9
REMARK    3  A    between atoms: C_4  and  C_8
REMARK    4  A    between atoms: S_9  and  N_12
REMARK    5  A    between atoms: N_12  and  C_13
REMARK    6  A    between atoms: C_18  and  C_19
REMARK    7  A    between atoms: N_20  and  O_21
REMARK                            x       y       z     vdW  Elec       q    Type
REMARK                         _______ _______ _______ _____ _____    ______ ____
ROOT
ATOM      1  N   UNL     1       1.569  -0.072  -3.243  0.00  0.00    -0.215 N 
ATOM      2  H   UNL     1       1.908   0.805  -3.479  0.00  0.00    +0.174 HD
ENDROOT
BRANCH   1   3
ATOM      3  C   UNL     1       2.428  -1.168  -3.220  0.00  0.00    +0.059 A 
ATOM      4  C   UNL     1       1.976  -2.417  -3.623  0.00  0.00    +0.025 A 
ATOM      5  C   UNL     1       2.829  -3.502  -3.600  0.00  0.00    +0.002 A 
ATOM      6  C   UNL     1       4.139  -3.353  -3.176  0.00  0.00    +0.001 A 
ATOM      7  C   UNL     1       4.605  -2.119  -2.773  0.00  0.00    +0.013 A 
ATOM      8  C   UNL     1       3.755  -1.013  -2.797  0.00  0.00    +0.040 A 
BRANCH   8   9
ATOM      9  C   UNL     1       4.250   0.313  -2.372  0.00  0.00    +0.164 C 
ATOM     10  N   UNL     1       3.453   1.342  -2.390  0.00  0.00    -0.071 NA
ATOM     11  N   UNL     1       5.562   0.462  -1.954  0.00  0.00    -0.340 N 
ATOM     12  H   UNL     1       6.156  -0.305  -1.940  0.00  0.00    +0.144 HD
ATOM     13  H   UNL     1       5.887   1.332  -1.675  0.00  0.00    +0.144 HD
BRANCH  10  14
ATOM     14  O   UNL     1       3.927   2.613  -1.983  0.00  0.00    -0.408 OA
ATOM     15  H   UNL     1       3.263   3.314  -2.031  0.00  0.00    +0.328 HD
ENDBRANCH  10  14
ENDBRANCH   8   9
ENDBRANCH   1   3
BRANCH   1  16
ATOM     16  S   UNL     1      -0.031  -0.267  -2.866  0.00  0.00    +0.076 S 
ATOM     17  O   UNL     1      -0.509  -1.342  -3.664  0.00  0.00    -0.150 OA
ATOM     18  O   UNL     1      -0.618   1.027  -2.901  0.00  0.00    -0.150 OA
BRANCH  16  21
ATOM     19  C   UNL     1      -0.234   1.491  -0.099  0.00  0.00    +0.067 C 
ATOM     20  C   UNL     1      -0.193  -0.015  -0.100  0.00  0.00    +0.060 A 
ATOM     21  C   UNL     1      -0.110  -0.810  -1.191  0.00  0.00    +0.151 A 
ATOM     22  C   UNL     1      -0.097  -2.139  -0.756  0.00  0.00    +0.087 A 
ATOM     23  N   UNL     1      -0.171  -2.142   0.551  0.00  0.00    -0.177 NA
ATOM     24  N   UNL     1      -0.227  -0.813   0.989  0.00  0.00    -0.280 N 
ATOM     25  H   UNL     1      -0.282  -0.517   1.911  0.00  0.00    +0.189 HD
ATOM     26  C   UNL     1      -0.015  -3.358  -1.638  0.00  0.00    +0.069 C 
ENDBRANCH  16  21
ENDBRANCH   1  16
TORSDOF 5
