REMARK  Name = ZINC33252509
REMARK  6 active torsions:
REMARK  status: ('A' for Active; 'I' for Inactive)
REMARK    1  A    between atoms: C_1  and  C_2
REMARK    2  A    between atoms: C_3  and  C_29
REMARK    3  A    between atoms: C_7  and  N_12
REMARK    4  A    between atoms: C_9  and  C_11
REMARK    5  A    between atoms: C_16  and  C_19
REMARK    6  A    between atoms: N_21  and  C_22
REMARK                            x       y       z     vdW  Elec       q    Type
REMARK                         _______ _______ _______ _____ _____    ______ ____
ROOT
ATOM      1  N   UNL     1      -3.729   1.626  -0.054  0.00  0.00    -0.314 N 
ATOM      2  C   UNL     1      -3.651   2.195   1.298  0.00  0.00    +0.106 C 
ATOM      3  C   UNL     1      -2.554   3.260   1.342  0.00  0.00    +0.020 C 
ATOM      4  C   UNL     1      -1.215   2.625   0.958  0.00  0.00    +0.016 C 
ATOM      5  C   UNL     1      -1.337   1.997  -0.433  0.00  0.00    +0.092 C 
ATOM      6  C   UNL     1      -2.470   0.968  -0.426  0.00  0.00    +0.119 C 
ENDROOT
BRANCH   1  13
ATOM      7  C   UNL     1      -5.870   3.794  -1.164  0.00  0.00    +0.048 C 
ATOM      8  C   UNL     1      -6.595   2.476  -1.075  0.00  0.00    +0.003 A 
ATOM      9  C   UNL     1      -7.876   2.237  -1.391  0.00  0.00    +0.108 A 
ATOM     10  O   UNL     1      -8.169   0.940  -1.182  0.00  0.00    -0.442 OA
ATOM     11  C   UNL     1      -7.098   0.273  -0.721  0.00  0.00    +0.233 A 
ATOM     12  C   UNL     1      -6.043   1.196  -0.625  0.00  0.00    +0.083 A 
ATOM     13  C   UNL     1      -4.796   0.753  -0.164  0.00  0.00    +0.136 A 
ATOM     14  N   UNL     1      -4.664  -0.531   0.160  0.00  0.00    -0.217 NA
ATOM     15  C   UNL     1      -5.683  -1.364   0.061  0.00  0.00    +0.132 A 
ATOM     16  N   UNL     1      -6.870  -0.989  -0.368  0.00  0.00    -0.197 NA
ATOM     17  C   UNL     1      -5.478  -2.806   0.449  0.00  0.00    +0.088 C 
ATOM     18  C   UNL     1      -8.845   3.269  -1.906  0.00  0.00    +0.086 C 
ENDBRANCH   1  13
BRANCH   5  19
ATOM     19  C   UNL     1      -0.042   1.317  -0.794  0.00  0.00    +0.218 C 
ATOM     20  O   UNL     1      -0.025   0.126  -1.024  0.00  0.00    -0.275 OA
ATOM     21  N   UNL     1       1.098   2.033  -0.866  0.00  0.00    -0.312 N 
ATOM     22  H   UNL     1       1.083   3.113  -0.657  0.00  0.00    +0.149 HD
BRANCH  21  23
ATOM     23  C   UNL     1       2.356   1.373  -1.223  0.00  0.00    +0.073 C 
ATOM     24  C   UNL     1       2.945   0.706   0.037  0.00  0.00    +0.022 C 
ATOM     25  C   UNL     1       3.912  -0.363  -0.395  0.00  0.00    +0.002 C 
ATOM     26  C   UNL     1       5.365   0.146  -0.456  0.00  0.00    +0.000 C 
ATOM     27  C   UNL     1       5.479   1.554  -1.069  0.00  0.00    +0.000 C 
ATOM     28  C   UNL     1       4.589   1.734  -2.269  0.00  0.00    +0.002 C 
ATOM     29  C   UNL     1       3.258   2.358  -1.802  0.00  0.00    +0.022 C 
ENDBRANCH  21  23
ENDBRANCH   5  19
TORSDOF 3
