REMARK  Name = ZINC19527115
REMARK  9 active torsions:
REMARK  status: ('A' for Active; 'I' for Inactive)
REMARK    1  A    between atoms: C_1  and  C_2
REMARK    2  A    between atoms: C_2  and  N_3
REMARK    3  A    between atoms: C_7  and  C_9
REMARK    4  A    between atoms: C_9  and  N_10
REMARK    5  A    between atoms: N_10  and  C_11
REMARK    6  A    between atoms: C_11  and  C_12
REMARK    7  A    between atoms: C_15  and  C_25
REMARK    8  A    between atoms: C_17  and  C_24
REMARK    9  A    between atoms: N_28  and  C_29
REMARK                            x       y       z     vdW  Elec       q    Type
REMARK                         _______ _______ _______ _____ _____    ______ ____
ROOT
ATOM      1  N   UNL     1      -1.518  -1.834   2.562  0.00  0.00    -0.283 N 
ATOM      2  C   UNL     1      -0.488  -2.464   3.160  0.00  0.00    +0.303 C 
ATOM      3  O   UNL     1       0.020  -1.986   4.157  0.00  0.00    -0.253 OA
ATOM      4  N   UNL     1      -0.020  -3.622   2.654  0.00  0.00    -0.296 N 
ATOM      5  H   UNL     1      -0.425  -4.003   1.859  0.00  0.00    +0.151 HD
ENDROOT
BRANCH   4   6
ATOM      6  C   UNL     1       1.100  -4.306   3.305  0.00  0.00    +0.074 C 
ATOM      7  C   UNL     1       2.419  -3.721   2.797  0.00  0.00    +0.022 C 
ATOM      8  C   UNL     1       3.589  -4.436   3.476  0.00  0.00    +0.002 C 
ATOM      9  C   UNL     1       3.534  -5.930   3.149  0.00  0.00    +0.000 C 
ATOM     10  C   UNL     1       2.214  -6.514   3.658  0.00  0.00    +0.002 C 
ATOM     11  C   UNL     1       1.045  -5.800   2.978  0.00  0.00    +0.022 C 
ENDBRANCH   4   6
BRANCH   1  12
ATOM     12  C   UNL     1      -2.130  -2.409   1.361  0.00  0.00    +0.094 C 
BRANCH  12  17
ATOM     13  N   UNL     1      -1.248  -0.533   0.037  0.00  0.00    +0.382 N 
ATOM     14  C   UNL     1      -1.889  -0.111  -1.226  0.00  0.00    -0.078 C 
ATOM     15  C   UNL     1      -1.790  -1.348  -2.153  0.00  0.00    -0.020 C 
ATOM     16  C   UNL     1      -2.014  -2.510  -1.150  0.00  0.00    -0.016 C 
ATOM     17  C   UNL     1      -1.317  -2.003   0.130  0.00  0.00    -0.051 C 
ATOM     18  H   UNL     1      -1.735  -0.120   0.818  0.00  0.00    -0.081 HD
BRANCH  13  20
ATOM     19  C   UNL     1       0.222   1.425   0.075  0.00  0.00    -0.017 C 
ATOM     20  C   UNL     1       0.157  -0.103   0.046  0.00  0.00    -0.082 C 
ENDBRANCH  13  20
ENDBRANCH  12  17
ENDBRANCH   1  12
BRANCH   1  21
ATOM     21  C   UNL     1      -2.027  -0.575   3.111  0.00  0.00    +0.149 C 
BRANCH  21  22
ATOM     22  C   UNL     1      -3.015  -0.870   4.211  0.00  0.00    +0.035 A 
ATOM     23  C   UNL     1      -2.603  -0.887   5.503  0.00  0.00    +0.020 A 
ATOM     24  C   UNL     1      -3.587  -1.176   6.547  0.00  0.00    +0.002 A 
ATOM     25  C   UNL     1      -3.222  -1.207   7.897  0.00  0.00    -0.041 A 
ATOM     26  C   UNL     1      -4.165  -1.479   8.847  0.00  0.00    +0.007 A 
ATOM     27  C   UNL     1      -5.483  -1.726   8.485  0.00  0.00    -0.048 A 
ATOM     28  C   UNL     1      -5.865  -1.701   7.161  0.00  0.00    +0.029 A 
ATOM     29  C   UNL     1      -4.922  -1.425   6.176  0.00  0.00    +0.050 A 
ATOM     30  N   UNL     1      -5.277  -1.392   4.844  0.00  0.00    -0.322 N 
ATOM     31  H   UNL     1      -6.197  -1.564   4.590  0.00  0.00    +0.169 HD
ATOM     32  C   UNL     1      -4.367  -1.121   3.892  0.00  0.00    +0.254 A 
ATOM     33  O   UNL     1      -4.717  -1.095   2.725  0.00  0.00    -0.268 OA
ATOM     34  C   UNL     1      -6.505  -2.025   9.550  0.00  0.00    +0.044 C 
ATOM     35  C   UNL     1      -1.795  -0.942   8.301  0.00  0.00    +0.044 C 
ENDBRANCH  21  22
ENDBRANCH   1  21
TORSDOF 6
