REMARK  Name = ZINC09951773
REMARK  6 active torsions:
REMARK  status: ('A' for Active; 'I' for Inactive)
REMARK    1  A    between atoms: C_4  and  C_7
REMARK    2  A    between atoms: C_9  and  N_18
REMARK    3  A    between atoms: N_10  and  C_12
REMARK    4  A    between atoms: C_19  and  C_21
REMARK    5  A    between atoms: C_21  and  N_59
REMARK    6  A    between atoms: C_27  and  C_29
REMARK                            x       y       z     vdW  Elec       q    Type
REMARK                         _______ _______ _______ _____ _____    ______ ____
ROOT
ATOM      1  N   UNL     1       1.645  -1.947  -0.136  0.00  0.00    -0.272 N 
ATOM      2  C   UNL     1       2.976  -2.156  -0.136  0.00  0.00    +0.202 C 
ATOM      3  O   UNL     1       3.738  -1.213  -0.159  0.00  0.00    -0.278 OA
ATOM      4  H   UNL     1       1.035  -2.702  -0.118  0.00  0.00    +0.156 HD
ENDROOT
BRANCH   1   7
ATOM      5  C   UNL     1       0.984   1.583  -0.208  0.00  0.00    +0.095 A 
ATOM      6  C   UNL     1       1.878   0.496  -0.189  0.00  0.00    +0.074 A 
ATOM      7  C   UNL     1       1.143  -0.646  -0.162  0.00  0.00    +0.129 A 
ATOM      8  N   UNL     1      -0.172  -0.292  -0.165  0.00  0.00    -0.218 N 
ATOM      9  N   UNL     1      -0.243   1.106  -0.194  0.00  0.00    -0.165 NA
BRANCH   5  13
ATOM     10  C   UNL     1       2.060   5.696  -0.299  0.00  0.00    +0.000 A 
ATOM     11  C   UNL     1       0.726   5.333  -0.287  0.00  0.00    +0.001 A 
ATOM     12  C   UNL     1       0.370   4.000  -0.258  0.00  0.00    +0.010 A 
ATOM     13  C   UNL     1       1.359   3.018  -0.240  0.00  0.00    +0.002 A 
ATOM     14  C   UNL     1       2.702   3.390  -0.247  0.00  0.00    +0.010 A 
ATOM     15  C   UNL     1       3.046   4.726  -0.282  0.00  0.00    +0.001 A 
ENDBRANCH   5  13
BRANCH   8  16
ATOM     16  C   UNL     1      -1.262  -1.172  -0.142  0.00  0.00    +0.067 A 
ATOM     17  C   UNL     1      -1.189  -2.387  -0.811  0.00  0.00    +0.028 A 
ATOM     18  C   UNL     1      -2.264  -3.255  -0.782  0.00  0.00    +0.002 A 
ATOM     19  C   UNL     1      -3.415  -2.910  -0.097  0.00  0.00    +0.000 A 
ATOM     20  C   UNL     1      -3.492  -1.698   0.564  0.00  0.00    +0.002 A 
ATOM     21  C   UNL     1      -2.419  -0.828   0.544  0.00  0.00    +0.028 A 
ENDBRANCH   8  16
ENDBRANCH   1   7
BRANCH   2  22
ATOM     22  C   UNL     1       3.518  -3.562  -0.109  0.00  0.00    +0.019 C 
BRANCH  22  30
ATOM     23  C   UNL     1       5.493  -2.968  -1.378  0.00  0.00    -0.059 C 
ATOM     24  C   UNL     1       7.009  -2.773  -1.276  0.00  0.00    +0.089 C 
ATOM     25  N   UNL     1       7.617  -4.048  -0.867  0.00  0.00    -0.299 N 
ATOM     26  C   UNL     1       7.071  -4.733   0.315  0.00  0.00    +0.089 C 
ATOM     27  C   UNL     1       5.552  -4.851   0.150  0.00  0.00    -0.059 C 
ATOM     28  C   UNL     1       8.648  -4.576  -1.556  0.00  0.00    +0.282 C 
ATOM     29  O   UNL     1       9.184  -5.596  -1.165  0.00  0.00    -0.267 OA
ATOM     30  N   UNL     1       4.995  -3.502  -0.092  0.00  0.00    +0.387 N 
ATOM     31  H   UNL     1       5.294  -2.877   0.666  0.00  0.00    -0.081 HD
BRANCH  28  32
ATOM     32  C   UNL     1       9.124  -3.921  -2.779  0.00  0.00    +0.189 A 
ATOM     33  C   UNL     1      10.064  -4.412  -3.639  0.00  0.00    +0.054 A 
ATOM     34  C   UNL     1      10.209  -3.464  -4.664  0.00  0.00    +0.042 A 
ATOM     35  C   UNL     1       9.362  -2.448  -4.388  0.00  0.00    +0.196 A 
ATOM     36  O   UNL     1       8.706  -2.729  -3.254  0.00  0.00    -0.458 OA
ENDBRANCH  28  32
ENDBRANCH  22  30
ENDBRANCH   2  22
TORSDOF 6
