REMARK  Name = ZINC09332396
REMARK  7 active torsions:
REMARK  status: ('A' for Active; 'I' for Inactive)
REMARK    1  A    between atoms: C_1  and  C_2
REMARK    2  A    between atoms: C_2  and  C_3
REMARK    3  A    between atoms: C_2  and  C_4
REMARK    4  A    between atoms: C_2  and  C_5
REMARK    5  A    between atoms: C_5  and  C_7
REMARK    6  A    between atoms: C_9  and  C_31
REMARK    7  A    between atoms: C_31  and  C_33
REMARK                            x       y       z     vdW  Elec       q    Type
REMARK                         _______ _______ _______ _____ _____    ______ ____
ROOT
ATOM      1  C   UNL     1      -2.087   6.897  -1.375  0.00  0.00    +0.136 C 
ATOM      2  C   UNL     1      -1.642   7.114   0.093  0.00  0.00    +0.108 C 
ATOM      3  C   UNL     1      -1.745   8.635   0.302  0.00  0.00    +0.107 C 
ATOM      4  C   UNL     1      -0.592   9.187   1.065  0.00  0.00    -0.008 A 
ATOM      5  C   UNL     1       0.741   9.364   0.755  0.00  0.00    +0.006 A 
ATOM      6  C   UNL     1       1.564   9.903   1.737  0.00  0.00    +0.000 A 
ATOM      7  C   UNL     1       1.073  10.257   2.977  0.00  0.00    +0.002 A 
ATOM      8  C   UNL     1      -0.268  10.114   3.293  0.00  0.00    +0.023 A 
ATOM      9  C   UNL     1      -1.105   9.581   2.313  0.00  0.00    +0.038 A 
ATOM     10  N   UNL     1      -2.476   9.394   2.349  0.00  0.00    -0.284 N 
ATOM     11  C   UNL     1      -2.950   8.919   1.180  0.00  0.00    +0.231 C 
ATOM     12  O   UNL     1      -4.111   8.743   0.882  0.00  0.00    -0.274 OA
ATOM     13  C   UNL     1      -1.929   9.255  -1.078  0.00  0.00    +0.107 C 
ATOM     14  C   UNL     1      -1.451   8.323  -3.387  0.00  0.00    +0.054 C 
ATOM     15  C   UNL     1      -0.690   9.383  -3.708  0.00  0.00    +0.022 C 
ATOM     16  C   UNL     1      -0.318  10.353  -2.659  0.00  0.00    -0.019 A 
ATOM     17  C   UNL     1      -0.929  10.329  -1.400  0.00  0.00    -0.020 A 
ATOM     18  C   UNL     1      -0.636  11.326  -0.494  0.00  0.00    +0.006 A 
ATOM     19  C   UNL     1       0.312  12.290  -0.788  0.00  0.00    +0.000 A 
ATOM     20  C   UNL     1       0.970  12.275  -2.005  0.00  0.00    +0.001 A 
ATOM     21  C   UNL     1       0.644  11.326  -2.949  0.00  0.00    +0.008 A 
ATOM     22  H   UNL     1      -3.027   9.581   3.126  0.00  0.00    +0.155 HD
ATOM     23  N   UNL     1      -1.470   8.102  -1.882  0.00  0.00    -0.384 NA
ATOM     24  H   UNL     1      -0.477   7.992  -1.644  0.00  0.00    +0.127 HD
ENDROOT
BRANCH   1  25
ATOM     25  C   UNL     1      -3.557   6.577  -1.461  0.00  0.00    +0.158 C 
ATOM     26  O   UNL     1      -4.355   7.457  -1.680  0.00  0.00    -0.295 OA
BRANCH  25  28
ATOM     27  C   UNL     1      -5.561   5.123  -1.319  0.00  0.00    +0.018 C 
ATOM     28  C   UNL     1      -4.032   5.159  -1.274  0.00  0.00    +0.022 C 
ATOM     29  C   UNL     1      -3.468   4.281  -2.392  0.00  0.00    +0.018 C 
ATOM     30  C   UNL     1      -3.549   4.635   0.080  0.00  0.00    +0.018 C 
ENDBRANCH  25  28
ENDBRANCH   1  25
BRANCH   2  31
ATOM     31  C   UNL     1      -0.253   6.585   0.324  0.00  0.00    +0.170 C 
ATOM     32  O   UNL     1       0.536   6.532  -0.595  0.00  0.00    -0.292 OA
BRANCH  31  33
ATOM     33  C   UNL     1       0.147   6.131   1.664  0.00  0.00    +0.018 A 
ATOM     34  C   UNL     1       1.400   5.541   1.861  0.00  0.00    +0.013 A 
ATOM     35  C   UNL     1       1.769   5.118   3.120  0.00  0.00    +0.020 A 
ATOM     36  C   UNL     1       0.902   5.276   4.189  0.00  0.00    +0.041 A 
ATOM     37  C   UNL     1      -0.343   5.854   4.000  0.00  0.00    +0.020 A 
ATOM     38  C   UNL     1      -0.723   6.288   2.748  0.00  0.00    +0.013 A 
ATOM     39 CL   UNL     1       1.374   4.739   5.771  0.00  0.00    -0.084 Cl
ENDBRANCH  31  33
ENDBRANCH   2  31
TORSDOF 4
