REMARK  Name = ZINC09069566
REMARK  8 active torsions:
REMARK  status: ('A' for Active; 'I' for Inactive)
REMARK    1  A    between atoms: C_1  and  C_2
REMARK    2  A    between atoms: C_5  and  N_8
REMARK    3  A    between atoms: C_10  and  C_15
REMARK    4  A    between atoms: C_15  and  N_16
REMARK    5  A    between atoms: C_17  and  C_19
REMARK    6  A    between atoms: C_19  and  C_20
REMARK    7  A    between atoms: C_20  and  C_21
REMARK    8  A    between atoms: C_21  and  N_22
REMARK                            x       y       z     vdW  Elec       q    Type
REMARK                         _______ _______ _______ _____ _____    ______ ____
ROOT
ATOM      1  N   UNL     1       0.585  -0.664  -1.018  0.00  0.00    -0.312 N 
ATOM      2  C   UNL     1       0.002  -0.004   0.002  0.00  0.00    +0.213 C 
ATOM      3  O   UNL     1      -0.506  -0.622   0.913  0.00  0.00    -0.276 OA
ATOM      4  H   UNL     1       0.992  -0.170  -1.747  0.00  0.00    +0.149 HD
ENDROOT
BRANCH   1   5
ATOM      5  C   UNL     1       0.605  -2.129  -1.026  0.00  0.00    +0.150 C 
BRANCH   5   8
ATOM      6  N   UNL     1       2.656  -4.580  -2.343  0.00  0.00    -0.234 N 
ATOM      7  C   UNL     1       1.247  -4.159  -2.381  0.00  0.00    +0.163 C 
ATOM      8  C   UNL     1       1.321  -2.623  -2.285  0.00  0.00    +0.213 C 
ATOM      9  O   UNL     1       2.749  -2.343  -2.203  0.00  0.00    -0.444 OA
ATOM     10  C   UNL     1       3.432  -3.493  -2.242  0.00  0.00    +0.408 C 
ATOM     11  O   UNL     1       4.644  -3.545  -2.190  0.00  0.00    -0.226 OA
BRANCH   6  16
ATOM     12  C   UNL     1       4.504  -9.939  -2.585  0.00  0.00    +0.044 C 
ATOM     13  C   UNL     1       4.013  -8.516  -2.520  0.00  0.00    -0.050 A 
ATOM     14  C   UNL     1       4.920  -7.477  -2.416  0.00  0.00    +0.005 A 
ATOM     15  C   UNL     1       4.473  -6.171  -2.357  0.00  0.00    +0.024 A 
ATOM     16  C   UNL     1       3.112  -5.902  -2.403  0.00  0.00    +0.040 A 
ATOM     17  C   UNL     1       2.203  -6.948  -2.501  0.00  0.00    +0.024 A 
ATOM     18  C   UNL     1       2.656  -8.251  -2.566  0.00  0.00    +0.005 A 
ENDBRANCH   6  16
ENDBRANCH   5   8
ENDBRANCH   1   5
BRANCH   2  19
ATOM     19  C   UNL     1      -0.018   1.503   0.010  0.00  0.00    +0.097 C 
BRANCH  19  20
ATOM     20  C   UNL     1      -0.735   1.996   1.269  0.00  0.00    +0.029 C 
BRANCH  20  21
ATOM     21  C   UNL     1      -0.755   3.526   1.278  0.00  0.00    +0.117 C 
BRANCH  21  22
ATOM     22  N   UNL     1      -1.441   3.998   2.483  0.00  0.00    -0.234 N 
ATOM     23  C   UNL     1      -2.762   4.239   2.562  0.00  0.00    +0.254 C 
ATOM     24  O   UNL     1      -3.563   4.102   1.659  0.00  0.00    -0.270 OA
ATOM     25  C   UNL     1      -3.076   4.696   3.932  0.00  0.00    +0.049 A 
ATOM     26  C   UNL     1      -4.239   5.077   4.583  0.00  0.00    +0.014 A 
ATOM     27  C   UNL     1      -4.186   5.468   5.911  0.00  0.00    +0.001 A 
ATOM     28  C   UNL     1      -2.983   5.481   6.591  0.00  0.00    +0.001 A 
ATOM     29  C   UNL     1      -1.812   5.103   5.954  0.00  0.00    +0.014 A 
ATOM     30  C   UNL     1      -1.849   4.709   4.625  0.00  0.00    +0.049 A 
ATOM     31  C   UNL     1      -0.832   4.254   3.655  0.00  0.00    +0.254 C 
ATOM     32  O   UNL     1       0.356   4.131   3.877  0.00  0.00    -0.270 OA
ENDBRANCH  21  22
ENDBRANCH  20  21
ENDBRANCH  19  20
ENDBRANCH   2  19
TORSDOF 7
