REMARK  Name = ZINC13098359
REMARK  11 active torsions:
REMARK  status: ('A' for Active; 'I' for Inactive)
REMARK    1  A    between atoms: C_1  and  C_2
REMARK    2  A    between atoms: C_2  and  C_3
REMARK    3  A    between atoms: C_3  and  C_4
REMARK    4  A    between atoms: C_4  and  C_30
REMARK    5  A    between atoms: N_7  and  C_11
REMARK    6  A    between atoms: C_11  and  N_12
REMARK    7  A    between atoms: N_15  and  S_18
REMARK    8  A    between atoms: S_18  and  C_21
REMARK    9  A    between atoms: C_24  and  C_27
REMARK   10  A    between atoms: C_27  and  C_28
REMARK   11  A    between atoms: C_27  and  C_29
REMARK                            x       y       z     vdW  Elec       q    Type
REMARK                         _______ _______ _______ _____ _____    ______ ____
ROOT
ATOM      1  C   UNL     1       2.088   3.124   7.825  0.00  0.00    +0.205 C 
ENDROOT
BRANCH   1   5
ATOM      2  C   UNL     1       2.818  -0.006   9.685  0.00  0.00    +0.138 C 
ATOM      3  C   UNL     1       2.397   1.449   9.635  0.00  0.00    +0.252 C 
ATOM      4  O   UNL     1       2.095   2.156  10.572  0.00  0.00    -0.272 OA
ATOM      5  N   UNL     1       2.428   1.793   8.332  0.00  0.00    -0.210 N 
ATOM      6  C   UNL     1       2.802   0.767   7.560  0.00  0.00    +0.311 C 
ATOM      7  O   UNL     1       2.900   0.833   6.350  0.00  0.00    -0.252 OA
ATOM      8  N   UNL     1       3.061  -0.345   8.272  0.00  0.00    -0.281 N 
ATOM      9  H   UNL     1       3.390  -1.358   7.997  0.00  0.00    +0.152 HD
BRANCH   2  10
ATOM     10  C   UNL     1       1.715  -0.859  10.255  0.00  0.00    -0.015 A 
ATOM     11  C   UNL     1       1.662  -1.101  11.616  0.00  0.00    +0.006 A 
ATOM     12  C   UNL     1       0.647  -1.880  12.140  0.00  0.00    +0.000 A 
ATOM     13  C   UNL     1      -0.309  -2.425  11.303  0.00  0.00    +0.000 A 
ATOM     14  C   UNL     1      -0.253  -2.187   9.942  0.00  0.00    +0.000 A 
ATOM     15  C   UNL     1       0.759  -1.404   9.419  0.00  0.00    +0.006 A 
ENDBRANCH   2  10
BRANCH   2  16
ATOM     16  C   UNL     1       4.100  -0.167  10.505  0.00  0.00    +0.040 C 
BRANCH  16  18
ATOM     17  C   UNL     1       6.482   0.555  10.722  0.00  0.00    +0.004 C 
ATOM     18  C   UNL     1       5.230   0.626   9.845  0.00  0.00    -0.000 C 
ENDBRANCH  16  18
ENDBRANCH   2  16
ENDBRANCH   1   5
BRANCH   1  19
ATOM     19  N   UNL     1       0.627   3.264   7.755  0.00  0.00    -0.284 NA
ATOM     20  C   UNL     1       0.242   4.299   6.787  0.00  0.00    +0.103 C 
ATOM     21  C   UNL     1      -1.269   4.540   6.875  0.00  0.00    +0.125 C 
ATOM     22  N   UNL     1      -1.958   3.251   6.714  0.00  0.00    -0.174 NA
ATOM     23  C   UNL     1      -1.536   2.125   7.561  0.00  0.00    +0.125 C 
ATOM     24  C   UNL     1      -0.010   1.978   7.442  0.00  0.00    +0.103 C 
BRANCH  22  25
ATOM     25  S   UNL     1      -3.181   3.073   5.612  0.00  0.00    +0.061 S 
ATOM     26  O   UNL     1      -3.718   4.370   5.389  0.00  0.00    -0.153 OA
ATOM     27  O   UNL     1      -3.978   1.985   6.061  0.00  0.00    -0.153 OA
BRANCH  25  28
ATOM     28  C   UNL     1      -2.445   2.565   4.094  0.00  0.00    +0.105 A 
ATOM     29  C   UNL     1      -2.281   1.219   3.822  0.00  0.00    +0.029 A 
ATOM     30  C   UNL     1      -1.704   0.821   2.630  0.00  0.00    +0.006 A 
ATOM     31  C   UNL     1      -1.292   1.767   1.711  0.00  0.00    -0.045 A 
ATOM     32  C   UNL     1      -1.452   3.112   1.986  0.00  0.00    +0.006 A 
ATOM     33  C   UNL     1      -2.032   3.511   3.175  0.00  0.00    +0.029 A 
BRANCH  31  34
ATOM     34  C   UNL     1      -0.664   1.332   0.412  0.00  0.00    +0.013 C 
ATOM     35  C   UNL     1       0.752   1.905   0.314  0.00  0.00    +0.012 C 
ATOM     36  C   UNL     1      -1.504   1.846  -0.758  0.00  0.00    +0.012 C 
ENDBRANCH  31  34
ENDBRANCH  25  28
ENDBRANCH  22  25
ENDBRANCH   1  19
TORSDOF 8
