REMARK  Name = ZINC35664573
REMARK  10 active torsions:
REMARK  status: ('A' for Active; 'I' for Inactive)
REMARK    1  A    between atoms: C_1  and  C_2
REMARK    2  A    between atoms: C_2  and  O_3
REMARK    3  A    between atoms: O_3  and  C_4
REMARK    4  A    between atoms: C_4  and  C_6
REMARK    5  A    between atoms: C_7  and  C_23
REMARK    6  A    between atoms: N_8  and  C_20
REMARK    7  A    between atoms: C_12  and  C_14
REMARK    8  A    between atoms: C_20  and  C_21
REMARK    9  A    between atoms: C_23  and  N_24
REMARK   10  A    between atoms: C_31  and  C_33
REMARK                            x       y       z     vdW  Elec       q    Type
REMARK                         _______ _______ _______ _____ _____    ______ ____
ROOT
ATOM      1  C   UNL     1      -3.023  -3.435  -0.430  0.00  0.00    +0.076 C 
ATOM      2  C   UNL     1      -3.283  -4.419  -1.318  0.00  0.00    +0.011 C 
ATOM      3  N   UNL     1      -4.493  -4.503  -1.944  0.00  0.00    -0.257 N 
ATOM      4  C   UNL     1      -5.497  -3.641  -1.738  0.00  0.00    +0.307 C 
ATOM      5  O   UNL     1      -6.540  -3.797  -2.343  0.00  0.00    -0.252 OA
ATOM      6  N   UNL     1      -5.389  -2.606  -0.881  0.00  0.00    -0.288 N 
ATOM      7  C   UNL     1      -4.123  -2.431  -0.149  0.00  0.00    +0.143 C 
ATOM      8  H   UNL     1      -6.129  -1.993  -0.748  0.00  0.00    +0.151 HD
ENDROOT
BRANCH   7   9
ATOM      9  C   UNL     1      -3.592  -1.058  -0.472  0.00  0.00    -0.023 A 
ATOM     10  C   UNL     1      -3.556  -0.621  -1.782  0.00  0.00    +0.006 A 
ATOM     11  C   UNL     1      -3.069   0.639  -2.078  0.00  0.00    +0.000 A 
ATOM     12  C   UNL     1      -2.619   1.462  -1.062  0.00  0.00    +0.000 A 
ATOM     13  C   UNL     1      -2.655   1.025   0.248  0.00  0.00    +0.000 A 
ATOM     14  C   UNL     1      -3.147  -0.233   0.544  0.00  0.00    +0.006 A 
ENDBRANCH   7   9
BRANCH   1  15
ATOM     15  C   UNL     1      -1.770  -3.347   0.220  0.00  0.00    +0.339 C 
ATOM     16  O   UNL     1      -0.862  -4.087  -0.109  0.00  0.00    -0.245 OA
BRANCH  15  17
ATOM     17  O   UNL     1      -1.582  -2.443   1.204  0.00  0.00    -0.462 OA
BRANCH  17  19
ATOM     18  C   UNL     1      -0.269  -1.331   2.901  0.00  0.00    +0.048 C 
ATOM     19  C   UNL     1      -0.292  -2.410   1.817  0.00  0.00    +0.229 C 
ENDBRANCH  17  19
ENDBRANCH  15  17
ENDBRANCH   1  15
BRANCH   3  20
ATOM     20  C   UNL     1      -4.705  -5.597  -2.895  0.00  0.00    +0.141 C 
BRANCH  20  21
ATOM     21  C   UNL     1      -5.337  -6.766  -2.183  0.00  0.00    -0.015 C 
ATOM     22  C   UNL     1      -6.452  -7.282  -2.635  0.00  0.00    +0.005 C 
ENDBRANCH  20  21
ENDBRANCH   3  20
BRANCH   2  23
ATOM     23  C   UNL     1      -2.218  -5.442  -1.622  0.00  0.00    -0.026 C 
BRANCH  23  24
ATOM     24  N   UNL     1      -1.548  -5.091  -2.881  0.00  0.00    +0.384 N 
ATOM     25  C   UNL     1      -0.743  -6.233  -3.308  0.00  0.00    -0.077 C 
ATOM     26  C   UNL     1      -0.641  -6.236  -4.818  0.00  0.00    +0.000 C 
ATOM     27  C   UNL     1       0.638  -5.495  -5.247  0.00  0.00    +0.106 C 
ATOM     28  N   UNL     1       0.865  -4.299  -4.411  0.00  0.00    -0.299 N 
ATOM     29  C   UNL     1      -0.211  -3.412  -4.018  0.00  0.00    +0.089 C 
ATOM     30  C   UNL     1      -0.825  -3.893  -2.683  0.00  0.00    -0.059 C 
ATOM     31  C   UNL     1       2.118  -4.022  -3.999  0.00  0.00    +0.249 C 
ATOM     32  O   UNL     1       2.318  -3.090  -3.246  0.00  0.00    -0.270 OA
ATOM     33  H   UNL     1      -2.256  -4.924  -3.581  0.00  0.00    -0.081 HD
BRANCH  31  34
ATOM     34  C   UNL     1       3.248  -4.853  -4.463  0.00  0.00    +0.072 A 
ATOM     35  C   UNL     1       3.331  -5.240  -5.803  0.00  0.00    +0.016 A 
ATOM     36  C   UNL     1       4.388  -6.015  -6.229  0.00  0.00    +0.001 A 
ATOM     37  C   UNL     1       5.368  -6.410  -5.335  0.00  0.00    +0.003 A 
ATOM     38  C   UNL     1       5.295  -6.032  -4.007  0.00  0.00    +0.039 A 
ATOM     39  C   UNL     1       4.244  -5.249  -3.565  0.00  0.00    +0.135 A 
ATOM     40  F   UNL     1       4.176  -4.875  -2.269  0.00  0.00    -0.205 F 
ENDBRANCH  31  34
ENDBRANCH  23  24
ENDBRANCH   2  23
TORSDOF 9
