REMARK  Name = ZINC35038905
REMARK  8 active torsions:
REMARK  status: ('A' for Active; 'I' for Inactive)
REMARK    1  A    between atoms: C_1  and  C_2
REMARK    2  A    between atoms: C_2  and  C_3
REMARK    3  A    between atoms: C_3  and  N_4
REMARK    4  A    between atoms: N_4  and  C_5
REMARK    5  A    between atoms: C_5  and  C_7
REMARK    6  A    between atoms: C_5  and  C_8
REMARK    7  A    between atoms: N_18  and  C_19
REMARK    8  A    between atoms: N_28  and  C_29
REMARK                            x       y       z     vdW  Elec       q    Type
REMARK                         _______ _______ _______ _____ _____    ______ ____
ROOT
ATOM      1  C   UNL     1      -0.906  -1.573  -1.613  0.00  0.00    +0.138 A 
ATOM      2  N   UNL     1      -1.731  -0.991  -2.429  0.00  0.00    -0.231 NA
ATOM      3  C   UNL     1      -3.073  -1.029  -2.231  0.00  0.00    +0.078 A 
ATOM      4  C   UNL     1      -3.961  -0.404  -3.108  0.00  0.00    +0.028 A 
ATOM      5  C   UNL     1      -5.315  -0.468  -2.869  0.00  0.00    +0.002 A 
ATOM      6  C   UNL     1      -5.811  -1.148  -1.764  0.00  0.00    +0.001 A 
ATOM      7  C   UNL     1      -4.954  -1.773  -0.883  0.00  0.00    +0.015 A 
ATOM      8  C   UNL     1      -3.580  -1.720  -1.108  0.00  0.00    +0.065 A 
ATOM      9  C   UNL     1      -2.619  -2.369  -0.204  0.00  0.00    +0.266 A 
ATOM     10  O   UNL     1      -2.991  -2.980   0.781  0.00  0.00    -0.267 OA
ATOM     11  N   UNL     1      -1.306  -2.264  -0.512  0.00  0.00    -0.263 N 
ENDROOT
BRANCH  11  12
ATOM     12  C   UNL     1      -0.348  -2.868   0.315  0.00  0.00    +0.051 A 
ATOM     13  C   UNL     1      -0.112  -2.364   1.587  0.00  0.00    +0.029 A 
ATOM     14  C   UNL     1       0.832  -2.961   2.400  0.00  0.00    +0.040 A 
ATOM     15  C   UNL     1       1.542  -4.061   1.947  0.00  0.00    +0.124 A 
ATOM     16  C   UNL     1       1.307  -4.564   0.678  0.00  0.00    +0.040 A 
ATOM     17  C   UNL     1       0.361  -3.973  -0.136  0.00  0.00    +0.029 A 
ATOM     18  F   UNL     1       2.464  -4.643   2.744  0.00  0.00    -0.205 F 
ENDBRANCH  11  12
BRANCH   1  19
ATOM     19  C   UNL     1       0.570  -1.484  -1.905  0.00  0.00    +0.141 C 
ATOM     20  C   UNL     1       0.778  -0.999  -3.341  0.00  0.00    +0.036 C 
BRANCH  19  21
ATOM     21  N   UNL     1       1.196  -0.540  -0.975  0.00  0.00    -0.276 N 
ATOM     22  C   UNL     1       2.240  -0.931  -0.219  0.00  0.00    +0.307 C 
ATOM     23  O   UNL     1       2.663  -2.067  -0.308  0.00  0.00    -0.252 OA
ATOM     24  N   UNL     1       2.815  -0.063   0.636  0.00  0.00    -0.268 N 
ATOM     25  H   UNL     1       2.435   0.822   0.759  0.00  0.00    +0.156 HD
BRANCH  24  26
ATOM     26  C   UNL     1       3.961  -0.436   1.348  0.00  0.00    +0.049 A 
ATOM     27  C   UNL     1       4.848  -1.357   0.805  0.00  0.00    +0.024 A 
ATOM     28  C   UNL     1       5.978  -1.723   1.510  0.00  0.00    +0.002 A 
ATOM     29  C   UNL     1       6.227  -1.175   2.755  0.00  0.00    +0.001 A 
ATOM     30  C   UNL     1       5.347  -0.258   3.299  0.00  0.00    +0.017 A 
ATOM     31  C   UNL     1       4.217   0.117   2.597  0.00  0.00    +0.039 A 
ATOM     32 BR   UNL     1       3.016   1.376   3.338  0.00  0.00    -0.048 Br
ENDBRANCH  24  26
BRANCH  21  33
ATOM     33  C   UNL     1       0.685   0.829  -0.868  0.00  0.00    +0.110 C 
BRANCH  33  35
ATOM     34  C   UNL     1      -0.736   2.370   0.491  0.00  0.00    +0.005 C 
ATOM     35  C   UNL     1      -0.301   0.916   0.298  0.00  0.00    +0.016 C 
ENDBRANCH  33  35
ENDBRANCH  21  33
ENDBRANCH  19  21
ENDBRANCH   1  19
TORSDOF 6
