REMARK  Name = ZINC04958084
REMARK  8 active torsions:
REMARK  status: ('A' for Active; 'I' for Inactive)
REMARK    1  A    between atoms: C_1  and  C_2
REMARK    2  A    between atoms: C_3  and  C_25
REMARK    3  A    between atoms: C_4  and  C_24
REMARK    4  A    between atoms: C_8  and  N_23
REMARK    5  A    between atoms: C_9  and  C_11
REMARK    6  A    between atoms: N_13  and  C_14
REMARK    7  A    between atoms: C_17  and  N_20
REMARK    8  A    between atoms: C_25  and  C_26
REMARK                            x       y       z     vdW  Elec       q    Type
REMARK                         _______ _______ _______ _____ _____    ______ ____
ROOT
ATOM      1  C   UNL     1      -2.986   0.026   0.355  0.00  0.00    +0.045 C 
ATOM      2  C   UNL     1      -2.558   1.346   0.945  0.00  0.00    -0.034 A 
ATOM      3  C   UNL     1      -2.205   2.393   0.127  0.00  0.00    -0.021 A 
ATOM      4  C   UNL     1      -1.805   3.604   0.671  0.00  0.00    +0.017 A 
ATOM      5  N   UNL     1      -1.769   3.770   1.979  0.00  0.00    -0.352 N 
ATOM      6  C   UNL     1      -2.098   2.798   2.803  0.00  0.00    +0.088 A 
ATOM      7  C   UNL     1      -2.513   1.525   2.349  0.00  0.00    +0.030 A 
ATOM      8  C   UNL     1      -2.837   0.571   3.398  0.00  0.00    +0.054 A 
ATOM      9  C   UNL     1      -2.716   0.974   4.710  0.00  0.00    +0.097 A 
ATOM     10  S   UNL     1      -2.159   2.662   4.572  0.00  0.00    -0.064 S 
ATOM     11  C   UNL     1      -1.415   4.741  -0.237  0.00  0.00    +0.063 C 
ATOM     12  H   UNL     1      -1.459   4.736   2.403  0.00  0.00    +0.166 HD
ENDROOT
BRANCH   9  13
ATOM     13  C   UNL     1      -2.974   0.228   5.886  0.00  0.00    +0.257 C 
ATOM     14  O   UNL     1      -3.354  -0.927   5.803  0.00  0.00    -0.269 OA
ATOM     15  N   UNL     1      -2.799   0.794   7.096  0.00  0.00    -0.281 N 
ATOM     16  H   UNL     1      -2.538   1.860   7.171  0.00  0.00    +0.155 HD
BRANCH  15  17
ATOM     17  C   UNL     1      -2.950   0.028   8.255  0.00  0.00    +0.034 A 
ATOM     18  C   UNL     1      -3.383   0.624   9.433  0.00  0.00    +0.025 A 
ATOM     19  C   UNL     1      -3.536  -0.137  10.575  0.00  0.00    +0.034 A 
ATOM     20  C   UNL     1      -3.247  -1.490  10.550  0.00  0.00    +0.126 A 
ATOM     21  C   UNL     1      -2.811  -2.085   9.381  0.00  0.00    +0.034 A 
ATOM     22  C   UNL     1      -2.661  -1.331   8.234  0.00  0.00    +0.025 A 
BRANCH  20  23
ATOM     23  N   UNL     1      -3.406  -2.301  11.778  0.00  0.00    +0.056 N 
ATOM     24  O   UNL     1      -3.153  -3.492  11.758  0.00  0.00    -0.126 OA
ATOM     25  O   UNL     1      -3.791  -1.778  12.809  0.00  0.00    -0.126 OA
ENDBRANCH  20  23
ENDBRANCH  15  17
ENDBRANCH   9  13
BRANCH   8  26
ATOM     26  N   UNL     1      -3.258  -0.714   3.085  0.00  0.00    -0.356 N 
ATOM     27  H   UNL     1      -3.500  -1.425   3.889  0.00  0.00    +0.142 HD
ATOM     28  H   UNL     1      -3.350  -1.022   2.033  0.00  0.00    +0.142 HD
ENDBRANCH   8  26
BRANCH   3  29
ATOM     29  C   UNL     1      -2.246   2.223  -1.370  0.00  0.00    +0.063 C 
BRANCH  29  30
ATOM     30  C   UNL     1      -3.610   2.610  -1.882  0.00  0.00    -0.030 C 
ATOM     31  C   UNL     1      -3.723   3.518  -2.820  0.00  0.00    +0.004 C 
ENDBRANCH  29  30
ENDBRANCH   3  29
TORSDOF 6
