REMARK  Name = ZINC16607128
REMARK  4 active torsions:
REMARK  status: ('A' for Active; 'I' for Inactive)
REMARK    1  A    between atoms: C_1  and  C_2
REMARK    2  A    between atoms: N_5  and  C_6
REMARK    3  A    between atoms: C_9  and  N_12
REMARK    4  A    between atoms: C_13  and  N_17
REMARK                            x       y       z     vdW  Elec       q    Type
REMARK                         _______ _______ _______ _____ _____    ______ ____
ROOT
ATOM      1  C   UNL     1       0.011   1.442   0.620  0.00  0.00    +0.048 C 
ATOM      2  C   UNL     1       0.018  -0.036   0.329  0.00  0.00    -0.002 C 
ATOM      3  C   UNL     1      -1.145  -0.722   0.307  0.00  0.00    +0.036 C 
ATOM      4  C   UNL     1      -1.128  -2.160   0.023  0.00  0.00    +0.086 C 
ATOM      5  N   UNL     1      -2.255  -2.851  -0.003  0.00  0.00    -0.246 NA
ATOM      6  C   UNL     1       0.160  -2.825  -0.233  0.00  0.00    +0.054 C 
ATOM      7  C   UNL     1       1.313  -2.099  -0.203  0.00  0.00    +0.076 C 
ATOM      8  C   UNL     1       1.282  -0.720   0.065  0.00  0.00    +0.184 C 
ATOM      9  O   UNL     1       2.326  -0.085   0.082  0.00  0.00    -0.288 OA
ENDROOT
BRANCH   5  10
ATOM     10  C   UNL     1      -3.432  -2.218   0.107  0.00  0.00    +0.065 A 
ATOM     11  C   UNL     1      -3.773  -1.195  -0.800  0.00  0.00    +0.029 A 
ATOM     12  C   UNL     1      -4.970  -0.556  -0.683  0.00  0.00    +0.025 A 
ATOM     13  C   UNL     1      -5.859  -0.913   0.333  0.00  0.00    +0.025 A 
ATOM     14  C   UNL     1      -5.528  -1.927   1.236  0.00  0.00    +0.025 A 
ATOM     15  C   UNL     1      -4.336  -2.577   1.126  0.00  0.00    +0.029 A 
BRANCH  13  16
ATOM     16  N   UNL     1      -7.075  -0.260   0.447  0.00  0.00    -0.358 N 
ATOM     17  H   UNL     1      -7.307   0.445  -0.179  0.00  0.00    +0.142 HD
ATOM     18  H   UNL     1      -7.694  -0.506   1.152  0.00  0.00    +0.142 HD
ENDBRANCH  13  16
ENDBRANCH   5  10
BRANCH   6  19
ATOM     19  N   UNL     1       0.200  -4.181  -0.503  0.00  0.00    -0.356 N 
ATOM     20  H   UNL     1      -0.621  -4.696  -0.524  0.00  0.00    +0.142 HD
ATOM     21  H   UNL     1       1.050  -4.617  -0.672  0.00  0.00    +0.142 HD
ENDBRANCH   6  19
TORSDOF 3
