REMARK  Name = ZINC63730140
REMARK  11 active torsions:
REMARK  status: ('A' for Active; 'I' for Inactive)
REMARK    1  A    between atoms: C_1  and  C_2
REMARK    2  A    between atoms: C_5  and  S_8
REMARK    3  A    between atoms: S_8  and  N_11
REMARK    4  A    between atoms: N_11  and  C_12
REMARK    5  A    between atoms: N_11  and  C_13
REMARK    6  A    between atoms: C_16  and  O_19
REMARK    7  A    between atoms: O_19  and  C_20
REMARK    8  A    between atoms: C_20  and  C_21
REMARK    9  A    between atoms: N_23  and  C_24
REMARK   10  A    between atoms: C_24  and  C_25
REMARK   11  A    between atoms: C_25  and  C_26
REMARK                            x       y       z     vdW  Elec       q    Type
REMARK                         _______ _______ _______ _____ _____    ______ ____
ROOT
ATOM      1  C   UNL     1       2.382  -5.114  -1.222  0.00  0.00    +0.051 A 
ATOM      2  C   UNL     1       1.724  -5.339  -2.424  0.00  0.00    +0.028 A 
ATOM      3  C   UNL     1       2.446  -5.452  -3.596  0.00  0.00    +0.047 A 
ATOM      4  C   UNL     1       3.828  -5.341  -3.572  0.00  0.00    +0.121 A 
ATOM      5  C   UNL     1       4.486  -5.117  -2.372  0.00  0.00    +0.047 A 
ATOM      6  C   UNL     1       3.765  -4.998  -1.200  0.00  0.00    +0.028 A 
ENDROOT
BRANCH   1   7
ATOM      7  N   UNL     1       1.651  -4.999  -0.034  0.00  0.00    -0.206 N 
ATOM      8  C   UNL     1       0.643  -3.945   0.107  0.00  0.00    +0.157 C 
BRANCH   7   9
ATOM      9  S   UNL     1       1.925  -6.055   1.212  0.00  0.00    +0.074 S 
ATOM     10  O   UNL     1       1.629  -5.353   2.411  0.00  0.00    -0.150 OA
ATOM     11  O   UNL     1       3.193  -6.649   0.970  0.00  0.00    -0.150 OA
BRANCH   9  16
ATOM     12  C   UNL     1      -2.164 -10.468   0.747  0.00  0.00    +0.044 C 
ATOM     13  C   UNL     1      -1.143  -9.366   0.863  0.00  0.00    -0.050 A 
ATOM     14  C   UNL     1       0.077  -9.483   0.222  0.00  0.00    +0.005 A 
ATOM     15  C   UNL     1       1.013  -8.472   0.329  0.00  0.00    +0.029 A 
ATOM     16  C   UNL     1       0.730  -7.343   1.075  0.00  0.00    +0.109 A 
ATOM     17  C   UNL     1      -0.489  -7.226   1.715  0.00  0.00    +0.029 A 
ATOM     18  C   UNL     1      -1.428  -8.235   1.605  0.00  0.00    +0.005 A 
ENDBRANCH   9  16
ENDBRANCH   7   9
ENDBRANCH   1   7
BRANCH   4  19
ATOM     19  O   UNL     1       4.538  -5.452  -4.727  0.00  0.00    -0.483 OA
BRANCH  19  20
ATOM     20  C   UNL     1       5.959  -5.327  -4.629  0.00  0.00    +0.324 C 
BRANCH  20  21
ATOM     21  C   UNL     1       6.571  -5.477  -5.998  0.00  0.00    +0.251 C 
ATOM     22  O   UNL     1       5.862  -5.671  -6.962  0.00  0.00    -0.272 OA
ATOM     23  N   UNL     1       7.908  -5.394  -6.151  0.00  0.00    -0.312 N 
ATOM     24  H   UNL     1       8.476  -5.239  -5.379  0.00  0.00    +0.149 HD
BRANCH  23  25
ATOM     25  C   UNL     1       8.504  -5.540  -7.481  0.00  0.00    +0.108 C 
BRANCH  25  26
ATOM     26  C   UNL     1      10.024  -5.406  -7.377  0.00  0.00    +0.052 C 
BRANCH  26  27
ATOM     27  C   UNL     1      10.637  -5.556  -8.745  0.00  0.00    -0.040 C 
ATOM     28  C   UNL     1      10.975  -4.562  -9.598  0.00  0.00    -0.001 A 
ATOM     29  C   UNL     1      10.877  -3.100  -9.510  0.00  0.00    +0.010 A 
ATOM     30  C   UNL     1      11.307  -2.350 -10.550  0.00  0.00    +0.001 A 
ATOM     31  C   UNL     1      11.843  -2.932 -11.707  0.00  0.00    +0.002 A 
ATOM     32  C   UNL     1      11.966  -4.268 -11.861  0.00  0.00    +0.026 A 
ATOM     33  C   UNL     1      11.545  -5.152 -10.830  0.00  0.00    +0.043 A 
ATOM     34  N   UNL     1      11.559  -6.460 -10.742  0.00  0.00    -0.380 N 
ATOM     35  C   UNL     1      11.004  -6.848  -9.441  0.00  0.00    +0.144 C 
ATOM     36  H   UNL     1      11.885  -7.070 -11.423  0.00  0.00    +0.160 HD
ENDBRANCH  26  27
ENDBRANCH  25  26
ENDBRANCH  23  25
ENDBRANCH  20  21
ENDBRANCH  19  20
ENDBRANCH   4  19
TORSDOF 9
