REMARK  Name = ZINC09114372
REMARK  5 active torsions:
REMARK  status: ('A' for Active; 'I' for Inactive)
REMARK    1  A    between atoms: C_1  and  C_2
REMARK    2  A    between atoms: C_7  and  N_12
REMARK    3  A    between atoms: C_9  and  C_11
REMARK    4  A    between atoms: C_16  and  C_18
REMARK    5  A    between atoms: C_18  and  N_19
REMARK                            x       y       z     vdW  Elec       q    Type
REMARK                         _______ _______ _______ _____ _____    ______ ____
ROOT
ATOM      1  N   UNL     1      -0.396   1.355   4.793  0.00  0.00    -0.296 N 
ATOM      2  C   UNL     1      -0.872   1.681   3.575  0.00  0.00    +0.306 C 
ATOM      3  O   UNL     1      -1.871   2.366   3.476  0.00  0.00    -0.252 OA
ATOM      4  N   UNL     1      -0.242   1.246   2.466  0.00  0.00    -0.239 N 
ATOM      5  C   UNL     1      -0.718   1.572   1.248  0.00  0.00    +0.240 C 
ATOM      6  O   UNL     1      -1.714   2.256   1.150  0.00  0.00    -0.273 OA
ATOM      7  H   UNL     1       0.401   0.807   4.871  0.00  0.00    +0.151 HD
ATOM      8  H   UNL     1       0.555   0.699   2.544  0.00  0.00    +0.159 HD
ENDROOT
BRANCH   1  14
ATOM      9  C   UNL     1       1.477   0.548   8.575  0.00  0.00    +0.008 C 
ATOM     10  C   UNL     1       0.484   0.489   7.413  0.00  0.00    -0.009 C 
ATOM     11  C   UNL     1      -0.654  -0.472   7.762  0.00  0.00    +0.003 C 
ATOM     12  C   UNL     1      -1.647  -0.531   6.600  0.00  0.00    +0.002 C 
ATOM     13  C   UNL     1      -2.219   0.866   6.347  0.00  0.00    +0.022 C 
ATOM     14  C   UNL     1      -1.082   1.827   5.998  0.00  0.00    +0.078 C 
ATOM     15  C   UNL     1      -0.088   1.886   7.160  0.00  0.00    +0.009 C 
ATOM     16  C   UNL     1       1.050   2.847   6.810  0.00  0.00    +0.009 C 
ENDBRANCH   1  14
BRANCH   5  17
ATOM     17  C   UNL     1      -0.013   1.086   0.008  0.00  0.00    +0.218 C 
BRANCH  17  18
ATOM     18  N   UNL     1      -0.721   1.571  -1.179  0.00  0.00    -0.328 N 
ATOM     19  C   UNL     1      -0.490   2.748  -1.838  0.00  0.00    +0.107 A 
ATOM     20  C   UNL     1      -1.359   2.797  -2.865  0.00  0.00    +0.130 A 
ATOM     21  N   UNL     1      -2.101   1.679  -2.835  0.00  0.00    -0.244 NA
ATOM     22  C   UNL     1      -1.720   0.938  -1.830  0.00  0.00    +0.199 A 
ENDBRANCH  17  18
ENDBRANCH   5  17
TORSDOF 3
