REMARK  Name = ZINC16695895
REMARK  9 active torsions:
REMARK  status: ('A' for Active; 'I' for Inactive)
REMARK    1  A    between atoms: C_1  and  O_2
REMARK    2  A    between atoms: O_2  and  C_3
REMARK    3  A    between atoms: N_10  and  C_11
REMARK    4  A    between atoms: C_16  and  C_17
REMARK    5  A    between atoms: C_22  and  C_24
REMARK    6  A    between atoms: C_27  and  O_32
REMARK    7  A    between atoms: C_28  and  O_30
REMARK    8  A    between atoms: O_30  and  C_31
REMARK    9  A    between atoms: O_32  and  C_33
REMARK                            x       y       z     vdW  Elec       q    Type
REMARK                         _______ _______ _______ _____ _____    ______ ____
ROOT
ATOM      1  C   UNL     1      -1.257  -2.209  -0.011  0.00  0.00    +0.121 A 
ATOM      2  C   UNL     1      -2.486  -2.850  -0.117  0.00  0.00    +0.049 A 
ATOM      3  C   UNL     1      -3.653  -2.120  -0.209  0.00  0.00    +0.050 A 
ATOM      4  C   UNL     1      -3.607  -0.733  -0.197  0.00  0.00    +0.138 A 
ATOM      5  C   UNL     1      -2.367  -0.085  -0.097  0.00  0.00    +0.044 A 
ATOM      6  C   UNL     1      -1.193  -0.827   0.003  0.00  0.00    +0.059 A 
ATOM      7  C   UNL     1      -2.344   1.394  -0.079  0.00  0.00    +0.054 A 
ATOM      8  N   UNL     1      -1.205   2.064   0.019  0.00  0.00    -0.354 N 
ATOM      9  C   UNL     1      -3.590   2.066  -0.178  0.00  0.00    +0.073 A 
ATOM     10  C   UNL     1      -4.734   1.342  -0.278  0.00  0.00    +0.138 A 
ATOM     11  O   UNL     1      -4.740  -0.003  -0.286  0.00  0.00    -0.455 OA
ATOM     12  H   UNL     1      -1.220   3.155   0.157  0.00  0.00    +0.166 HD
ENDROOT
BRANCH   8  13
ATOM     13  C   UNL     1      -0.015   1.401  -0.051  0.00  0.00    +0.051 A 
ATOM     14  C   UNL     1       0.519   1.043  -1.293  0.00  0.00    +0.026 A 
ATOM     15  C   UNL     1       1.725   0.378  -1.355  0.00  0.00    +0.002 A 
ATOM     16  C   UNL     1       2.406   0.064  -0.192  0.00  0.00    +0.001 A 
ATOM     17  C   UNL     1       1.885   0.414   1.041  0.00  0.00    +0.014 A 
ATOM     18  C   UNL     1       0.680   1.080   1.120  0.00  0.00    +0.078 A 
BRANCH  18  19
ATOM     19  C   UNL     1       0.114   1.461   2.463  0.00  0.00    +0.419 C 
ATOM     20  F   UNL     1       0.983   1.036   3.473  0.00  0.00    -0.166 F 
ATOM     21  F   UNL     1      -0.035   2.850   2.530  0.00  0.00    -0.166 F 
ATOM     22  F   UNL     1      -1.133   0.850   2.634  0.00  0.00    -0.166 F 
ENDBRANCH  18  19
ENDBRANCH   8  13
BRANCH  10  23
ATOM     23  C   UNL     1      -6.019   2.058  -0.379  0.00  0.00    +0.021 A 
ATOM     24  C   UNL     1      -6.046   3.455  -0.366  0.00  0.00    +0.015 A 
ATOM     25  C   UNL     1      -7.248   4.122  -0.468  0.00  0.00    +0.050 A 
ATOM     26  C   UNL     1      -8.435   3.409  -0.571  0.00  0.00    +0.162 A 
ATOM     27  C   UNL     1      -8.416   2.015  -0.578  0.00  0.00    +0.162 A 
ATOM     28  C   UNL     1      -7.214   1.340  -0.483  0.00  0.00    +0.061 A 
BRANCH  27  29
ATOM     29  O   UNL     1      -9.581   1.320  -0.679  0.00  0.00    -0.491 OA
ATOM     30  C   UNL     1      -9.487  -0.105  -0.681  0.00  0.00    +0.277 C 
ENDBRANCH  27  29
BRANCH  26  31
ATOM     31  O   UNL     1      -9.617   4.072  -0.665  0.00  0.00    -0.491 OA
ATOM     32  C   UNL     1      -9.564   5.500  -0.652  0.00  0.00    +0.277 C 
ENDBRANCH  26  31
ENDBRANCH  10  23
BRANCH   1  34
ATOM     33  C   UNL     1      -0.254  -4.364   0.062  0.00  0.00    +0.277 C 
ATOM     34  O   UNL     1      -0.115  -2.942   0.081  0.00  0.00    -0.495 OA
ENDBRANCH   1  34
TORSDOF 6
