REMARK  Name = ZINC12586217
REMARK  10 active torsions:
REMARK  status: ('A' for Active; 'I' for Inactive)
REMARK    1  A    between atoms: C_1  and  C_2
REMARK    2  A    between atoms: C_2  and  C_3
REMARK    3  A    between atoms: C_2  and  C_4
REMARK    4  A    between atoms: C_4  and  N_5
REMARK    5  A    between atoms: N_5  and  C_6
REMARK    6  A    between atoms: C_7  and  N_22
REMARK    7  A    between atoms: N_8  and  C_15
REMARK    8  A    between atoms: C_15  and  C_16
REMARK    9  A    between atoms: C_23  and  C_25
REMARK   10  A    between atoms: C_25  and  N_26
REMARK                            x       y       z     vdW  Elec       q    Type
REMARK                         _______ _______ _______ _____ _____    ______ ____
ROOT
ATOM      1  N   UNL     1       0.366   0.010  -0.034  0.00  0.00    -0.263 N 
ATOM      2  C   UNL     1      -0.736  -0.763  -0.124  0.00  0.00    +0.237 C 
ATOM      3  O   UNL     1      -1.834  -0.251  -0.170  0.00  0.00    -0.274 OA
ENDROOT
BRANCH   1   4
ATOM      4  C   UNL     1       0.237   1.407   0.118  0.00  0.00    +0.140 A 
ATOM      5  C   UNL     1       0.680   2.032   1.266  0.00  0.00    +0.128 A 
ATOM      6  N   UNL     1       0.544   3.396   1.383  0.00  0.00    -0.276 N 
ATOM      7  C   UNL     1      -0.022   4.111   0.394  0.00  0.00    +0.331 A 
ATOM      8  O   UNL     1      -0.137   5.315   0.518  0.00  0.00    -0.246 OA
ATOM      9  N   UNL     1      -0.463   3.518  -0.730  0.00  0.00    -0.273 N 
ATOM     10  H   UNL     1      -0.880   4.073  -1.450  0.00  0.00    +0.173 HD
ATOM     11  C   UNL     1      -0.350   2.186  -0.897  0.00  0.00    +0.277 A 
ATOM     12  O   UNL     1      -0.753   1.659  -1.919  0.00  0.00    -0.266 OA
BRANCH   5  13
ATOM     13  N   UNL     1       1.253   1.302   2.279  0.00  0.00    -0.343 N 
ATOM     14  H   UNL     1       1.373   0.344   2.178  0.00  0.00    +0.144 HD
ATOM     15  H   UNL     1       1.538   1.743   3.094  0.00  0.00    +0.144 HD
ENDBRANCH   5  13
BRANCH   6  16
ATOM     16  C   UNL     1       1.013   4.074   2.594  0.00  0.00    +0.163 C 
BRANCH  16  17
ATOM     17  C   UNL     1      -0.103   4.122   3.607  0.00  0.00    -0.028 A 
ATOM     18  C   UNL     1      -0.971   5.197   3.627  0.00  0.00    +0.005 A 
ATOM     19  C   UNL     1      -1.997   5.239   4.552  0.00  0.00    +0.000 A 
ATOM     20  C   UNL     1      -2.148   4.210   5.464  0.00  0.00    +0.000 A 
ATOM     21  C   UNL     1      -1.276   3.138   5.447  0.00  0.00    +0.000 A 
ATOM     22  C   UNL     1      -0.253   3.094   4.518  0.00  0.00    +0.005 A 
ENDBRANCH  16  17
ENDBRANCH   6  16
ENDBRANCH   1   4
BRANCH   1  23
ATOM     23  C   UNL     1       1.697  -0.600  -0.093  0.00  0.00    +0.117 C 
BRANCH  23  25
ATOM     24  C   UNL     1       2.285   0.580  -2.215  0.00  0.00    +0.009 C 
ATOM     25  C   UNL     1       2.107  -0.788  -1.555  0.00  0.00    +0.001 C 
ATOM     26  C   UNL     1       3.426  -1.561  -1.619  0.00  0.00    +0.009 C 
ENDBRANCH  23  25
ENDBRANCH   1  23
BRANCH   2  27
ATOM     27  C   UNL     1      -0.602  -2.264  -0.168  0.00  0.00    +0.201 C 
BRANCH  27  28
ATOM     28  N   UNL     1      -1.914  -2.865  -0.442  0.00  0.00    -0.320 N 
ATOM     29  C   UNL     1      -1.786  -4.300  -0.727  0.00  0.00    +0.106 C 
ATOM     30  C   UNL     1      -2.936  -5.092  -0.142  0.00  0.00    +0.030 C 
ATOM     31  C   UNL     1      -4.280  -4.906  -0.821  0.00  0.00    +0.076 C 
ATOM     32  S   UNL     1      -4.883  -3.212  -0.521  0.00  0.00    -0.123 S 
ATOM     33  C   UNL     1      -3.927  -2.275  -1.688  0.00  0.00    +0.029 A 
ATOM     34  C   UNL     1      -2.557  -2.207  -1.506  0.00  0.00    +0.044 A 
ATOM     35  C   UNL     1      -1.791  -1.469  -2.401  0.00  0.00    +0.024 A 
ATOM     36  C   UNL     1      -2.406  -0.823  -3.459  0.00  0.00    +0.002 A 
ATOM     37  C   UNL     1      -3.774  -0.903  -3.636  0.00  0.00    +0.001 A 
ATOM     38  C   UNL     1      -4.545  -1.633  -2.745  0.00  0.00    +0.016 A 
ENDBRANCH  27  28
ENDBRANCH   2  27
TORSDOF 8
