REMARK  Name = ZINC41569206
REMARK  4 active torsions:
REMARK  status: ('A' for Active; 'I' for Inactive)
REMARK    1  A    between atoms: C_3  and  C_6
REMARK    2  A    between atoms: C_6  and  C_7
REMARK    3  A    between atoms: C_7  and  C_8
REMARK    4  A    between atoms: C_14  and  N_17
REMARK                            x       y       z     vdW  Elec       q    Type
REMARK                         _______ _______ _______ _____ _____    ______ ____
ROOT
ATOM      1  C   UNL     1       5.629   0.571   1.393  0.00  0.00    +0.197 A 
ATOM      2  N   UNL     1       6.397   1.619   1.396  0.00  0.00    -0.213 NA
ATOM      3  C   UNL     1       7.695   1.212   1.379  0.00  0.00    +0.113 A 
ATOM      4  C   UNL     1       8.919   1.887   1.374  0.00  0.00    +0.051 A 
ATOM      5  C   UNL     1      10.097   1.172   1.355  0.00  0.00    +0.045 A 
ATOM      6  C   UNL     1      10.077  -0.215   1.341  0.00  0.00    +0.046 A 
ATOM      7  C   UNL     1       8.872  -0.899   1.345  0.00  0.00    +0.071 A 
ATOM      8  C   UNL     1       7.674  -0.188   1.365  0.00  0.00    +0.176 A 
ATOM      9  O   UNL     1       6.371  -0.548   1.380  0.00  0.00    -0.438 OA
ATOM     10 CL   UNL     1      11.615   2.013   1.348  0.00  0.00    -0.083 Cl
ENDROOT
BRANCH   7  11
ATOM     11  N   UNL     1       8.859  -2.297   1.331  0.00  0.00    -0.355 N 
ATOM     12  H   UNL     1       9.694  -2.790   1.317  0.00  0.00    +0.142 HD
ATOM     13  H   UNL     1       8.014  -2.774   1.334  0.00  0.00    +0.142 HD
ENDBRANCH   7  11
BRANCH   1  14
ATOM     14  C   UNL     1       4.123   0.606   1.408  0.00  0.00    +0.104 C 
BRANCH  14  15
ATOM     15  C   UNL     1       3.599   0.625  -0.029  0.00  0.00    +0.083 C 
BRANCH  15  18
ATOM     16  C   UNL     1      -0.016   1.341   0.009  0.00  0.00    +0.041 A 
ATOM     17  C   UNL     1       1.331   1.769  -0.001  0.00  0.00    +0.044 A 
ATOM     18  C   UNL     1       2.092   0.660  -0.014  0.00  0.00    +0.105 A 
ATOM     19  O   UNL     1       1.282  -0.411  -0.012  0.00  0.00    -0.468 OA
ATOM     20  C   UNL     1       0.002  -0.004   0.002  0.00  0.00    +0.195 A 
ENDBRANCH  15  18
ENDBRANCH  14  15
ENDBRANCH   1  14
TORSDOF 4
