REMARK  Name = ZINC39381086
REMARK  5 active torsions:
REMARK  status: ('A' for Active; 'I' for Inactive)
REMARK    1  A    between atoms: C_1  and  C_2
REMARK    2  A    between atoms: C_4  and  C_12
REMARK    3  A    between atoms: C_13  and  C_14
REMARK    4  A    between atoms: N_25  and  C_26
REMARK    5  A    between atoms: C_29  and  N_32
REMARK                            x       y       z     vdW  Elec       q    Type
REMARK                         _______ _______ _______ _____ _____    ______ ____
ROOT
ATOM      1  C   UNL     1      -4.457  -0.982  -1.691  0.00  0.00    +0.190 C 
ATOM      2  N   UNL     1      -5.583  -0.229  -1.126  0.00  0.00    -0.322 N 
ATOM      3  C   UNL     1      -6.622  -0.930  -0.524  0.00  0.00    +0.041 A 
ATOM      4  C   UNL     1      -7.378  -0.378   0.497  0.00  0.00    +0.024 A 
ATOM      5  C   UNL     1      -8.408  -1.109   1.057  0.00  0.00    +0.002 A 
ATOM      6  C   UNL     1      -8.691  -2.388   0.605  0.00  0.00    +0.001 A 
ATOM      7  C   UNL     1      -7.945  -2.954  -0.408  0.00  0.00    +0.015 A 
ATOM      8  C   UNL     1      -6.900  -2.231  -0.979  0.00  0.00    +0.058 A 
ATOM      9  C   UNL     1      -6.060  -2.800  -2.046  0.00  0.00    +0.254 C 
ATOM     10  O   UNL     1      -6.370  -3.850  -2.577  0.00  0.00    -0.270 OA
ATOM     11  N   UNL     1      -4.948  -2.147  -2.428  0.00  0.00    -0.245 N 
ATOM     12  H   UNL     1      -5.602   0.739  -1.173  0.00  0.00    +0.148 HD
ENDROOT
BRANCH  11  13
ATOM     13  C   UNL     1      -4.247  -2.594  -3.552  0.00  0.00    +0.039 A 
ATOM     14  C   UNL     1      -3.577  -3.810  -3.517  0.00  0.00    +0.026 A 
ATOM     15  C   UNL     1      -2.886  -4.248  -4.630  0.00  0.00    +0.034 A 
ATOM     16  C   UNL     1      -2.861  -3.478  -5.778  0.00  0.00    +0.126 A 
ATOM     17  C   UNL     1      -3.527  -2.267  -5.816  0.00  0.00    +0.034 A 
ATOM     18  C   UNL     1      -4.224  -1.825  -4.709  0.00  0.00    +0.026 A 
BRANCH  16  19
ATOM     19  N   UNL     1      -2.119  -3.951  -6.968  0.00  0.00    +0.056 N 
ATOM     20  O   UNL     1      -1.536  -5.010  -6.936  0.00  0.00    -0.126 OA
ATOM     21  O   UNL     1      -2.096  -3.279  -7.973  0.00  0.00    -0.126 OA
ENDBRANCH  16  19
ENDBRANCH  11  13
BRANCH   1  23
ATOM     22  C   UNL     1      -2.275  -1.044  -0.540  0.00  0.00    +0.005 C 
ATOM     23  C   UNL     1      -3.555  -1.442  -0.575  0.00  0.00    +0.015 C 
BRANCH  22  26
ATOM     24  C   UNL     1      -2.059  -3.951   0.732  0.00  0.00    +0.035 C 
ATOM     25  C   UNL     1      -1.701  -2.647   1.448  0.00  0.00    +0.107 C 
ATOM     26  C   UNL     1      -1.401  -1.562   0.438  0.00  0.00    -0.017 C 
ATOM     27  C   UNL     1      -0.086  -1.184   0.674  0.00  0.00    +0.003 A 
ATOM     28  C   UNL     1       0.758  -0.227   0.063  0.00  0.00    +0.010 A 
ATOM     29  C   UNL     1       2.028  -0.068   0.510  0.00  0.00    +0.001 A 
ATOM     30  C   UNL     1       2.534  -0.830   1.568  0.00  0.00    +0.002 A 
ATOM     31  C   UNL     1       1.785  -1.764   2.200  0.00  0.00    +0.026 A 
ATOM     32  C   UNL     1       0.444  -1.989   1.790  0.00  0.00    +0.043 A 
ATOM     33  N   UNL     1      -0.475  -2.822   2.233  0.00  0.00    -0.378 N 
ATOM     34  H   UNL     1      -0.359  -3.452   2.961  0.00  0.00    +0.160 HD
ENDBRANCH  22  26
ENDBRANCH   1  23
TORSDOF 4
