REMARK  Name = ZINC64006478
REMARK  6 active torsions:
REMARK  status: ('A' for Active; 'I' for Inactive)
REMARK    1  A    between atoms: C_1  and  O_2
REMARK    2  A    between atoms: O_2  and  C_3
REMARK    3  A    between atoms: C_6  and  C_8
REMARK    4  A    between atoms: C_14  and  C_17
REMARK    5  A    between atoms: N_19  and  C_20
REMARK    6  A    between atoms: C_24  and  C_26
REMARK                            x       y       z     vdW  Elec       q    Type
REMARK                         _______ _______ _______ _____ _____    ______ ____
ROOT
ATOM      1  C   UNL     1      -8.398   2.067   1.755  0.00  0.00    +0.222 C 
ATOM      2  O   UNL     1      -8.720   3.229   1.890  0.00  0.00    -0.275 OA
ATOM      3  N   UNL     1      -9.344   1.110   1.678  0.00  0.00    -0.285 N 
ATOM      4  H   UNL     1      -9.086   0.175   1.648  0.00  0.00    +0.155 HD
ENDROOT
BRANCH   1  11
ATOM      5  C   UNL     1      -4.743  -0.463  -0.054  0.00  0.00    +0.282 C 
ATOM      6  O   UNL     1      -5.517  -1.373  -0.288  0.00  0.00    -0.267 OA
ATOM      7  N   UNL     1      -5.216   0.770   0.215  0.00  0.00    -0.294 N 
ATOM      8  C   UNL     1      -4.295   1.901   0.397  0.00  0.00    +0.108 C 
ATOM      9  C   UNL     1      -4.601   2.575   1.738  0.00  0.00    +0.020 C 
ATOM     10  C   UNL     1      -6.083   2.957   1.786  0.00  0.00    +0.016 C 
ATOM     11  C   UNL     1      -6.940   1.694   1.674  0.00  0.00    +0.093 C 
ATOM     12  C   UNL     1      -6.661   1.011   0.327  0.00  0.00    +0.121 C 
BRANCH   5  16
ATOM     13  C   UNL     1      -1.135  -0.361   0.001  0.00  0.00    +0.287 A 
ATOM     14  C   UNL     1      -1.311  -1.702  -0.150  0.00  0.00    +0.091 A 
ATOM     15  C   UNL     1      -2.690  -1.935  -0.192  0.00  0.00    +0.058 A 
ATOM     16  C   UNL     1      -3.303  -0.708  -0.064  0.00  0.00    +0.194 A 
ATOM     17  O   UNL     1      -2.336   0.230   0.057  0.00  0.00    -0.420 OA
BRANCH  13  19
ATOM     18  C   UNL     1       0.031   1.691   0.249  0.00  0.00    +0.280 C 
ATOM     19  O   UNL     1       0.059   0.272   0.086  0.00  0.00    -0.467 OA
ENDBRANCH  13  19
ENDBRANCH   5  16
ENDBRANCH   1  11
BRANCH   3  20
ATOM     20  C   UNL     1     -10.697   1.465   1.642  0.00  0.00    +0.034 A 
ATOM     21  C   UNL     1     -11.092   2.638   1.013  0.00  0.00    +0.023 A 
ATOM     22  C   UNL     1     -12.428   2.986   0.979  0.00  0.00    +0.002 A 
ATOM     23  C   UNL     1     -13.372   2.167   1.571  0.00  0.00    +0.006 A 
ATOM     24  C   UNL     1     -12.982   0.998   2.199  0.00  0.00    -0.020 A 
ATOM     25  C   UNL     1     -11.648   0.641   2.230  0.00  0.00    +0.029 A 
BRANCH  24  26
ATOM     26  C   UNL     1     -14.014   0.108   2.843  0.00  0.00    +0.133 C 
ATOM     27  C   UNL     1     -14.441   0.685   4.174  0.00  0.00    +0.012 C 
ATOM     28  C   UNL     1     -15.768   0.925   4.070  0.00  0.00    -0.004 A 
ATOM     29  C   UNL     1     -16.756   1.475   5.006  0.00  0.00    +0.010 A 
ATOM     30  C   UNL     1     -18.042   1.597   4.606  0.00  0.00    +0.001 A 
ATOM     31  C   UNL     1     -18.454   1.214   3.323  0.00  0.00    +0.002 A 
ATOM     32  C   UNL     1     -17.606   0.701   2.407  0.00  0.00    +0.026 A 
ATOM     33  C   UNL     1     -16.229   0.528   2.720  0.00  0.00    +0.043 A 
ATOM     34  N   UNL     1     -15.225   0.059   2.017  0.00  0.00    -0.374 N 
ATOM     35  H   UNL     1     -15.275  -0.266   1.104  0.00  0.00    +0.161 HD
ENDBRANCH  24  26
ENDBRANCH   3  20
TORSDOF 5
