REMARK  Name = ZINC08382958
REMARK  3 active torsions:
REMARK  status: ('A' for Active; 'I' for Inactive)
REMARK    1  A    between atoms: C_1  and  C_2
REMARK    2  A    between atoms: C_11  and  S_15
REMARK    3  A    between atoms: S_15  and  C_16
REMARK                            x       y       z     vdW  Elec       q    Type
REMARK                         _______ _______ _______ _____ _____    ______ ____
ROOT
ATOM      1  C   UNL     1       3.570   2.080   1.280  0.00  0.00    +0.008 C 
ATOM      2  C   UNL     1       2.214   1.385   1.136  0.00  0.00    -0.009 C 
ATOM      3  C   UNL     1       1.421   2.038  -0.001  0.00  0.00    +0.008 C 
ATOM      4  C   UNL     1      -0.019   1.522   0.010  0.00  0.00    +0.037 C 
ATOM      5  C   UNL     1       0.002  -0.004   0.002  0.00  0.00    -0.025 A 
ATOM      6  C   UNL     1       1.119  -0.678   0.361  0.00  0.00    -0.004 A 
ATOM      7  S   UNL     1       0.698  -2.396   0.205  0.00  0.00    -0.073 S 
ATOM      8  C   UNL     1      -0.969  -2.212  -0.338  0.00  0.00    +0.113 A 
ATOM      9  C   UNL     1      -1.148  -0.805  -0.382  0.00  0.00    +0.043 A 
ATOM     10  C   UNL     1      -2.427  -0.332  -0.794  0.00  0.00    +0.116 A 
ATOM     11  N   UNL     1      -3.323  -1.271  -1.096  0.00  0.00    -0.228 NA
ATOM     12  C   UNL     1      -3.084  -2.565  -1.032  0.00  0.00    +0.223 A 
ATOM     13  N   UNL     1      -1.915  -3.072  -0.656  0.00  0.00    -0.228 NA
ATOM     14  C   UNL     1       2.428  -0.096   0.797  0.00  0.00    +0.046 C 
ENDROOT
BRANCH  10  15
ATOM     15  S   UNL     1      -2.801   1.387  -0.898  0.00  0.00    -0.030 S 
BRANCH  15  16
ATOM     16  C   UNL     1      -4.474   1.303  -1.445  0.00  0.00    +0.190 A 
ATOM     17  N   UNL     1      -5.297   2.362  -1.703  0.00  0.00    -0.209 NA
ATOM     18  C   UNL     1      -6.487   1.818  -2.096  0.00  0.00    +0.245 A 
ATOM     19  N   UNL     1      -6.354   0.522  -2.056  0.00  0.00    -0.160 NA
ATOM     20  N   UNL     1      -5.164   0.212  -1.681  0.00  0.00    -0.254 N 
ATOM     21  H   UNL     1      -4.870  -0.844  -1.603  0.00  0.00    +0.191 HD
ENDBRANCH  15  16
ENDBRANCH  10  15
TORSDOF 2
