REMARK  Name = ZINC08908286
REMARK  7 active torsions:
REMARK  status: ('A' for Active; 'I' for Inactive)
REMARK    1  A    between atoms: C_1  and  C_2
REMARK    2  A    between atoms: C_2  and  C_3
REMARK    3  A    between atoms: C_3  and  C_4
REMARK    4  A    between atoms: C_4  and  C_6
REMARK    5  A    between atoms: C_4  and  C_7
REMARK    6  A    between atoms: N_9  and  C_10
REMARK    7  A    between atoms: C_13  and  C_16
REMARK                            x       y       z     vdW  Elec       q    Type
REMARK                         _______ _______ _______ _____ _____    ______ ____
ROOT
ATOM      1  C   UNL     1      -2.110   5.760   3.979  0.00  0.00    +0.033 A 
ATOM      2  C   UNL     1      -2.519   4.807   4.906  0.00  0.00    +0.024 A 
ATOM      3  C   UNL     1      -3.145   5.199   6.068  0.00  0.00    +0.015 A 
ATOM      4  C   UNL     1      -3.381   6.556   6.309  0.00  0.00    +0.037 A 
ATOM      5  C   UNL     1      -2.974   7.510   5.372  0.00  0.00    +0.015 A 
ATOM      6  C   UNL     1      -2.342   7.110   4.216  0.00  0.00    +0.024 A 
ENDROOT
BRANCH   4   7
ATOM      7  C   UNL     1      -4.058   6.979   7.549  0.00  0.00    +0.232 A 
ATOM      8  N   UNL     1      -4.428   6.057   8.399  0.00  0.00    -0.212 NA
ATOM      9  C   UNL     1      -5.050   6.374   9.560  0.00  0.00    +0.082 A 
ATOM     10  C   UNL     1      -5.443   5.395  10.474  0.00  0.00    +0.029 A 
ATOM     11  C   UNL     1      -6.077   5.766  11.639  0.00  0.00    +0.002 A 
ATOM     12  C   UNL     1      -6.330   7.103  11.917  0.00  0.00    +0.001 A 
ATOM     13  C   UNL     1      -5.951   8.088  11.030  0.00  0.00    +0.017 A 
ATOM     14  C   UNL     1      -5.309   7.734   9.846  0.00  0.00    +0.085 A 
ATOM     15  C   UNL     1      -4.882   8.739   8.861  0.00  0.00    +0.348 A 
ATOM     16  O   UNL     1      -5.075   9.926   9.046  0.00  0.00    -0.244 OA
ATOM     17  O   UNL     1      -4.266   8.293   7.744  0.00  0.00    -0.403 OA
ENDBRANCH   4   7
BRANCH   1  20
ATOM     18  C   UNL     1      -0.661   4.280   2.813  0.00  0.00    +0.220 C 
ATOM     19  O   UNL     1      -0.413   3.716   3.858  0.00  0.00    -0.275 OA
ATOM     20  N   UNL     1      -1.470   5.359   2.805  0.00  0.00    -0.285 N 
ATOM     21  H   UNL     1      -1.608   5.856   1.984  0.00  0.00    +0.155 HD
BRANCH  18  22
ATOM     22  C   UNL     1      -0.065   3.776   1.524  0.00  0.00    +0.072 C 
ATOM     23  C   UNL     1      -1.188   3.389   0.560  0.00  0.00    +0.017 C 
BRANCH  22  24
ATOM     24  C   UNL     1       0.807   2.552   1.810  0.00  0.00    +0.012 C 
BRANCH  24  26
ATOM     25  C   UNL     1       2.383   0.891   0.810  0.00  0.00    +0.004 C 
ATOM     26  C   UNL     1       1.511   2.116   0.524  0.00  0.00    -0.003 C 
ENDBRANCH  24  26
ENDBRANCH  22  24
ENDBRANCH  18  22
ENDBRANCH   1  20
TORSDOF 5
