REMARK  Name = ZINC39530399
REMARK  8 active torsions:
REMARK  status: ('A' for Active; 'I' for Inactive)
REMARK    1  A    between atoms: C_4  and  C_7
REMARK    2  A    between atoms: C_7  and  C_8
REMARK    3  A    between atoms: N_11  and  C_15
REMARK    4  A    between atoms: C_18  and  C_31
REMARK    5  A    between atoms: C_20  and  S_21
REMARK    6  A    between atoms: S_21  and  O_24
REMARK    7  A    between atoms: O_24  and  C_25
REMARK    8  A    between atoms: C_36  and  O_37
REMARK                            x       y       z     vdW  Elec       q    Type
REMARK                         _______ _______ _______ _____ _____    ______ ____
ROOT
ATOM      1  C   UNL     1       5.825  -3.542   2.864  0.00  0.00    +0.058 A 
ATOM      2  C   UNL     1       7.019  -4.173   2.534  0.00  0.00    +0.026 A 
ATOM      3  C   UNL     1       7.478  -5.225   3.298  0.00  0.00    +0.010 A 
ATOM      4  C   UNL     1       6.744  -5.656   4.402  0.00  0.00    -0.012 A 
ATOM      5  C   UNL     1       5.547  -5.022   4.731  0.00  0.00    +0.041 A 
ATOM      6  C   UNL     1       5.094  -3.967   3.967  0.00  0.00    +0.150 A 
ENDROOT
BRANCH   1   9
ATOM      7  C   UNL     1       3.408  -1.957   0.728  0.00  0.00    -0.050 C 
ATOM      8  C   UNL     1       4.741  -2.711   0.776  0.00  0.00    +0.089 C 
ATOM      9  N   UNL     1       5.363  -2.477   2.088  0.00  0.00    -0.332 N 
ATOM     10  C   UNL     1       5.482  -1.090   2.562  0.00  0.00    +0.086 C 
ATOM     11  C   UNL     1       4.114  -0.412   2.430  0.00  0.00    -0.063 C 
ATOM     12  N   UNL     1       3.636  -0.542   1.048  0.00  0.00    +0.383 N 
ATOM     13  H   UNL     1       4.326  -0.163   0.417  0.00  0.00    -0.085 HD
ATOM     14  H   UNL     1       2.772  -0.032   0.943  0.00  0.00    -0.085 HD
BRANCH   7  15
ATOM     15  C   UNL     1       2.806  -2.073  -0.674  0.00  0.00    +0.021 C 
BRANCH  15  19
ATOM     16  C   UNL     1      -1.066  -0.270  -0.717  0.00  0.00    +0.000 A 
ATOM     17  C   UNL     1       0.053   0.488  -1.007  0.00  0.00    +0.000 A 
ATOM     18  C   UNL     1       1.306  -0.095  -0.993  0.00  0.00    +0.003 A 
ATOM     19  C   UNL     1       1.440  -1.437  -0.688  0.00  0.00    -0.049 A 
ATOM     20  C   UNL     1       0.322  -2.195  -0.397  0.00  0.00    +0.003 A 
ATOM     21  C   UNL     1      -0.932  -1.612  -0.412  0.00  0.00    +0.000 A 
ENDBRANCH  15  19
ENDBRANCH   7  15
ENDBRANCH   1   9
BRANCH   4  22
ATOM     22  C   UNL     1       7.235  -6.788   5.225  0.00  0.00    +0.024 A 
ATOM     23  C   UNL     1       7.303  -6.667   6.611  0.00  0.00    +0.012 A 
ATOM     24  C   UNL     1       7.761  -7.723   7.372  0.00  0.00    +0.001 A 
ATOM     25  C   UNL     1       8.154  -8.902   6.764  0.00  0.00    +0.004 A 
ATOM     26  C   UNL     1       8.090  -9.033   5.390  0.00  0.00    +0.046 A 
ATOM     27  C   UNL     1       7.627  -7.983   4.614  0.00  0.00    +0.125 A 
BRANCH  27  28
ATOM     28  O   UNL     1       7.558  -8.112   3.263  0.00  0.00    -0.506 OA
ATOM     29  H   UNL     1       8.364  -7.842   2.800  0.00  0.00    +0.292 HD
ENDBRANCH  27  28
ENDBRANCH   4  22
BRANCH   6  30
ATOM     30  S   UNL     1       3.585  -3.160   4.386  0.00  0.00    +0.153 S 
ATOM     31  O   UNL     1       2.829  -3.065   3.187  0.00  0.00    -0.131 OA
ATOM     32  O   UNL     1       3.089  -3.806   5.550  0.00  0.00    -0.131 OA
BRANCH  30  33
ATOM     33  O   UNL     1       3.934  -1.736   4.794  0.00  0.00    -0.342 OA
BRANCH  33  34
ATOM     34  C   UNL     1       4.462  -1.632   6.042  0.00  0.00    +0.157 A 
ATOM     35  C   UNL     1       3.628  -1.464   7.138  0.00  0.00    +0.048 A 
ATOM     36  C   UNL     1       4.167  -1.359   8.405  0.00  0.00    +0.004 A 
ATOM     37  C   UNL     1       5.537  -1.422   8.583  0.00  0.00    +0.000 A 
ATOM     38  C   UNL     1       6.370  -1.589   7.492  0.00  0.00    +0.004 A 
ATOM     39  C   UNL     1       5.836  -1.701   6.223  0.00  0.00    +0.048 A 
ENDBRANCH  33  34
ENDBRANCH  30  33
ENDBRANCH   6  30
TORSDOF 8
