REMARK  Name = ZINC08897841
REMARK  7 active torsions:
REMARK  status: ('A' for Active; 'I' for Inactive)
REMARK    1  A    between atoms: C_1  and  C_2
REMARK    2  A    between atoms: C_3  and  C_30
REMARK    3  A    between atoms: C_11  and  S_13
REMARK    4  A    between atoms: S_13  and  C_14
REMARK    5  A    between atoms: C_14  and  C_15
REMARK    6  A    between atoms: N_17  and  C_18
REMARK    7  A    between atoms: C_19  and  C_27
REMARK                            x       y       z     vdW  Elec       q    Type
REMARK                         _______ _______ _______ _____ _____    ______ ____
ROOT
ATOM      1  C   UNL     1      -4.098  -0.051   0.039  0.00  0.00    +0.228 C 
ATOM      2  O   UNL     1      -4.291  -1.249   0.035  0.00  0.00    -0.275 OA
ATOM      3  N   UNL     1      -5.144   0.799   0.053  0.00  0.00    -0.279 N 
ATOM      4  H   UNL     1      -4.990   1.757   0.057  0.00  0.00    +0.155 HD
ENDROOT
BRANCH   3   5
ATOM      5  C   UNL     1      -6.439   0.305   0.063  0.00  0.00    +0.084 A 
ATOM      6  C   UNL     1      -7.632   1.014   0.083  0.00  0.00    +0.068 A 
ATOM      7  C   UNL     1      -8.868   0.250   0.086  0.00  0.00    -0.023 A 
ATOM      8  C   UNL     1      -8.714  -1.092   0.077  0.00  0.00    -0.004 A 
ATOM      9  S   UNL     1      -6.962  -1.347   0.059  0.00  0.00    -0.077 S 
ATOM     10  C   UNL     1      -9.797  -2.126   0.084  0.00  0.00    +0.043 C 
ATOM     11  C   UNL     1     -11.115  -1.443   0.478  0.00  0.00    +0.005 C 
ATOM     12  C   UNL     1     -11.276  -0.165  -0.351  0.00  0.00    +0.005 C 
ATOM     13  C   UNL     1     -10.255   0.880   0.102  0.00  0.00    +0.037 C 
BRANCH   6  14
ATOM     14  C   UNL     1      -7.645   2.480   0.098  0.00  0.00    +0.244 C 
ATOM     15  O   UNL     1      -7.663   3.099  -0.950  0.00  0.00    -0.270 OA
ATOM     16  N   UNL     1      -7.638   3.143   1.271  0.00  0.00    -0.325 N 
ATOM     17  H   UNL     1      -7.623   2.650   2.106  0.00  0.00    +0.145 HD
ATOM     18  H   UNL     1      -7.646   4.113   1.281  0.00  0.00    +0.145 HD
ENDBRANCH   6  14
ENDBRANCH   3   5
BRANCH   1  19
ATOM     19  C   UNL     1      -2.690   0.486   0.029  0.00  0.00    +0.173 C 
BRANCH  19  20
ATOM     20  S   UNL     1      -1.519  -0.894   0.011  0.00  0.00    -0.078 S 
BRANCH  20  31
ATOM     21  C   UNL     1       4.917   1.761  -0.034  0.00  0.00    +0.045 C 
ATOM     22  C   UNL     1       3.509   2.297  -0.019  0.00  0.00    -0.026 A 
ATOM     23  C   UNL     1       3.286   3.619  -0.011  0.00  0.00    -0.008 A 
ATOM     24  S   UNL     1       1.508   3.740   0.007  0.00  0.00    -0.073 S 
ATOM     25  C   UNL     1       1.114   2.010   0.002  0.00  0.00    +0.117 A 
ATOM     26  C   UNL     1       2.376   1.387  -0.013  0.00  0.00    +0.075 A 
ATOM     27  C   UNL     1       2.364  -0.043  -0.021  0.00  0.00    +0.261 A 
ATOM     28  O   UNL     1       3.409  -0.670  -0.034  0.00  0.00    -0.267 OA
ATOM     29  N   UNL     1       1.183  -0.689  -0.013  0.00  0.00    -0.301 N 
ATOM     30  H   UNL     1       1.170  -1.659  -0.018  0.00  0.00    +0.171 HD
ATOM     31  C   UNL     1       0.002  -0.004   0.002  0.00  0.00    +0.170 A 
ATOM     32  N   UNL     1      -0.016   1.313   0.009  0.00  0.00    -0.216 NA
ATOM     33  C   UNL     1       4.298   4.736  -0.015  0.00  0.00    +0.052 C 
ENDBRANCH  20  31
ENDBRANCH  19  20
ENDBRANCH   1  19
TORSDOF 5
