REMARK  Name = ZINC37199398
REMARK  7 active torsions:
REMARK  status: ('A' for Active; 'I' for Inactive)
REMARK    1  A    between atoms: C_1  and  C_2
REMARK    2  A    between atoms: C_2  and  C_4
REMARK    3  A    between atoms: C_2  and  N_10
REMARK    4  A    between atoms: N_10  and  C_11
REMARK    5  A    between atoms: C_11  and  C_12
REMARK    6  A    between atoms: C_15  and  S_18
REMARK    7  A    between atoms: S_18  and  N_21
REMARK                            x       y       z     vdW  Elec       q    Type
REMARK                         _______ _______ _______ _____ _____    ______ ____
ROOT
ATOM      1  C   UNL     1      -0.040  -0.119   2.398  0.00  0.00    -0.046 C 
ENDROOT
BRANCH   1   2
ATOM      2  C   UNL     1       0.689  -0.618   3.619  0.00  0.00    -0.064 A 
ATOM      3  C   UNL     1       0.422  -1.880   4.115  0.00  0.00    +0.003 A 
ATOM      4  C   UNL     1       1.090  -2.338   5.235  0.00  0.00    +0.029 A 
ATOM      5  C   UNL     1       2.026  -1.534   5.858  0.00  0.00    +0.105 A 
ATOM      6  C   UNL     1       2.294  -0.272   5.361  0.00  0.00    +0.029 A 
ATOM      7  C   UNL     1       1.629   0.184   4.239  0.00  0.00    +0.003 A 
BRANCH   5   8
ATOM      8  S   UNL     1       2.878  -2.117   7.286  0.00  0.00    +0.056 S 
ATOM      9  O   UNL     1       3.306  -0.967   8.002  0.00  0.00    -0.153 OA
ATOM     10  O   UNL     1       2.053  -3.115   7.872  0.00  0.00    -0.153 OA
BRANCH   8  11
ATOM     11  N   UNL     1       4.248  -2.884   6.760  0.00  0.00    -0.204 NA
ATOM     12  H   UNL     1       4.440  -2.938   5.811  0.00  0.00    +0.144 HD
ATOM     13  H   UNL     1       4.859  -3.280   7.402  0.00  0.00    +0.144 HD
ENDBRANCH   8  11
ENDBRANCH   5   8
ENDBRANCH   1   2
BRANCH   1  14
ATOM     14  N   UNL     1       0.713  -0.491   1.192  0.00  0.00    +0.386 N 
ATOM     15  H   UNL     1       0.798  -1.495   1.145  0.00  0.00    -0.085 HD
ATOM     16  H   UNL     1       1.632  -0.076   1.228  0.00  0.00    -0.085 HD
BRANCH  14  18
ATOM     17  C   UNL     1      -0.019   1.526   0.010  0.00  0.00    -0.008 C 
ATOM     18  C   UNL     1       0.002  -0.004   0.002  0.00  0.00    -0.036 C 
BRANCH  18  19
ATOM     19  C   UNL     1       0.707  -0.490  -1.238  0.00  0.00    -0.010 A 
ATOM     20  C   UNL     1       0.180  -1.028  -2.365  0.00  0.00    +0.026 A 
ATOM     21  C   UNL     1       1.029  -1.406  -3.388  0.00  0.00    +0.023 A 
ATOM     22  C   UNL     1       2.364  -1.229  -3.234  0.00  0.00    +0.046 A 
ATOM     23  S   UNL     1       2.454  -0.500  -1.607  0.00  0.00    -0.102 S 
ATOM     24 BR   UNL     1      -1.690  -1.257  -2.535  0.00  0.00    -0.050 Br
ENDBRANCH  18  19
ENDBRANCH  14  18
ENDBRANCH   1  14
TORSDOF 6
