REMARK  Name = ZINC09013020
REMARK  8 active torsions:
REMARK  status: ('A' for Active; 'I' for Inactive)
REMARK    1  A    between atoms: C_1  and  C_2
REMARK    2  A    between atoms: C_2  and  C_35
REMARK    3  A    between atoms: C_6  and  C_25
REMARK    4  A    between atoms: C_8  and  C_23
REMARK    5  A    between atoms: C_9  and  S_11
REMARK    6  A    between atoms: S_11  and  C_12
REMARK    7  A    between atoms: C_12  and  C_13
REMARK    8  A    between atoms: N_15  and  C_16
REMARK                            x       y       z     vdW  Elec       q    Type
REMARK                         _______ _______ _______ _____ _____    ______ ____
ROOT
ATOM      1  C   UNL     1      -0.046   1.508   0.073  0.00  0.00    +0.011 C 
ATOM      2  C   UNL     1      -0.026  -0.022   0.061  0.00  0.00    -0.023 C 
ATOM      3  C   UNL     1      -1.461  -0.555   0.084  0.00  0.00    +0.058 C 
ATOM      4  C   UNL     1      -1.441  -2.063   0.122  0.00  0.00    +0.016 C 
ATOM      5  C   UNL     1      -0.434  -2.730   0.727  0.00  0.00    +0.024 C 
ATOM      6  C   UNL     1      -0.422  -4.237   0.775  0.00  0.00    +0.097 C 
ATOM      7  C   UNL     1      -1.349  -4.819  -0.252  0.00  0.00    +0.069 C 
ATOM      8  C   UNL     1      -2.323  -4.064  -0.827  0.00  0.00    +0.080 C 
ATOM      9  N   UNL     1      -2.468  -2.742  -0.475  0.00  0.00    -0.311 N 
ATOM     10  C   UNL     1       0.634  -2.040   1.326  0.00  0.00    +0.162 C 
ATOM     11  O   UNL     1       1.519  -2.670   1.871  0.00  0.00    -0.292 OA
ATOM     12  C   UNL     1       0.704  -0.538   1.305  0.00  0.00    +0.086 C 
ATOM     13  C   UNL     1       0.690  -0.517  -1.198  0.00  0.00    +0.011 C 
ATOM     14  H   UNL     1      -3.306  -2.286  -0.653  0.00  0.00    +0.152 HD
ENDROOT
BRANCH   6  15
ATOM     15  C   UNL     1      -0.857  -4.690   2.145  0.00  0.00    -0.035 A 
ATOM     16  C   UNL     1      -2.110  -4.351   2.620  0.00  0.00    +0.006 A 
ATOM     17  C   UNL     1      -2.509  -4.766   3.876  0.00  0.00    +0.020 A 
ATOM     18  C   UNL     1      -1.654  -5.523   4.658  0.00  0.00    +0.041 A 
ATOM     19  C   UNL     1      -0.400  -5.863   4.182  0.00  0.00    +0.020 A 
ATOM     20  C   UNL     1      -0.005  -5.451   2.924  0.00  0.00    +0.006 A 
ATOM     21 CL   UNL     1      -2.155  -6.045   6.237  0.00  0.00    -0.084 Cl
ENDBRANCH   6  15
BRANCH   7  22
ATOM     22  C   UNL     1      -1.204  -6.192  -0.633  0.00  0.00    +0.098 C 
ATOM     23  N   UNL     1      -1.090  -7.281  -0.935  0.00  0.00    -0.191 NA
ENDBRANCH   7  22
BRANCH   8  24
ATOM     24  S   UNL     1      -3.400  -4.780  -2.023  0.00  0.00    -0.100 S 
BRANCH  24  25
ATOM     25  C   UNL     1      -4.503  -3.418  -2.491  0.00  0.00    +0.171 C 
BRANCH  25  26
ATOM     26  C   UNL     1      -5.489  -3.902  -3.523  0.00  0.00    +0.227 C 
ATOM     27  O   UNL     1      -5.451  -5.052  -3.905  0.00  0.00    -0.275 OA
ATOM     28  N   UNL     1      -6.412  -3.056  -4.021  0.00  0.00    -0.283 N 
ATOM     29  H   UNL     1      -6.485  -2.155  -3.670  0.00  0.00    +0.155 HD
BRANCH  28  30
ATOM     30  C   UNL     1      -7.267  -3.478  -5.047  0.00  0.00    +0.069 A 
ATOM     31  C   UNL     1      -7.708  -4.794  -5.088  0.00  0.00    +0.026 A 
ATOM     32  C   UNL     1      -8.552  -5.208  -6.100  0.00  0.00    +0.002 A 
ATOM     33  C   UNL     1      -8.958  -4.314  -7.074  0.00  0.00    +0.003 A 
ATOM     34  C   UNL     1      -8.521  -3.002  -7.038  0.00  0.00    +0.040 A 
ATOM     35  C   UNL     1      -7.681  -2.580  -6.024  0.00  0.00    +0.144 A 
ATOM     36  F   UNL     1      -7.258  -1.297  -5.986  0.00  0.00    -0.204 F 
ENDBRANCH  28  30
ENDBRANCH  25  26
ENDBRANCH  24  25
ENDBRANCH   8  24
TORSDOF 6
