REMARK  Name = ZINC38545690
REMARK  12 active torsions:
REMARK  status: ('A' for Active; 'I' for Inactive)
REMARK    1  A    between atoms: C_1  and  C_2
REMARK    2  A    between atoms: C_7  and  C_9
REMARK    3  A    between atoms: C_7  and  C_10
REMARK    4  A    between atoms: N_11  and  C_13
REMARK    5  A    between atoms: C_21  and  N_37
REMARK    6  A    between atoms: C_27  and  O_35
REMARK    7  A    between atoms: C_28  and  O_33
REMARK    8  A    between atoms: C_29  and  O_31
REMARK    9  A    between atoms: O_31  and  C_32
REMARK   10  A    between atoms: O_33  and  C_34
REMARK   11  A    between atoms: O_35  and  C_36
REMARK   12  A    between atoms: N_37  and  C_38
REMARK                            x       y       z     vdW  Elec       q    Type
REMARK                         _______ _______ _______ _____ _____    ______ ____
ROOT
ATOM      1  C   UNL     1      -0.094  -2.420  -3.266  0.00  0.00    +0.077 A 
ATOM      2  C   UNL     1      -0.832  -3.565  -3.302  0.00  0.00    +0.027 A 
ATOM      3  C   UNL     1      -0.653  -4.657  -4.066  0.00  0.00    +0.011 A 
ATOM      4  C   UNL     1       0.257  -4.970  -5.043  0.00  0.00    -0.012 A 
ATOM      5  C   UNL     1       1.268  -4.140  -5.525  0.00  0.00    -0.050 A 
ATOM      6  C   UNL     1       1.569  -2.921  -5.041  0.00  0.00    +0.055 A 
ATOM      7  C   UNL     1       1.021  -2.152  -4.056  0.00  0.00    +0.200 A 
ATOM      8  O   UNL     1       1.587  -1.091  -3.834  0.00  0.00    -0.286 OA
ATOM      9  C   UNL     1       2.100  -4.621  -6.696  0.00  0.00    -0.040 C 
ATOM     10  C   UNL     1       3.176  -5.592  -6.257  0.00  0.00    -0.007 C 
ATOM     11  C   UNL     1       2.620  -6.622  -5.276  0.00  0.00    +0.035 C 
ATOM     12  C   UNL     1       1.290  -7.129  -5.771  0.00  0.00    -0.033 A 
ATOM     13  C   UNL     1       0.155  -6.333  -5.646  0.00  0.00    +0.031 A 
ATOM     14  C   UNL     1      -1.086  -6.802  -6.087  0.00  0.00    +0.173 A 
ATOM     15  C   UNL     1      -1.175  -8.066  -6.658  0.00  0.00    +0.204 A 
ATOM     16  C   UNL     1      -0.035  -8.850  -6.787  0.00  0.00    +0.165 A 
ATOM     17  C   UNL     1       1.195  -8.380  -6.343  0.00  0.00    +0.054 A 
ENDROOT
BRANCH   1  27
ATOM     18  C   UNL     1      -0.641   2.112  -1.243  0.00  0.00    +0.013 C 
ATOM     19  C   UNL     1      -0.618   0.587  -1.061  0.00  0.00    -0.014 C 
ATOM     20  C   UNL     1      -2.033  -0.043  -1.177  0.00  0.00    +0.030 C 
ATOM     21  C   UNL     1      -1.638  -1.517  -1.448  0.00  0.00    +0.075 C 
ATOM     22  C   UNL     1      -1.172  -2.112  -0.122  0.00  0.00    +0.028 C 
ATOM     23  C   UNL     1      -0.053  -1.332   0.544  0.00  0.00    -0.033 C 
ATOM     24  C   UNL     1      -0.041   0.163   0.289  0.00  0.00    +0.014 C 
ATOM     25  C   UNL     1       1.303  -1.943   0.163  0.00  0.00    +0.011 C 
ATOM     26  C   UNL     1      -0.207  -1.533   2.073  0.00  0.00    +0.011 C 
ATOM     27  N   UNL     1      -0.490  -1.438  -2.373  0.00  0.00    -0.323 N 
ATOM     28  C   UNL     1       0.155  -0.128  -2.192  0.00  0.00    +0.112 C 
ENDBRANCH   1  27
BRANCH   9  29
ATOM     29  N   UNL     1       2.734  -3.463  -7.341  0.00  0.00    +0.382 N 
ATOM     30  C   UNL     1       3.413  -3.898  -8.569  0.00  0.00    -0.100 C 
ATOM     31  H   UNL     1       2.030  -2.778  -7.570  0.00  0.00    -0.085 HD
ATOM     32  H   UNL     1       3.408  -3.055  -6.710  0.00  0.00    -0.085 HD
ENDBRANCH   9  29
BRANCH  16  33
ATOM     33  O   UNL     1      -0.123 -10.084  -7.351  0.00  0.00    -0.491 OA
ATOM     34  C   UNL     1       1.086 -10.838  -7.454  0.00  0.00    +0.277 C 
ENDBRANCH  16  33
BRANCH  15  35
ATOM     35  O   UNL     1      -2.378  -8.535  -7.089  0.00  0.00    -0.488 OA
ATOM     36  C   UNL     1      -3.164  -9.267  -6.147  0.00  0.00    +0.277 C 
ENDBRANCH  15  35
BRANCH  14  37
ATOM     37  O   UNL     1      -2.196  -6.029  -5.957  0.00  0.00    -0.491 OA
ATOM     38  C   UNL     1      -2.570  -5.237  -7.085  0.00  0.00    +0.277 C 
ENDBRANCH  14  37
TORSDOF 5
