REMARK  Name = ZINC13096812
REMARK  4 active torsions:
REMARK  status: ('A' for Active; 'I' for Inactive)
REMARK    1  A    between atoms: C_1  and  C_2
REMARK    2  A    between atoms: C_15  and  C_17
REMARK    3  A    between atoms: C_17  and  C_19
REMARK    4  A    between atoms: C_17  and  N_58
REMARK                            x       y       z     vdW  Elec       q    Type
REMARK                         _______ _______ _______ _____ _____    ______ ____
ROOT
ATOM      1  C   UNL     1      -3.378  -0.122  -2.010  0.00  0.00    +0.008 C 
ATOM      2  C   UNL     1      -2.607  -0.159  -0.689  0.00  0.00    -0.009 C 
ATOM      3  C   UNL     1      -1.151   0.247  -0.932  0.00  0.00    +0.008 C 
ATOM      4  C   UNL     1      -0.320  -0.025   0.322  0.00  0.00    +0.037 C 
ATOM      5  C   UNL     1      -0.993   0.643   1.519  0.00  0.00    -0.023 A 
ATOM      6  C   UNL     1      -2.298   1.006   1.456  0.00  0.00    -0.004 A 
ATOM      7  S   UNL     1      -2.654   1.729   3.038  0.00  0.00    -0.073 S 
ATOM      8  C   UNL     1      -1.054   1.544   3.776  0.00  0.00    +0.116 A 
ATOM      9  C   UNL     1      -0.294   0.922   2.761  0.00  0.00    +0.075 A 
ATOM     10  C   UNL     1       1.079   0.631   3.059  0.00  0.00    +0.260 A 
ATOM     11  O   UNL     1       1.819   0.096   2.252  0.00  0.00    -0.267 OA
ATOM     12  N   UNL     1       1.500   0.990   4.295  0.00  0.00    -0.312 N 
ATOM     13  H   UNL     1       2.422   0.812   4.539  0.00  0.00    +0.170 HD
ATOM     14  C   UNL     1       0.695   1.585   5.207  0.00  0.00    +0.097 A 
ATOM     15  N   UNL     1      -0.568   1.867   4.971  0.00  0.00    -0.228 NA
ATOM     16  C   UNL     1      -3.235   0.832   0.301  0.00  0.00    +0.046 C 
ENDROOT
BRANCH  14  17
ATOM     17  C   UNL     1       1.272   1.940   6.553  0.00  0.00    -0.004 C 
ATOM     18  C   UNL     1       1.871   0.689   7.197  0.00  0.00    -0.005 C 
BRANCH  17  28
ATOM     19  C   UNL     1      -0.213   3.807   6.966  0.00  0.00    -0.078 C 
ATOM     20  C   UNL     1      -1.413   4.273   7.795  0.00  0.00    -0.015 C 
ATOM     21  C   UNL     1      -1.014   4.316   9.274  0.00  0.00    -0.011 C 
ATOM     22  C   UNL     1       0.126   5.320   9.457  0.00  0.00    +0.004 C 
ATOM     23  C   UNL     1       0.553   5.349  10.926  0.00  0.00    +0.000 C 
ATOM     24  C   UNL     1       1.034   3.958  11.344  0.00  0.00    +0.000 C 
ATOM     25  C   UNL     1      -0.106   2.953  11.167  0.00  0.00    +0.002 C 
ATOM     26  C   UNL     1      -0.542   2.924   9.702  0.00  0.00    -0.025 C 
ATOM     27  C   UNL     1       0.634   2.496   8.821  0.00  0.00    -0.074 C 
ATOM     28  N   UNL     1       0.186   2.455   7.413  0.00  0.00    +0.386 N 
ATOM     29  H   UNL     1      -0.624   1.828   7.339  0.00  0.00    -0.081 HD
ENDBRANCH  17  28
ENDBRANCH  14  17
TORSDOF 2
