REMARK  Name = ZINC10029226
REMARK  3 active torsions:
REMARK  status: ('A' for Active; 'I' for Inactive)
REMARK    1  A    between atoms: C_11  and  S_13
REMARK    2  A    between atoms: S_13  and  C_14
REMARK    3  A    between atoms: C_14  and  C_15
REMARK                            x       y       z     vdW  Elec       q    Type
REMARK                         _______ _______ _______ _____ _____    ______ ____
ROOT
ATOM      1  C   UNL     1       2.543 -11.013  -2.150  0.00  0.00    +0.001 A 
ATOM      2  C   UNL     1       3.521 -11.989  -2.310  0.00  0.00    +0.002 A 
ATOM      3  C   UNL     1       4.839 -11.653  -2.414  0.00  0.00    +0.028 A 
ATOM      4  C   UNL     1       5.222 -10.306  -2.360  0.00  0.00    +0.072 A 
ATOM      5  C   UNL     1       4.222  -9.319  -2.198  0.00  0.00    +0.014 A 
ATOM      6  C   UNL     1       2.884  -9.691  -2.095  0.00  0.00    +0.011 A 
ATOM      7  C   UNL     1       4.943  -8.038  -2.181  0.00  0.00    +0.061 C 
ATOM      8  C   UNL     1       4.396  -6.748  -2.043  0.00  0.00    +0.218 C 
ATOM      9  N   UNL     1       3.091  -6.449  -1.899  0.00  0.00    -0.202 N 
ATOM     10  N   UNL     1       3.004  -5.052  -1.798  0.00  0.00    -0.135 NA
ATOM     11  C   UNL     1       4.213  -4.573  -1.882  0.00  0.00    +0.274 C 
ATOM     12  O   UNL     1       5.080  -5.593  -2.038  0.00  0.00    -0.415 OA
ATOM     13  C   UNL     1       6.297  -8.381  -2.339  0.00  0.00    +0.125 C 
ATOM     14  N   UNL     1       6.412  -9.685  -2.432  0.00  0.00    -0.254 NA
ATOM     15  H   UNL     1       2.179  -7.061  -1.853  0.00  0.00    +0.178 HD
ENDROOT
BRANCH  11  16
ATOM     16  S   UNL     1       4.643  -2.866  -1.810  0.00  0.00    -0.057 S 
BRANCH  16  17
ATOM     17  C   UNL     1       3.000  -2.136  -1.604  0.00  0.00    +0.174 C 
BRANCH  17  18
ATOM     18  C   UNL     1       3.124  -0.636  -1.517  0.00  0.00    +0.226 C 
ATOM     19  O   UNL     1       4.216  -0.113  -1.587  0.00  0.00    -0.275 OA
ATOM     20  N   UNL     1       2.022   0.123  -1.361  0.00  0.00    -0.301 N 
ATOM     21  C   UNL     1       0.692  -0.496  -1.274  0.00  0.00    +0.108 C 
ATOM     22  C   UNL     1       0.002  -0.004   0.002  0.00  0.00    +0.023 C 
ATOM     23  C   UNL     1      -0.019   1.527   0.010  0.00  0.00    -0.005 C 
ATOM     24  C   UNL     1      -0.726   2.014   1.278  0.00  0.00    +0.004 C 
ATOM     25  C   UNL     1       0.017   1.489   2.508  0.00  0.00    +0.000 C 
ATOM     26  C   UNL     1       1.456   2.009   2.496  0.00  0.00    +0.000 C 
ATOM     27  C   UNL     1       2.163   1.530   1.226  0.00  0.00    +0.005 C 
ATOM     28  C   UNL     1       1.417   2.057  -0.000  0.00  0.00    +0.010 C 
ATOM     29  C   UNL     1       2.126   1.586  -1.273  0.00  0.00    +0.111 C 
ENDBRANCH  17  18
ENDBRANCH  16  17
ENDBRANCH  11  16
TORSDOF 3
