REMARK  Name = ZINC01250123
REMARK  10 active torsions:
REMARK  status: ('A' for Active; 'I' for Inactive)
REMARK    1  A    between atoms: C_1  and  C_2
REMARK    2  A    between atoms: C_2  and  C_3
REMARK    3  A    between atoms: C_2  and  C_4
REMARK    4  A    between atoms: N_14  and  C_28
REMARK    5  A    between atoms: C_15  and  S_17
REMARK    6  A    between atoms: S_17  and  C_18
REMARK    7  A    between atoms: C_18  and  C_19
REMARK    8  A    between atoms: N_21  and  C_22
REMARK    9  A    between atoms: C_28  and  C_29
REMARK   10  A    between atoms: C_29  and  C_30
REMARK                            x       y       z     vdW  Elec       q    Type
REMARK                         _______ _______ _______ _____ _____    ______ ____
ROOT
ATOM      1  C   UNL     1      -1.218  -3.721  -5.708  0.00  0.00    +0.126 C 
ATOM      2  C   UNL     1      -0.980  -2.816  -4.496  0.00  0.00    +0.068 C 
ATOM      3  C   UNL     1       0.062  -1.769  -4.884  0.00  0.00    -0.018 A 
ATOM      4  C   UNL     1       0.840  -1.975  -5.969  0.00  0.00    +0.021 A 
ATOM      5  S   UNL     1       1.885  -0.549  -6.061  0.00  0.00    -0.071 S 
ATOM      6  C   UNL     1       1.274   0.321  -4.639  0.00  0.00    +0.117 A 
ATOM      7  C   UNL     1       0.272  -0.530  -4.139  0.00  0.00    +0.076 A 
ATOM      8  C   UNL     1      -0.407  -0.070  -2.967  0.00  0.00    +0.263 A 
ATOM      9  O   UNL     1      -1.290  -0.741  -2.461  0.00  0.00    -0.267 OA
ATOM     10  N   UNL     1      -0.058   1.114  -2.430  0.00  0.00    -0.287 N 
ATOM     11  C   UNL     1       0.925   1.881  -2.985  0.00  0.00    +0.173 A 
ATOM     12  N   UNL     1       1.571   1.478  -4.061  0.00  0.00    -0.216 NA
ATOM     13  C   UNL     1       0.800  -3.166  -6.875  0.00  0.00    +0.203 C 
ATOM     14  O   UNL     1       0.030  -4.190  -6.226  0.00  0.00    -0.371 OA
ENDROOT
BRANCH   1  16
ATOM     15  C   UNL     1      -2.327  -5.816  -6.499  0.00  0.00    +0.010 C 
ATOM     16  C   UNL     1      -2.074  -4.918  -5.287  0.00  0.00    +0.012 C 
ATOM     17  C   UNL     1      -1.339  -5.715  -4.207  0.00  0.00    +0.010 C 
ENDBRANCH   1  16
BRANCH  11  18
ATOM     18  S   UNL     1       1.341   3.427  -2.248  0.00  0.00    -0.078 S 
BRANCH  18  19
ATOM     19  C   UNL     1       2.653   3.967  -3.373  0.00  0.00    +0.173 C 
BRANCH  19  20
ATOM     20  C   UNL     1       3.176   5.308  -2.926  0.00  0.00    +0.227 C 
ATOM     21  O   UNL     1       2.709   5.846  -1.944  0.00  0.00    -0.275 OA
ATOM     22  N   UNL     1       4.164   5.910  -3.618  0.00  0.00    -0.285 N 
ATOM     23  H   UNL     1       4.584   5.452  -4.362  0.00  0.00    +0.155 HD
BRANCH  22  24
ATOM     24  C   UNL     1       4.583   7.197  -3.262  0.00  0.00    +0.033 A 
ATOM     25  C   UNL     1       4.992   8.092  -4.242  0.00  0.00    +0.023 A 
ATOM     26  C   UNL     1       5.400   9.363  -3.888  0.00  0.00    +0.002 A 
ATOM     27  C   UNL     1       5.412   9.741  -2.558  0.00  0.00    +0.000 A 
ATOM     28  C   UNL     1       5.012   8.851  -1.579  0.00  0.00    +0.002 A 
ATOM     29  C   UNL     1       4.597   7.580  -1.927  0.00  0.00    +0.023 A 
ENDBRANCH  22  24
ENDBRANCH  19  20
ENDBRANCH  18  19
ENDBRANCH  11  18
BRANCH  10  30
ATOM     30  C   UNL     1      -0.750   1.591  -1.230  0.00  0.00    +0.132 C 
BRANCH  30  31
ATOM     31  C   UNL     1      -0.014   1.092   0.015  0.00  0.00    +0.057 C 
BRANCH  31  32
ATOM     32  C   UNL     1      -0.726   1.583   1.250  0.00  0.00    -0.046 A 
ATOM     33  C   UNL     1      -0.374   2.794   1.816  0.00  0.00    +0.004 A 
ATOM     34  C   UNL     1      -1.030   3.246   2.945  0.00  0.00    +0.000 A 
ATOM     35  C   UNL     1      -2.032   2.482   3.514  0.00  0.00    +0.000 A 
ATOM     36  C   UNL     1      -2.381   1.269   2.951  0.00  0.00    +0.000 A 
ATOM     37  C   UNL     1      -1.728   0.819   1.819  0.00  0.00    +0.004 A 
ENDBRANCH  31  32
ENDBRANCH  30  31
ENDBRANCH  10  30
TORSDOF 8
