REMARK  Name = ZINC53782118
REMARK  7 active torsions:
REMARK  status: ('A' for Active; 'I' for Inactive)
REMARK    1  A    between atoms: C_1  and  C_2
REMARK    2  A    between atoms: C_2  and  C_4
REMARK    3  A    between atoms: C_2  and  N_14
REMARK    4  A    between atoms: N_14  and  C_15
REMARK    5  A    between atoms: C_15  and  C_17
REMARK    6  A    between atoms: C_15  and  C_18
REMARK    7  A    between atoms: N_23  and  C_24
REMARK                            x       y       z     vdW  Elec       q    Type
REMARK                         _______ _______ _______ _____ _____    ______ ____
ROOT
ATOM      1  N   UNL     1      -1.376  -0.512   0.012  0.00  0.00    -0.299 NA
ATOM      2  H   UNL     1      -1.426  -1.413   0.464  0.00  0.00    +0.123 HD
ENDROOT
BRANCH   1   4
ATOM      3  C   UNL     1      -0.019   1.526   0.010  0.00  0.00    +0.029 C 
ATOM      4  C   UNL     1       0.002  -0.004   0.002  0.00  0.00    +0.081 C 
BRANCH   4   5
ATOM      5  C   UNL     1       0.731  -0.503   1.223  0.00  0.00    -0.030 A 
ATOM      6  C   UNL     1       0.083  -0.559   2.443  0.00  0.00    +0.005 A 
ATOM      7  C   UNL     1       0.758  -1.015   3.557  0.00  0.00    +0.004 A 
ATOM      8  C   UNL     1       2.083  -1.419   3.462  0.00  0.00    -0.044 A 
ATOM      9  C   UNL     1       2.727  -1.368   2.247  0.00  0.00    -0.044 A 
ATOM     10  C   UNL     1       2.045  -0.911   1.126  0.00  0.00    +0.009 A 
ATOM     11  C   UNL     1       4.157  -1.805   2.067  0.00  0.00    +0.035 C 
ATOM     12  C   UNL     1       4.873  -1.866   3.415  0.00  0.00    +0.005 C 
ATOM     13  C   UNL     1       4.019  -2.696   4.380  0.00  0.00    +0.005 C 
ATOM     14  C   UNL     1       2.762  -1.898   4.719  0.00  0.00    +0.035 C 
ENDBRANCH   4   5
ENDBRANCH   1   4
BRANCH   1  15
ATOM     15  C   UNL     1      -1.924  -0.575  -1.349  0.00  0.00    +0.138 C 
ATOM     16  C   UNL     1      -1.512  -1.895  -2.005  0.00  0.00    +0.034 C 
BRANCH  15  17
ATOM     17  C   UNL     1      -3.428  -0.492  -1.289  0.00  0.00    +0.237 C 
ATOM     18  O   UNL     1      -3.987  -0.391  -0.218  0.00  0.00    -0.274 OA
ATOM     19  N   UNL     1      -4.151  -0.531  -2.426  0.00  0.00    -0.239 N 
ATOM     20  C   UNL     1      -5.495  -0.456  -2.373  0.00  0.00    +0.306 C 
ATOM     21  O   UNL     1      -6.056  -0.354  -1.300  0.00  0.00    -0.252 OA
ATOM     22  N   UNL     1      -6.218  -0.495  -3.510  0.00  0.00    -0.296 N 
ATOM     23  H   UNL     1      -3.703  -0.612  -3.283  0.00  0.00    +0.159 HD
ATOM     24  H   UNL     1      -5.770  -0.576  -4.367  0.00  0.00    +0.151 HD
BRANCH  22  25
ATOM     25  C   UNL     1      -7.679  -0.414  -3.452  0.00  0.00    +0.075 C 
ATOM     26  C   UNL     1      -8.476  -1.371  -4.341  0.00  0.00    +0.024 C 
ATOM     27  C   UNL     1      -8.407   0.117  -4.689  0.00  0.00    +0.024 C 
ENDBRANCH  22  25
ENDBRANCH  15  17
ENDBRANCH   1  15
TORSDOF 5
