REMARK  Name = ZINC53735775
REMARK  6 active torsions:
REMARK  status: ('A' for Active; 'I' for Inactive)
REMARK    1  A    between atoms: C_1  and  C_2
REMARK    2  A    between atoms: C_7  and  N_12
REMARK    3  A    between atoms: C_9  and  C_11
REMARK    4  A    between atoms: C_16  and  N_23
REMARK    5  A    between atoms: C_20  and  C_21
REMARK    6  A    between atoms: C_21  and  O_22
REMARK                            x       y       z     vdW  Elec       q    Type
REMARK                         _______ _______ _______ _____ _____    ______ ____
ROOT
ATOM      1  N   UNL     1       1.719  -2.736   2.433  0.00  0.00    -0.322 N 
ATOM      2  C   UNL     1       1.186  -3.484   3.467  0.00  0.00    +0.069 A 
ATOM      3  C   UNL     1      -0.073  -4.005   3.730  0.00  0.00    +0.030 A 
ATOM      4  C   UNL     1      -0.291  -4.728   4.882  0.00  0.00    +0.025 A 
ATOM      5  C   UNL     1       0.746  -4.939   5.789  0.00  0.00    +0.027 A 
ATOM      6  C   UNL     1       2.005  -4.427   5.541  0.00  0.00    +0.052 A 
ATOM      7  C   UNL     1       2.237  -3.693   4.375  0.00  0.00    +0.091 A 
ATOM      8  N   UNL     1       3.333  -3.076   3.861  0.00  0.00    -0.230 NA
ATOM      9  C   UNL     1       3.030  -2.522   2.724  0.00  0.00    +0.137 A 
ENDROOT
BRANCH   1  15
ATOM     10  C   UNL     1       0.199   1.282  -0.013  0.00  0.00    +0.008 C 
ATOM     11  C   UNL     1       0.229  -0.247  -0.007  0.00  0.00    -0.009 C 
ATOM     12  C   UNL     1      -1.203  -0.786   0.012  0.00  0.00    +0.004 C 
ATOM     13  C   UNL     1      -1.173  -2.316   0.019  0.00  0.00    +0.002 C 
ATOM     14  C   UNL     1      -0.427  -2.805   1.262  0.00  0.00    +0.025 C 
ATOM     15  C   UNL     1       1.005  -2.267   1.243  0.00  0.00    +0.092 C 
ATOM     16  C   UNL     1       0.975  -0.737   1.236  0.00  0.00    +0.012 C 
ATOM     17  C   UNL     1       0.258  -0.236   2.491  0.00  0.00    +0.010 C 
ENDBRANCH   1  15
BRANCH   5  18
ATOM     18  N   UNL     1       0.511  -5.675   6.956  0.00  0.00    -0.358 N 
ATOM     19  H   UNL     1      -0.372  -6.036   7.132  0.00  0.00    +0.142 HD
ATOM     20  H   UNL     1       1.231  -5.824   7.588  0.00  0.00    +0.142 HD
ENDBRANCH   5  18
BRANCH   9  21
ATOM     21  C   UNL     1       3.991  -1.751   1.856  0.00  0.00    +0.230 C 
BRANCH  21  22
ATOM     22  O   UNL     1       4.076  -0.402   2.321  0.00  0.00    -0.387 OA
ATOM     23  H   UNL     1       4.679   0.154   1.808  0.00  0.00    +0.210 HD
ENDBRANCH  21  22
ENDBRANCH   9  21
TORSDOF 4
