REMARK  Name = ZINC21752484
REMARK  11 active torsions:
REMARK  status: ('A' for Active; 'I' for Inactive)
REMARK    1  A    between atoms: C_1  and  C_2
REMARK    2  A    between atoms: C_5  and  N_8
REMARK    3  A    between atoms: C_9  and  C_29
REMARK    4  A    between atoms: C_12  and  S_13
REMARK    5  A    between atoms: S_13  and  C_14
REMARK    6  A    between atoms: C_14  and  C_16
REMARK    7  A    between atoms: C_14  and  C_17
REMARK    8  A    between atoms: N_19  and  C_20
REMARK    9  A    between atoms: C_25  and  N_26
REMARK   10  A    between atoms: C_34  and  O_35
REMARK   11  A    between atoms: O_35  and  C_36
REMARK                            x       y       z     vdW  Elec       q    Type
REMARK                         _______ _______ _______ _____ _____    ______ ____
ROOT
ATOM      1  N   UNL     1       3.325   0.054  -2.361  0.00  0.00    -0.270 N 
ATOM      2  C   UNL     1       2.735  -0.878  -3.187  0.00  0.00    +0.173 A 
ATOM      3  N   UNL     1       1.511  -1.061  -2.749  0.00  0.00    -0.128 NA
ATOM      4  N   UNL     1       1.298  -0.324  -1.718  0.00  0.00    -0.122 NA
ATOM      5  C   UNL     1       2.372   0.376  -1.432  0.00  0.00    +0.197 A 
ENDROOT
BRANCH   1  10
ATOM      6  C   UNL     1       8.601   2.113  -2.725  0.00  0.00    +0.044 C 
ATOM      7  C   UNL     1       7.200   1.566  -2.628  0.00  0.00    -0.050 A 
ATOM      8  C   UNL     1       6.839   0.779  -1.550  0.00  0.00    +0.005 A 
ATOM      9  C   UNL     1       5.556   0.277  -1.458  0.00  0.00    +0.026 A 
ATOM     10  C   UNL     1       4.628   0.562  -2.450  0.00  0.00    +0.051 A 
ATOM     11  C   UNL     1       4.994   1.348  -3.535  0.00  0.00    +0.026 A 
ATOM     12  C   UNL     1       6.278   1.852  -3.618  0.00  0.00    +0.005 A 
ENDBRANCH   1  10
BRANCH   2  13
ATOM     13  C   UNL     1       3.360  -1.541  -4.350  0.00  0.00    +0.061 A 
ATOM     14  C   UNL     1       4.645  -2.076  -4.246  0.00  0.00    +0.015 A 
ATOM     15  C   UNL     1       5.223  -2.695  -5.335  0.00  0.00    +0.001 A 
ATOM     16  C   UNL     1       4.533  -2.788  -6.532  0.00  0.00    +0.004 A 
ATOM     17  C   UNL     1       3.260  -2.261  -6.647  0.00  0.00    +0.046 A 
ATOM     18  C   UNL     1       2.664  -1.642  -5.561  0.00  0.00    +0.131 A 
BRANCH  18  19
ATOM     19  O   UNL     1       1.411  -1.129  -5.672  0.00  0.00    -0.494 OA
ATOM     20  C   UNL     1       0.762  -1.269  -6.938  0.00  0.00    +0.277 C 
ENDBRANCH  18  19
ENDBRANCH   2  13
BRANCH   5  21
ATOM     21  S   UNL     1       2.551   1.522  -0.105  0.00  0.00    -0.073 S 
BRANCH  21  22
ATOM     22  C   UNL     1       0.906   1.400   0.639  0.00  0.00    +0.137 C 
ATOM     23  C   UNL     1      -0.141   1.920  -0.349  0.00  0.00    +0.029 C 
BRANCH  22  24
ATOM     24  C   UNL     1       0.862   2.227   1.899  0.00  0.00    +0.230 C 
ATOM     25  O   UNL     1       1.620   3.164   2.036  0.00  0.00    -0.274 OA
ATOM     26  N   UNL     1      -0.019   1.924   2.873  0.00  0.00    -0.283 N 
ATOM     27  H   UNL     1      -0.644   1.023   2.788  0.00  0.00    +0.155 HD
BRANCH  26  28
ATOM     28  C   UNL     1      -0.138   2.757   3.991  0.00  0.00    +0.064 A 
ATOM     29  C   UNL     1       0.166   4.108   3.888  0.00  0.00    +0.025 A 
ATOM     30  C   UNL     1       0.042   4.928   4.993  0.00  0.00    +0.002 A 
ATOM     31  C   UNL     1      -0.373   4.402   6.203  0.00  0.00    +0.002 A 
ATOM     32  C   UNL     1      -0.672   3.057   6.309  0.00  0.00    +0.034 A 
ATOM     33  C   UNL     1      -0.555   2.232   5.207  0.00  0.00    +0.147 A 
BRANCH  33  34
ATOM     34  N   UNL     1      -0.875   0.792   5.322  0.00  0.00    +0.058 N 
ATOM     35  O   UNL     1      -1.339   0.352   6.359  0.00  0.00    -0.126 OA
ATOM     36  O   UNL     1      -0.672   0.046   4.381  0.00  0.00    -0.126 OA
ENDBRANCH  33  34
ENDBRANCH  26  28
ENDBRANCH  22  24
ENDBRANCH  21  22
ENDBRANCH   5  21
TORSDOF 8
