REMARK  Name = ZINC35036961
REMARK  10 active torsions:
REMARK  status: ('A' for Active; 'I' for Inactive)
REMARK    1  A    between atoms: C_1  and  C_2
REMARK    2  A    between atoms: C_2  and  C_4
REMARK    3  A    between atoms: C_2  and  N_21
REMARK    4  A    between atoms: N_14  and  C_15
REMARK    5  A    between atoms: N_21  and  C_22
REMARK    6  A    between atoms: C_22  and  C_23
REMARK    7  A    between atoms: C_23  and  N_24
REMARK    8  A    between atoms: N_24  and  C_25
REMARK    9  A    between atoms: N_24  and  C_26
REMARK   10  A    between atoms: C_27  and  C_29
REMARK                            x       y       z     vdW  Elec       q    Type
REMARK                         _______ _______ _______ _____ _____    ______ ____
ROOT
ATOM      1  C   UNL     1      -0.973   0.739  -0.456  0.00  0.00    +0.036 C 
ATOM      2  C   UNL     1       0.139   0.173  -1.341  0.00  0.00    +0.140 C 
ENDROOT
BRANCH   2   3
ATOM      3  C   UNL     1       0.174  -1.327  -1.206  0.00  0.00    +0.138 A 
ATOM      4  N   UNL     1       1.330  -1.912  -1.120  0.00  0.00    -0.231 NA
ATOM      5  C   UNL     1       1.440  -3.258  -0.997  0.00  0.00    +0.078 A 
ATOM      6  C   UNL     1       2.683  -3.887  -0.904  0.00  0.00    +0.028 A 
ATOM      7  C   UNL     1       2.747  -5.256  -0.779  0.00  0.00    +0.002 A 
ATOM      8  C   UNL     1       1.589  -6.023  -0.746  0.00  0.00    +0.001 A 
ATOM      9  C   UNL     1       0.351  -5.426  -0.836  0.00  0.00    +0.015 A 
ATOM     10  C   UNL     1       0.264  -4.041  -0.962  0.00  0.00    +0.065 A 
ATOM     11  C   UNL     1      -1.029  -3.349  -1.061  0.00  0.00    +0.266 A 
ATOM     12  O   UNL     1      -2.079  -3.965  -1.037  0.00  0.00    -0.267 OA
ATOM     13  N   UNL     1      -1.008  -2.001  -1.175  0.00  0.00    -0.263 N 
BRANCH  13  14
ATOM     14  C   UNL     1      -2.213  -1.292  -1.268  0.00  0.00    +0.051 A 
ATOM     15  C   UNL     1      -2.533  -0.615  -2.437  0.00  0.00    +0.026 A 
ATOM     16  C   UNL     1      -3.722   0.082  -2.526  0.00  0.00    +0.002 A 
ATOM     17  C   UNL     1      -4.593   0.106  -1.452  0.00  0.00    +0.000 A 
ATOM     18  C   UNL     1      -4.277  -0.568  -0.287  0.00  0.00    +0.002 A 
ATOM     19  C   UNL     1      -3.092  -1.271  -0.194  0.00  0.00    +0.026 A 
ENDBRANCH  13  14
ENDBRANCH   2   3
BRANCH   2  20
ATOM     20  N   UNL     1       1.428   0.731  -0.923  0.00  0.00    -0.290 N 
ATOM     21  C   UNL     1       2.314   1.147  -1.849  0.00  0.00    +0.247 C 
ATOM     22  O   UNL     1       2.002   1.167  -3.024  0.00  0.00    -0.270 OA
BRANCH  21  23
ATOM     23  C   UNL     1       3.666   1.580  -1.436  0.00  0.00    +0.038 A 
ATOM     24  C   UNL     1       4.370   0.840  -0.470  0.00  0.00    +0.013 A 
ATOM     25  C   UNL     1       5.613   1.217  -0.074  0.00  0.00    +0.009 A 
ATOM     26  C   UNL     1       6.212   2.362  -0.632  0.00  0.00    -0.018 A 
ATOM     27  C   UNL     1       7.497   2.772  -0.238  0.00  0.00    +0.008 A 
ATOM     28  C   UNL     1       8.051   3.883  -0.796  0.00  0.00    +0.001 A 
ATOM     29  C   UNL     1       7.362   4.625  -1.754  0.00  0.00    +0.001 A 
ATOM     30  C   UNL     1       6.116   4.260  -2.160  0.00  0.00    +0.008 A 
ATOM     31  C   UNL     1       5.511   3.116  -1.607  0.00  0.00    -0.017 A 
ATOM     32  C   UNL     1       4.231   2.708  -2.008  0.00  0.00    +0.021 A 
ENDBRANCH  21  23
BRANCH  20  33
ATOM     33  C   UNL     1       1.752   0.837   0.502  0.00  0.00    +0.090 C 
BRANCH  33  34
ATOM     34  C   UNL     1       2.255  -0.515   1.012  0.00  0.00    -0.060 C 
BRANCH  34  35
ATOM     35  N   UNL     1       3.299  -0.301   2.022  0.00  0.00    +0.377 N 
ATOM     36  C   UNL     1       2.717   0.365   3.195  0.00  0.00    -0.097 C 
ATOM     37  C   UNL     1       3.865  -1.595   2.425  0.00  0.00    -0.097 C 
ATOM     38  H   UNL     1       4.028   0.279   1.634  0.00  0.00    -0.083 HD
ENDBRANCH  34  35
ENDBRANCH  33  34
ENDBRANCH  20  33
ENDBRANCH   2  20
TORSDOF 7
