REMARK  Name = ZINC03977951
REMARK  15 active torsions:
REMARK  status: ('A' for Active; 'I' for Inactive)
REMARK    1  A    between atoms: C_1  and  C_2
REMARK    2  A    between atoms: C_2  and  C_3
REMARK    3  A    between atoms: C_3  and  C_4
REMARK    4  A    between atoms: C_7  and  C_12
REMARK    5  A    between atoms: N_9  and  C_11
REMARK    6  A    between atoms: N_14  and  C_15
REMARK    7  A    between atoms: C_15  and  C_17
REMARK    8  A    between atoms: C_15  and  C_33
REMARK    9  A    between atoms: C_19  and  O_32
REMARK   10  A    between atoms: C_21  and  O_31
REMARK   11  A    between atoms: C_23  and  O_30
REMARK   12  A    between atoms: C_25  and  S_28
REMARK   13  A    between atoms: S_28  and  C_29
REMARK   14  A    between atoms: C_33  and  C_35
REMARK   15  A    between atoms: C_33  and  O_36
REMARK                            x       y       z     vdW  Elec       q    Type
REMARK                         _______ _______ _______ _____ _____    ______ ____
ROOT
ATOM      1  C   UNL     1       1.671  -6.100  -0.240  0.00  0.00    +0.132 C 
ENDROOT
BRANCH   1   2
ATOM      2  C   UNL     1       3.096  -5.762  -0.683  0.00  0.00    +0.173 C 
ATOM      3  C   UNL     1       3.281  -4.242  -0.690  0.00  0.00    +0.176 C 
ATOM      4  C   UNL     1       2.318  -3.622  -1.708  0.00  0.00    +0.177 C 
ATOM      5  C   UNL     1       2.576  -4.245  -3.083  0.00  0.00    +0.184 C 
ATOM      6  C   UNL     1       2.418  -5.765  -2.984  0.00  0.00    +0.207 C 
ATOM      7  O   UNL     1       3.320  -6.273  -1.999  0.00  0.00    -0.356 OA
BRANCH   6   8
ATOM      8  S   UNL     1       2.791  -6.518  -4.592  0.00  0.00    -0.131 S 
ATOM      9  C   UNL     1       2.272  -8.245  -4.399  0.00  0.00    +0.087 C 
ENDBRANCH   6   8
BRANCH   5  10
ATOM     10  O   UNL     1       3.903  -3.929  -3.509  0.00  0.00    -0.386 OA
ATOM     11  H   UNL     1       4.135  -4.292  -4.375  0.00  0.00    +0.210 HD
ENDBRANCH   5  10
BRANCH   4  12
ATOM     12  O   UNL     1       0.970  -3.881  -1.309  0.00  0.00    -0.386 OA
ATOM     13  H   UNL     1       0.324  -3.268  -1.687  0.00  0.00    +0.210 HD
ENDBRANCH   4  12
BRANCH   3  14
ATOM     14  O   UNL     1       3.002  -3.721   0.611  0.00  0.00    -0.387 OA
ATOM     15  H   UNL     1       3.100  -2.762   0.680  0.00  0.00    +0.210 HD
ENDBRANCH   3  14
ENDBRANCH   1   2
BRANCH   1  18
ATOM     16  C   UNL     1      -0.608  -5.659  -0.982  0.00  0.00    +0.200 C 
ATOM     17  O   UNL     1      -1.008  -6.056   0.091  0.00  0.00    -0.278 OA
ATOM     18  N   UNL     1       0.716  -5.566  -1.215  0.00  0.00    -0.309 N 
ATOM     19  H   UNL     1       1.038  -5.145  -2.028  0.00  0.00    +0.149 HD
BRANCH  16  22
ATOM     20  C   UNL     1      -3.376  -3.942  -1.098  0.00  0.00    -0.029 C 
ATOM     21  C   UNL     1      -2.031  -3.804  -1.859  0.00  0.00    -0.005 C 
ATOM     22  C   UNL     1      -1.591  -5.270  -2.056  0.00  0.00    +0.019 C 
ATOM     23  N   UNL     1      -2.801  -6.106  -1.960  0.00  0.00    +0.386 N 
ATOM     24  C   UNL     1      -3.967  -5.224  -1.736  0.00  0.00    -0.075 C 
ATOM     25  C   UNL     1      -2.983  -6.858  -3.208  0.00  0.00    -0.095 C 
ATOM     26  H   UNL     1      -2.709  -6.748  -1.187  0.00  0.00    -0.081 HD
BRANCH  20  27
ATOM     27  C   UNL     1      -4.278  -2.734  -1.357  0.00  0.00    +0.001 C 
BRANCH  27  29
ATOM     28  C   UNL     1      -4.590  -0.292  -0.932  0.00  0.00    +0.004 C 
ATOM     29  C   UNL     1      -3.687  -1.499  -0.674  0.00  0.00    -0.003 C 
ENDBRANCH  27  29
ENDBRANCH  20  27
ENDBRANCH  16  22
ENDBRANCH   1  18
BRANCH   1  30
ATOM     30  C   UNL     1       1.512  -7.619  -0.151  0.00  0.00    +0.134 C 
ATOM     31  C   UNL     1       0.087  -7.958   0.292  0.00  0.00    +0.039 C 
BRANCH  30  32
ATOM     32  O   UNL     1       2.443  -8.140   0.800  0.00  0.00    -0.390 OA
ATOM     33  H   UNL     1       3.368  -7.963   0.582  0.00  0.00    +0.210 HD
ENDBRANCH  30  32
ENDBRANCH   1  30
TORSDOF 11
