REMARK  Name = ZINC16754083
REMARK  15 active torsions:
REMARK  status: ('A' for Active; 'I' for Inactive)
REMARK    1  A    between atoms: C_1  and  C_2
REMARK    2  A    between atoms: C_2  and  N_62
REMARK    3  A    between atoms: C_3  and  C_4
REMARK    4  A    between atoms: C_3  and  N_62
REMARK    5  A    between atoms: C_5  and  C_6
REMARK    6  A    between atoms: C_5  and  N_62
REMARK    7  A    between atoms: C_6  and  N_7
REMARK    8  A    between atoms: C_8  and  C_32
REMARK    9  A    between atoms: C_14  and  C_22
REMARK   10  A    between atoms: C_16  and  C_20
REMARK   11  A    between atoms: C_17  and  N_19
REMARK   12  A    between atoms: C_26  and  O_30
REMARK   13  A    between atoms: C_27  and  O_28
REMARK   14  A    between atoms: O_28  and  C_29
REMARK   15  A    between atoms: O_30  and  C_31
REMARK                            x       y       z     vdW  Elec       q    Type
REMARK                         _______ _______ _______ _____ _____    ______ ____
ROOT
ATOM      1  N   UNL     1       4.871  -0.574   3.537  0.00  0.00    -0.314 N 
ATOM      2  C   UNL     1       5.926   0.281   3.482  0.00  0.00    +0.022 A 
ATOM      3  C   UNL     1       6.295   0.854   2.316  0.00  0.00    +0.068 A 
ATOM      4  C   UNL     1       5.578   0.563   1.136  0.00  0.00    +0.141 A 
ATOM      5  C   UNL     1       4.508  -0.303   1.201  0.00  0.00    +0.072 A 
ATOM      6  C   UNL     1       4.163  -0.874   2.433  0.00  0.00    +0.259 A 
ATOM      7  O   UNL     1       3.218  -1.645   2.505  0.00  0.00    -0.267 OA
ATOM      8  C   UNL     1       3.715  -0.640  -0.032  0.00  0.00    +0.107 C 
ATOM      9  C   UNL     1       4.486  -0.252  -1.264  0.00  0.00    +0.098 C 
ATOM     10  C   UNL     1       5.538   0.597  -1.196  0.00  0.00    +0.199 C 
ATOM     11  O   UNL     1       5.945   1.132  -0.032  0.00  0.00    -0.441 OA
ATOM     12  C   UNL     1       6.695   0.595   4.740  0.00  0.00    +0.064 C 
ENDROOT
BRANCH   8  13
ATOM     13  C   UNL     1       2.407   0.108  -0.005  0.00  0.00    +0.011 A 
ATOM     14  C   UNL     1       2.402   1.491   0.016  0.00  0.00    +0.008 A 
ATOM     15  C   UNL     1       1.204   2.180   0.041  0.00  0.00    +0.004 A 
ATOM     16  C   UNL     1       0.006   1.490   0.044  0.00  0.00    +0.049 A 
ATOM     17  C   UNL     1       0.004   0.105   0.023  0.00  0.00    +0.162 A 
ATOM     18  C   UNL     1       1.210  -0.589  -0.002  0.00  0.00    +0.166 A 
BRANCH  18  19
ATOM     19  O   UNL     1       1.214  -1.949  -0.023  0.00  0.00    -0.491 OA
ATOM     20  C   UNL     1       1.201  -2.578  -1.306  0.00  0.00    +0.277 C 
ENDBRANCH  18  19
BRANCH  17  21
ATOM     21  O   UNL     1      -1.173  -0.575   0.025  0.00  0.00    -0.491 OA
ATOM     22  C   UNL     1      -2.372   0.203   0.051  0.00  0.00    +0.277 C 
ENDBRANCH  17  21
ENDBRANCH   8  13
BRANCH  10  23
ATOM     23  N   UNL     1       6.209   0.920  -2.349  0.00  0.00    -0.328 N 
ATOM     24  H   UNL     1       5.928   0.541  -3.196  0.00  0.00    +0.145 HD
ATOM     25  H   UNL     1       6.965   1.526  -2.316  0.00  0.00    +0.145 HD
ENDBRANCH  10  23
BRANCH   9  26
ATOM     26  C   UNL     1       4.099  -0.791  -2.533  0.00  0.00    +0.101 C 
ATOM     27  N   UNL     1       3.792  -1.218  -3.540  0.00  0.00    -0.191 NA
ENDBRANCH   9  26
BRANCH   1  28
ATOM     28  C   UNL     1       4.499  -1.178   4.819  0.00  0.00    +0.106 C 
BRANCH  28  29
ATOM     29  C   UNL     1       3.485  -0.280   5.531  0.00  0.00    -0.057 C 
BRANCH  29  30
ATOM     30  N   UNL     1       3.014  -0.970   6.750  0.00  0.00    +0.380 N 
ATOM     31  H   UNL     1       2.854  -1.960   6.531  0.00  0.00    -0.082 HD
BRANCH  30  33
ATOM     32  C   UNL     1       3.628  -1.778   8.976  0.00  0.00    -0.017 C 
ATOM     33  C   UNL     1       4.038  -0.873   7.812  0.00  0.00    -0.082 C 
ENDBRANCH  30  33
BRANCH  30  34
ATOM     34  C   UNL     1       1.746  -0.369   7.214  0.00  0.00    -0.082 C 
ATOM     35  C   UNL     1       0.609  -0.876   6.325  0.00  0.00    -0.017 C 
ENDBRANCH  30  34
ENDBRANCH  29  30
ENDBRANCH  28  29
ENDBRANCH   1  28
TORSDOF 10
