REMARK  Name = ZINC09353601
REMARK  11 active torsions:
REMARK  status: ('A' for Active; 'I' for Inactive)
REMARK    1  A    between atoms: C_1  and  C_2
REMARK    2  A    between atoms: C_4  and  O_32
REMARK    3  A    between atoms: C_7  and  C_8
REMARK    4  A    between atoms: C_8  and  C_10
REMARK    5  A    between atoms: N_14  and  C_24
REMARK    6  A    between atoms: C_15  and  C_17
REMARK    7  A    between atoms: C_24  and  C_25
REMARK    8  A    between atoms: O_32  and  C_33
REMARK    9  A    between atoms: C_33  and  C_34
REMARK   10  A    between atoms: C_34  and  C_35
REMARK   11  A    between atoms: C_34  and  C_36
REMARK                            x       y       z     vdW  Elec       q    Type
REMARK                         _______ _______ _______ _____ _____    ______ ____
ROOT
ATOM      1  C   UNL     1       1.619  -2.811   1.337  0.00  0.00    +0.076 C 
ATOM      2  C   UNL     1       2.740  -3.545   1.141  0.00  0.00    +0.249 C 
ATOM      3  C   UNL     1       3.018  -3.630  -0.308  0.00  0.00    +0.288 C 
ATOM      4  O   UNL     1       3.956  -4.221  -0.805  0.00  0.00    -0.266 OA
ATOM      5  N   UNL     1       2.080  -2.954  -0.996  0.00  0.00    -0.279 N 
ATOM      6  C   UNL     1       1.132  -2.388  -0.029  0.00  0.00    +0.145 C 
ATOM      7  O   UNL     1       3.486  -4.113   2.117  0.00  0.00    -0.282 OA
ENDROOT
BRANCH   6   8
ATOM      8  C   UNL     1       1.121  -0.885  -0.133  0.00  0.00    -0.022 A 
ATOM      9  C   UNL     1      -0.077  -0.211  -0.285  0.00  0.00    +0.007 A 
ATOM     10  C   UNL     1      -0.088   1.167  -0.380  0.00  0.00    +0.020 A 
ATOM     11  C   UNL     1       1.100   1.874  -0.323  0.00  0.00    +0.041 A 
ATOM     12  C   UNL     1       2.299   1.199  -0.171  0.00  0.00    +0.020 A 
ATOM     13  C   UNL     1       2.308  -0.179  -0.076  0.00  0.00    +0.007 A 
ATOM     14 CL   UNL     1       1.088   3.606  -0.443  0.00  0.00    -0.084 Cl
ENDBRANCH   6   8
BRANCH   1  15
ATOM     15  C   UNL     1       0.999  -2.487   2.626  0.00  0.00    +0.195 C 
ATOM     16  O   UNL     1       1.549  -2.805   3.664  0.00  0.00    -0.287 OA
BRANCH  15  23
ATOM     17  C   UNL     1      -1.435  -3.913   1.986  0.00  0.00    +0.044 C 
ATOM     18  C   UNL     1      -1.477  -2.454   2.358  0.00  0.00    -0.036 A 
ATOM     19  C   UNL     1      -2.681  -1.786   2.396  0.00  0.00    +0.049 A 
ATOM     20  C   UNL     1      -2.721  -0.439   2.738  0.00  0.00    +0.121 A 
ATOM     21  C   UNL     1      -1.546   0.239   3.044  0.00  0.00    +0.046 A 
ATOM     22  C   UNL     1      -0.339  -0.421   3.013  0.00  0.00    +0.015 A 
ATOM     23  C   UNL     1      -0.294  -1.775   2.665  0.00  0.00    +0.025 A 
BRANCH  20  24
ATOM     24  O   UNL     1      -3.909   0.215   2.774  0.00  0.00    -0.492 OA
BRANCH  24  25
ATOM     25  C   UNL     1      -3.878   1.598   3.133  0.00  0.00    +0.232 C 
BRANCH  25  26
ATOM     26  C   UNL     1      -5.300   2.161   3.119  0.00  0.00    +0.020 C 
ATOM     27  C   UNL     1      -6.130   1.478   4.209  0.00  0.00    +0.010 C 
ATOM     28  C   UNL     1      -5.255   3.667   3.381  0.00  0.00    +0.010 C 
ENDBRANCH  25  26
ENDBRANCH  24  25
ENDBRANCH  20  24
ENDBRANCH  15  23
ENDBRANCH   1  15
BRANCH   5  29
ATOM     29  C   UNL     1       2.016  -2.808  -2.452  0.00  0.00    +0.145 C 
BRANCH  29  30
ATOM     30  C   UNL     1       2.782  -1.580  -2.868  0.00  0.00    -0.012 A 
ATOM     31  C   UNL     1       2.145  -0.351  -2.959  0.00  0.00    +0.008 A 
ATOM     32  C   UNL     1       2.891   0.753  -3.341  0.00  0.00    +0.020 A 
ATOM     33  C   UNL     1       4.234   0.592  -3.627  0.00  0.00    +0.111 A 
ATOM     34  N   UNL     1       4.806  -0.592  -3.535  0.00  0.00    -0.263 NA
ATOM     35  C   UNL     1       4.128  -1.663  -3.170  0.00  0.00    +0.115 A 
ENDBRANCH  29  30
ENDBRANCH   5  29
TORSDOF 8
