REMARK  Name = ZINC36950178
REMARK  4 active torsions:
REMARK  status: ('A' for Active; 'I' for Inactive)
REMARK    1  A    between atoms: C_1  and  C_2
REMARK    2  A    between atoms: C_4  and  N_20
REMARK    3  A    between atoms: C_7  and  N_8
REMARK    4  A    between atoms: N_8  and  C_9
REMARK                            x       y       z     vdW  Elec       q    Type
REMARK                         _______ _______ _______ _____ _____    ______ ____
ROOT
ATOM      1  N   UNL     1       0.025  -0.011   2.417  0.00  0.00    -0.314 N 
ATOM      2  H   UNL     1      -0.244   0.920   2.379  0.00  0.00    +0.152 HD
ENDROOT
BRANCH   1   3
ATOM      3  C   UNL     1      -0.060  -0.715   3.623  0.00  0.00    +0.035 A 
ATOM      4  C   UNL     1       0.970  -1.565   4.005  0.00  0.00    +0.027 A 
ATOM      5  C   UNL     1       0.887  -2.260   5.197  0.00  0.00    +0.051 A 
ATOM      6  C   UNL     1      -0.222  -2.111   6.014  0.00  0.00    +0.173 A 
ATOM      7  C   UNL     1      -1.256  -1.259   5.634  0.00  0.00    +0.174 A 
ATOM      8  C   UNL     1      -1.171  -0.559   4.442  0.00  0.00    +0.073 A 
ATOM      9  O   UNL     1      -2.221  -1.287   6.598  0.00  0.00    -0.395 OA
ATOM     10  C   UNL     1      -1.957  -2.472   7.372  0.00  0.00    +0.589 C 
ATOM     11  O   UNL     1      -0.540  -2.674   7.218  0.00  0.00    -0.395 OA
ATOM     12  F   UNL     1      -2.280  -2.263   8.718  0.00  0.00    -0.125 F 
ATOM     13  F   UNL     1      -2.667  -3.563   6.859  0.00  0.00    -0.125 F 
ENDBRANCH   1   3
BRANCH   1  20
ATOM     14  C   UNL     1       0.465   1.565   0.092  0.00  0.00    +0.046 C 
ATOM     15  C   UNL     1       0.725   0.081   0.108  0.00  0.00    -0.028 A 
ATOM     16  C   UNL     1       1.196  -0.550  -1.027  0.00  0.00    +0.028 A 
ATOM     17  C   UNL     1       1.436  -1.917  -1.012  0.00  0.00    +0.025 A 
ATOM     18  C   UNL     1       1.203  -2.651   0.144  0.00  0.00    +0.024 A 
ATOM     19  C   UNL     1       0.732  -2.021   1.278  0.00  0.00    +0.025 A 
ATOM     20  C   UNL     1       0.497  -0.652   1.265  0.00  0.00    +0.034 A 
BRANCH  17  21
ATOM     21  N   UNL     1       1.913  -2.556  -2.163  0.00  0.00    -0.358 N 
ATOM     22  H   UNL     1       2.075  -2.044  -2.970  0.00  0.00    +0.142 HD
ATOM     23  H   UNL     1       2.080  -3.512  -2.153  0.00  0.00    +0.142 HD
ENDBRANCH  17  21
ENDBRANCH   1  20
TORSDOF 3
