REMARK  Name = ZINC03295101
REMARK  14 active torsions:
REMARK  status: ('A' for Active; 'I' for Inactive)
REMARK    1  A    between atoms: C_1  and  C_2
REMARK    2  A    between atoms: C_4  and  N_11
REMARK    3  A    between atoms: C_5  and  O_9
REMARK    4  A    between atoms: O_9  and  C_10
REMARK    5  A    between atoms: C_12  and  C_14
REMARK    6  A    between atoms: C_14  and  O_15
REMARK    7  A    between atoms: O_15  and  C_16
REMARK    8  A    between atoms: C_16  and  C_18
REMARK    9  A    between atoms: C_18  and  C_20
REMARK   10  A    between atoms: C_18  and  N_24
REMARK   11  A    between atoms: C_20  and  C_22
REMARK   12  A    between atoms: C_20  and  O_23
REMARK   13  A    between atoms: N_24  and  S_25
REMARK   14  A    between atoms: S_25  and  C_28
REMARK                            x       y       z     vdW  Elec       q    Type
REMARK                         _______ _______ _______ _____ _____    ______ ____
ROOT
ATOM      1  C   UNL     1      -0.267  -2.337  -7.193  0.00  0.00    +0.329 C 
ATOM      2  O   UNL     1      -0.016  -3.462  -7.555  0.00  0.00    -0.249 OA
ENDROOT
BRANCH   1   3
ATOM      3  O   UNL     1      -0.174  -2.014  -5.893  0.00  0.00    -0.454 OA
BRANCH   3   4
ATOM      4  C   UNL     1       0.228  -3.050  -4.994  0.00  0.00    +0.328 C 
BRANCH   4   6
ATOM      5  N   UNL     1       0.633  -3.308  -2.568  0.00  0.00    -0.280 N 
ATOM      6  C   UNL     1       0.277  -2.505  -3.590  0.00  0.00    +0.255 C 
ATOM      7  O   UNL     1      -0.005  -1.344  -3.380  0.00  0.00    -0.272 OA
ATOM      8  H   UNL     1       0.928  -4.215  -2.744  0.00  0.00    +0.155 HD
BRANCH   5  12
ATOM      9  C   UNL     1      -1.105  -0.060   0.690  0.00  0.00    +0.045 C 
ATOM     10  C   UNL     1      -0.257  -1.260   0.357  0.00  0.00    -0.030 A 
ATOM     11  C   UNL     1      -0.203  -1.728  -0.943  0.00  0.00    +0.031 A 
ATOM     12  C   UNL     1       0.578  -2.832  -1.251  0.00  0.00    +0.076 A 
ATOM     13  C   UNL     1       1.307  -3.467  -0.247  0.00  0.00    +0.143 A 
ATOM     14  C   UNL     1       1.248  -2.993   1.053  0.00  0.00    +0.067 A 
ATOM     15  C   UNL     1       0.471  -1.888   1.352  0.00  0.00    +0.047 A 
ATOM     16 CL   UNL     1       0.405  -1.291   2.981  0.00  0.00    -0.083 Cl
BRANCH  13  17
ATOM     17  O   UNL     1       2.074  -4.550  -0.544  0.00  0.00    -0.493 OA
ATOM     18  C   UNL     1       2.793  -5.151   0.535  0.00  0.00    +0.277 C 
ENDBRANCH  13  17
ENDBRANCH   5  12
ENDBRANCH   4   6
ENDBRANCH   3   4
ENDBRANCH   1   3
BRANCH   1  19
ATOM     19  C   UNL     1      -0.685  -1.297  -8.200  0.00  0.00    +0.213 C 
BRANCH  19  20
ATOM     20  C   UNL     1       0.312  -0.136  -8.178  0.00  0.00    +0.141 C 
ATOM     21  C   UNL     1       0.223   0.588  -6.833  0.00  0.00    +0.040 C 
BRANCH  20  22
ATOM     22  O   UNL     1       0.002   0.777  -9.232  0.00  0.00    -0.390 OA
ATOM     23  H   UNL     1      -0.025   0.371 -10.109  0.00  0.00    +0.210 HD
ENDBRANCH  20  22
ENDBRANCH  19  20
BRANCH  19  24
ATOM     24  N   UNL     1      -0.710  -1.894  -9.537  0.00  0.00    -0.174 NA
ATOM     25  H   UNL     1       0.104  -1.940 -10.063  0.00  0.00    +0.149 HD
BRANCH  24  26
ATOM     26  S   UNL     1      -2.128  -2.490 -10.151  0.00  0.00    +0.059 S 
ATOM     27  O   UNL     1      -1.831  -2.989 -11.449  0.00  0.00    -0.153 OA
ATOM     28  O   UNL     1      -2.700  -3.303  -9.136  0.00  0.00    -0.153 OA
BRANCH  26  29
ATOM     29  C   UNL     1      -3.215  -1.122 -10.374  0.00  0.00    +0.105 A 
ATOM     30  C   UNL     1      -4.056  -0.733  -9.348  0.00  0.00    +0.030 A 
ATOM     31  C   UNL     1      -4.909   0.340  -9.522  0.00  0.00    +0.022 A 
ATOM     32  C   UNL     1      -4.922   1.025 -10.724  0.00  0.00    +0.041 A 
ATOM     33  C   UNL     1      -4.080   0.636 -11.751  0.00  0.00    +0.022 A 
ATOM     34  C   UNL     1      -3.224  -0.434 -11.573  0.00  0.00    +0.030 A 
ATOM     35 CL   UNL     1      -5.994   2.373 -10.944  0.00  0.00    -0.084 Cl
ENDBRANCH  26  29
ENDBRANCH  24  26
ENDBRANCH  19  24
ENDBRANCH   1  19
TORSDOF 11
