REMARK  Name = ZINC65549520
REMARK  14 active torsions:
REMARK  status: ('A' for Active; 'I' for Inactive)
REMARK    1  A    between atoms: C_1  and  C_2
REMARK    2  A    between atoms: C_2  and  C_3
REMARK    3  A    between atoms: C_2  and  N_4
REMARK    4  A    between atoms: N_4  and  C_5
REMARK    5  A    between atoms: C_5  and  C_6
REMARK    6  A    between atoms: N_15  and  C_16
REMARK    7  A    between atoms: C_16  and  C_17
REMARK    8  A    between atoms: C_17  and  C_19
REMARK    9  A    between atoms: C_17  and  N_24
REMARK   10  A    between atoms: C_29  and  O_31
REMARK   11  A    between atoms: O_31  and  C_32
REMARK   12  A    between atoms: C_32  and  C_33
REMARK   13  A    between atoms: C_32  and  C_34
REMARK   14  A    between atoms: C_32  and  C_35
REMARK                            x       y       z     vdW  Elec       q    Type
REMARK                         _______ _______ _______ _____ _____    ______ ____
ROOT
ATOM      1  C   UNL     1      -1.688  -2.738  -0.968  0.00  0.00    +0.024 C 
ATOM      2  C   UNL     1      -2.366  -3.482  -2.120  0.00  0.00    +0.008 C 
ATOM      3  C   UNL     1      -2.391  -4.982  -1.816  0.00  0.00    +0.019 C 
ATOM      4  C   UNL     1      -0.953  -5.496  -1.688  0.00  0.00    +0.109 C 
ATOM      5  N   UNL     1      -0.250  -4.688  -0.683  0.00  0.00    -0.285 N 
ATOM      6  C   UNL     1      -0.243  -3.226  -0.829  0.00  0.00    +0.114 C 
ATOM      7  C   UNL     1       0.377  -5.276   0.355  0.00  0.00    +0.302 C 
ATOM      8  O   UNL     1       0.881  -4.595   1.227  0.00  0.00    -0.253 OA
ATOM      9  N   UNL     1       0.445  -6.620   0.427  0.00  0.00    -0.300 N 
ATOM     10  H   UNL     1       0.107  -7.163  -0.302  0.00  0.00    +0.150 HD
ENDROOT
BRANCH   1  11
ATOM     11  C   UNL     1      -1.694  -1.235  -1.257  0.00  0.00    +0.116 C 
BRANCH  11  12
ATOM     12  N   UNL     1      -1.117  -0.516  -0.119  0.00  0.00    -0.265 N 
ATOM     13  C   UNL     1       0.186  -0.172  -0.129  0.00  0.00    +0.404 C 
ATOM     14  O   UNL     1       0.882  -0.457  -1.083  0.00  0.00    -0.226 OA
BRANCH  12  16
ATOM     15  C   UNL     1      -1.354  -0.776   2.302  0.00  0.00    +0.028 C 
ATOM     16  C   UNL     1      -1.957  -0.172   1.032  0.00  0.00    +0.073 C 
ATOM     17  C   UNL     1      -2.027   1.350   1.175  0.00  0.00    +0.028 C 
ENDBRANCH  12  16
BRANCH  13  18
ATOM     18  O   UNL     1       0.716   0.489   0.917  0.00  0.00    -0.445 OA
BRANCH  18  19
ATOM     19  C   UNL     1       2.103   0.823   0.839  0.00  0.00    +0.107 C 
ATOM     20  C   UNL     1       2.344   1.719  -0.378  0.00  0.00    +0.055 C 
ATOM     21  C   UNL     1       2.522   1.565   2.110  0.00  0.00    +0.055 C 
ATOM     22  C   UNL     1       2.929  -0.458   0.700  0.00  0.00    +0.055 C 
ENDBRANCH  18  19
ENDBRANCH  13  18
ENDBRANCH  11  12
ENDBRANCH   1  11
BRANCH   9  23
ATOM     23  C   UNL     1       1.031  -7.262   1.607  0.00  0.00    +0.098 C 
BRANCH  23  24
ATOM     24  C   UNL     1       1.101  -8.774   1.383  0.00  0.00    +0.016 C 
BRANCH  24  25
ATOM     25  N   UNL     1       1.560  -9.431   2.614  0.00  0.00    +0.387 N 
ATOM     26  C   UNL     1       0.526  -9.312   3.674  0.00  0.00    -0.078 C 
ATOM     27  C   UNL     1       0.875 -10.472   4.641  0.00  0.00    -0.020 C 
ATOM     28  C   UNL     1       1.322 -11.598   3.682  0.00  0.00    -0.020 C 
ATOM     29  C   UNL     1       1.736 -10.881   2.384  0.00  0.00    -0.078 C 
ATOM     30  H   UNL     1       2.428  -9.020   2.925  0.00  0.00    -0.081 HD
ENDBRANCH  24  25
BRANCH  24  31
ATOM     31  C   UNL     1       2.066  -9.072   0.265  0.00  0.00    +0.093 A 
ATOM     32  C   UNL     1       1.734  -9.340  -1.011  0.00  0.00    +0.043 A 
ATOM     33  C   UNL     1       2.942  -9.557  -1.712  0.00  0.00    +0.041 A 
ATOM     34  C   UNL     1       3.941  -9.409  -0.823  0.00  0.00    +0.195 A 
ATOM     35  O   UNL     1       3.405  -9.110   0.371  0.00  0.00    -0.469 OA
ENDBRANCH  24  31
ENDBRANCH  23  24
ENDBRANCH   9  23
TORSDOF 9
