REMARK  Name = ZINC40085560
REMARK  17 active torsions:
REMARK  status: ('A' for Active; 'I' for Inactive)
REMARK    1  A    between atoms: C_1  and  C_2
REMARK    2  A    between atoms: C_2  and  O_3
REMARK    3  A    between atoms: O_3  and  C_4
REMARK    4  A    between atoms: C_7  and  C_11
REMARK    5  A    between atoms: C_9  and  C_10
REMARK    6  A    between atoms: C_11  and  C_13
REMARK    7  A    between atoms: N_17  and  C_30
REMARK    8  A    between atoms: C_18  and  C_20
REMARK    9  A    between atoms: C_23  and  O_28
REMARK   10  A    between atoms: C_24  and  O_26
REMARK   11  A    between atoms: O_26  and  C_27
REMARK   12  A    between atoms: O_28  and  C_29
REMARK   13  A    between atoms: C_30  and  C_31
REMARK   14  A    between atoms: C_31  and  O_32
REMARK   15  A    between atoms: O_32  and  C_33
REMARK   16  A    between atoms: C_33  and  C_34
REMARK   17  A    between atoms: C_34  and  O_35
REMARK                            x       y       z     vdW  Elec       q    Type
REMARK                         _______ _______ _______ _____ _____    ______ ____
ROOT
ATOM      1  C   UNL     1       0.315  -7.437   0.416  0.00  0.00    +0.076 C 
ATOM      2  C   UNL     1       0.189  -8.674   0.950  0.00  0.00    +0.249 C 
ATOM      3  C   UNL     1      -0.883  -9.403   0.240  0.00  0.00    +0.288 C 
ATOM      4  O   UNL     1      -1.236 -10.539   0.487  0.00  0.00    -0.266 OA
ATOM      5  N   UNL     1      -1.411  -8.623  -0.720  0.00  0.00    -0.281 N 
ATOM      6  C   UNL     1      -0.714  -7.332  -0.686  0.00  0.00    +0.145 C 
ATOM      7  O   UNL     1       0.927  -9.166   1.972  0.00  0.00    -0.282 OA
ENDROOT
BRANCH   6   8
ATOM      8  C   UNL     1      -1.686  -6.221  -0.383  0.00  0.00    -0.019 A 
ATOM      9  C   UNL     1      -2.341  -6.191   0.834  0.00  0.00    +0.009 A 
ATOM     10  C   UNL     1      -3.234  -5.175   1.117  0.00  0.00    +0.050 A 
ATOM     11  C   UNL     1      -3.475  -4.183   0.180  0.00  0.00    +0.162 A 
ATOM     12  C   UNL     1      -2.816  -4.213  -1.045  0.00  0.00    +0.162 A 
ATOM     13  C   UNL     1      -1.918  -5.232  -1.320  0.00  0.00    +0.055 A 
BRANCH  12  14
ATOM     14  O   UNL     1      -3.048  -3.242  -1.968  0.00  0.00    -0.491 OA
ATOM     15  C   UNL     1      -2.410  -3.387  -3.238  0.00  0.00    +0.277 C 
ENDBRANCH  12  14
BRANCH  11  16
ATOM     16  O   UNL     1      -4.354  -3.183   0.457  0.00  0.00    -0.491 OA
ATOM     17  C   UNL     1      -4.903  -3.149   1.776  0.00  0.00    +0.277 C 
ENDBRANCH  11  16
ENDBRANCH   6   8
BRANCH   1  18
ATOM     18  C   UNL     1       1.262  -6.398   0.831  0.00  0.00    +0.195 C 
ATOM     19  O   UNL     1       1.160  -5.886   1.930  0.00  0.00    -0.287 OA
BRANCH  18  23
ATOM     20  C   UNL     1       4.359  -5.173  -1.803  0.00  0.00    +0.123 A 
ATOM     21  C   UNL     1       3.434  -6.125  -2.217  0.00  0.00    +0.046 A 
ATOM     22  C   UNL     1       2.428  -6.525  -1.366  0.00  0.00    +0.015 A 
ATOM     23  C   UNL     1       2.338  -5.972  -0.085  0.00  0.00    +0.023 A 
ATOM     24  C   UNL     1       3.271  -5.015   0.327  0.00  0.00    +0.018 A 
ATOM     25  C   UNL     1       4.277  -4.625  -0.528  0.00  0.00    -0.008 A 
ATOM     26  C   UNL     1       5.286  -3.598  -0.084  0.00  0.00    +0.047 C 
BRANCH  20  27
ATOM     27  O   UNL     1       5.349  -4.782  -2.645  0.00  0.00    -0.492 OA
BRANCH  27  29
ATOM     28  C   UNL     1       6.428  -4.661  -4.804  0.00  0.00    +0.048 C 
ATOM     29  C   UNL     1       5.312  -5.301  -3.976  0.00  0.00    +0.225 C 
ENDBRANCH  27  29
ENDBRANCH  20  27
ENDBRANCH  18  23
ENDBRANCH   1  18
BRANCH   5  30
ATOM     30  C   UNL     1      -2.494  -8.993  -1.634  0.00  0.00    +0.137 C 
BRANCH  30  31
ATOM     31  C   UNL     1      -3.828  -8.956  -0.885  0.00  0.00    +0.179 C 
BRANCH  31  32
ATOM     32  O   UNL     1      -4.255  -7.600  -0.740  0.00  0.00    -0.376 OA
BRANCH  32  33
ATOM     33  C   UNL     1      -5.564  -7.460  -0.183  0.00  0.00    +0.187 C 
BRANCH  33  34
ATOM     34  C   UNL     1      -5.971  -5.985  -0.204  0.00  0.00    +0.184 C 
BRANCH  34  35
ATOM     35  O   UNL     1      -6.061  -5.534  -1.557  0.00  0.00    -0.393 OA
ATOM     36  H   UNL     1      -6.393  -4.631  -1.650  0.00  0.00    +0.209 HD
ENDBRANCH  34  35
ENDBRANCH  33  34
ENDBRANCH  32  33
ENDBRANCH  31  32
ENDBRANCH  30  31
ENDBRANCH   5  30
TORSDOF 13
