REMARK  Name = ZINC45353056
REMARK  5 active torsions:
REMARK  status: ('A' for Active; 'I' for Inactive)
REMARK    1  A    between atoms: C_3  and  C_7
REMARK    2  A    between atoms: C_7  and  C_9
REMARK    3  A    between atoms: C_7  and  O_36
REMARK    4  A    between atoms: C_9  and  N_10
REMARK    5  A    between atoms: C_11  and  C_13
REMARK                            x       y       z     vdW  Elec       q    Type
REMARK                         _______ _______ _______ _____ _____    ______ ____
ROOT
ATOM      1  C   UNL     1       7.432   3.779  -2.651  0.00  0.00    +0.148 A 
ATOM      2  C   UNL     1       7.978   4.230  -3.859  0.00  0.00    +0.038 A 
ATOM      3  C   UNL     1       9.193   4.889  -3.817  0.00  0.00    +0.048 A 
ATOM      4  C   UNL     1       9.801   5.065  -2.573  0.00  0.00    +0.144 A 
ATOM      5  N   UNL     1       9.210   4.604  -1.476  0.00  0.00    -0.133 NA
ATOM      6  N   UNL     1       8.080   3.996  -1.512  0.00  0.00    -0.143 NA
ATOM      7  N   UNL     1      11.018   5.719  -2.482  0.00  0.00    -0.314 N 
ATOM      8  C   UNL     1      11.562   6.111  -1.175  0.00  0.00    +0.110 C 
ATOM      9  C   UNL     1      12.982   5.549  -1.043  0.00  0.00    +0.067 C 
ATOM     10  C   UNL     1      13.820   6.006  -2.237  0.00  0.00    +0.114 C 
ATOM     11  C   UNL     1      15.251   5.475  -2.093  0.00  0.00    +0.053 C 
ATOM     12  C   UNL     1      16.033   5.853  -3.353  0.00  0.00    +0.046 C 
ATOM     13  C   UNL     1      15.809   7.309  -3.674  0.00  0.00    +0.032 A 
ATOM     14  C   UNL     1      16.692   7.945  -4.535  0.00  0.00    +0.130 A 
ATOM     15  C   UNL     1      16.515   9.279  -4.856  0.00  0.00    +0.041 A 
ATOM     16  C   UNL     1      15.454   9.984  -4.318  0.00  0.00    +0.045 A 
ATOM     17  C   UNL     1      14.573   9.356  -3.459  0.00  0.00    +0.165 A 
ATOM     18  C   UNL     1      14.750   8.013  -3.132  0.00  0.00    +0.162 A 
ATOM     19  O   UNL     1      13.866   7.432  -2.278  0.00  0.00    -0.482 OA
ATOM     20  F   UNL     1      13.537  10.046  -2.934  0.00  0.00    -0.202 F 
ATOM     21  F   UNL     1      17.729   7.259  -5.063  0.00  0.00    -0.205 F 
ATOM     22  C   UNL     1      13.207   5.473  -3.533  0.00  0.00    +0.067 C 
ATOM     23  C   UNL     1      11.793   6.029  -3.692  0.00  0.00    +0.110 C 
ENDROOT
BRANCH   1  25
ATOM     24  N   UNL     1       5.610   2.641  -1.477  0.00  0.00    -0.307 N 
ATOM     25  C   UNL     1       6.136   3.069  -2.642  0.00  0.00    +0.264 C 
ATOM     26  O   UNL     1       5.544   2.871  -3.685  0.00  0.00    -0.268 OA
ATOM     27  H   UNL     1       6.082   2.799  -0.645  0.00  0.00    +0.149 HD
BRANCH  24  28
ATOM     28  C   UNL     1       4.325   1.937  -1.468  0.00  0.00    +0.140 C 
BRANCH  28  29
ATOM     29  C   UNL     1       3.958   1.563  -0.031  0.00  0.00    +0.163 C 
BRANCH  29  32
ATOM     30  C   UNL     1       0.265   0.825   0.210  0.00  0.00    +0.020 A 
ATOM     31  C   UNL     1       1.458   1.532   0.211  0.00  0.00    +0.009 A 
ATOM     32  C   UNL     1       2.636   0.840  -0.022  0.00  0.00    +0.000 A 
ATOM     33  C   UNL     1       2.583  -0.523  -0.246  0.00  0.00    +0.117 A 
ATOM     34  N   UNL     1       1.430  -1.163  -0.241  0.00  0.00    -0.263 NA
ATOM     35  C   UNL     1       0.290  -0.537  -0.022  0.00  0.00    +0.111 A 
ENDBRANCH  29  32
BRANCH  29  36
ATOM     36  O   UNL     1       4.970   0.714   0.513  0.00  0.00    -0.386 OA
ATOM     37  H   UNL     1       5.093  -0.112   0.026  0.00  0.00    +0.210 HD
ENDBRANCH  29  36
ENDBRANCH  28  29
ENDBRANCH  24  28
ENDBRANCH   1  25
TORSDOF 5
