REMARK  Name = ZINC39886245
REMARK  5 active torsions:
REMARK  status: ('A' for Active; 'I' for Inactive)
REMARK    1  A    between atoms: C_1  and  C_2
REMARK    2  A    between atoms: C_7  and  N_8
REMARK    3  A    between atoms: C_11  and  C_12
REMARK    4  A    between atoms: C_15  and  O_18
REMARK    5  A    between atoms: O_18  and  C_19
REMARK                            x       y       z     vdW  Elec       q    Type
REMARK                         _______ _______ _______ _____ _____    ______ ____
ROOT
ATOM      1  N   UNL     1       0.287   0.080   2.376  0.00  0.00    -0.231 NA
ATOM      2  C   UNL     1       0.407  -0.592   3.502  0.00  0.00    +0.140 C 
ATOM      3  C   UNL     1       0.155   0.033   4.815  0.00  0.00    +0.058 C 
ATOM      4  C   UNL     1      -0.217   1.305   5.107  0.00  0.00    +0.026 C 
ATOM      5  S   UNL     1       0.471  -1.337   5.917  0.00  0.00    -0.028 S 
ATOM      6  C   UNL     1       0.886  -2.565   4.690  0.00  0.00    +0.282 C 
ATOM      7  O   UNL     1       1.199  -3.727   4.866  0.00  0.00    -0.262 OA
ATOM      8  N   UNL     1       0.765  -1.902   3.523  0.00  0.00    -0.260 N 
ATOM      9  H   UNL     1       0.939  -2.365   2.689  0.00  0.00    +0.157 HD
ENDROOT
BRANCH   1  16
ATOM     10  C   UNL     1       2.111   1.258   0.543  0.00  0.00    +0.046 C 
ATOM     11  C   UNL     1       1.367  -0.017   0.240  0.00  0.00    -0.025 A 
ATOM     12  C   UNL     1       1.562  -0.663  -0.963  0.00  0.00    +0.005 A 
ATOM     13  C   UNL     1       0.880  -1.834  -1.242  0.00  0.00    +0.000 A 
ATOM     14  C   UNL     1      -0.002  -2.366  -0.318  0.00  0.00    +0.002 A 
ATOM     15  C   UNL     1      -0.207  -1.732   0.889  0.00  0.00    +0.028 A 
ATOM     16  C   UNL     1       0.482  -0.551   1.181  0.00  0.00    +0.069 A 
ENDBRANCH   1  16
BRANCH   4  17
ATOM     17  C   UNL     1      -0.226   1.766   6.502  0.00  0.00    -0.024 A 
ATOM     18  C   UNL     1      -0.785   3.007   6.828  0.00  0.00    +0.011 A 
ATOM     19  C   UNL     1      -0.791   3.434   8.138  0.00  0.00    +0.046 A 
ATOM     20  C   UNL     1      -0.242   2.636   9.134  0.00  0.00    +0.120 A 
ATOM     21  C   UNL     1       0.315   1.403   8.816  0.00  0.00    +0.046 A 
ATOM     22  C   UNL     1       0.321   0.964   7.511  0.00  0.00    +0.011 A 
BRANCH  20  23
ATOM     23  O   UNL     1      -0.250   3.062  10.424  0.00  0.00    -0.495 OA
ATOM     24  C   UNL     1       0.331   2.193  11.398  0.00  0.00    +0.277 C 
ENDBRANCH  20  23
ENDBRANCH   4  17
TORSDOF 3
