REMARK  Name = ZINC46841997
REMARK  11 active torsions:
REMARK  status: ('A' for Active; 'I' for Inactive)
REMARK    1  A    between atoms: C_1  and  C_2
REMARK    2  A    between atoms: C_7  and  C_10
REMARK    3  A    between atoms: C_14  and  C_17
REMARK    4  A    between atoms: C_17  and  N_18
REMARK    5  A    between atoms: C_19  and  C_21
REMARK    6  A    between atoms: C_21  and  N_22
REMARK    7  A    between atoms: N_22  and  C_23
REMARK    8  A    between atoms: N_22  and  S_24
REMARK    9  A    between atoms: S_24  and  C_27
REMARK   10  A    between atoms: C_30  and  C_33
REMARK   11  A    between atoms: C_33  and  C_35
REMARK                            x       y       z     vdW  Elec       q    Type
REMARK                         _______ _______ _______ _____ _____    ______ ____
ROOT
ATOM      1  N   UNL     1      -3.369  -5.796  -4.369  0.00  0.00    -0.310 N 
ATOM      2  C   UNL     1      -3.827  -6.645  -5.310  0.00  0.00    +0.229 C 
ATOM      3  O   UNL     1      -4.914  -7.167  -5.179  0.00  0.00    -0.274 OA
ATOM      4  H   UNL     1      -2.500  -5.378  -4.474  0.00  0.00    +0.149 HD
ENDROOT
BRANCH   1   5
ATOM      5  C   UNL     1      -4.185  -5.503  -3.188  0.00  0.00    +0.141 C 
BRANCH   5  17
ATOM      6  C   UNL     1      -0.045  -2.168   3.728  0.00  0.00    +0.039 C 
ATOM      7  C   UNL     1      -0.987  -1.773   2.589  0.00  0.00    +0.133 C 
ATOM      8  C   UNL     1      -0.596  -2.529   1.315  0.00  0.00    +0.137 C 
ATOM      9  N   UNL     1      -1.389  -1.995   0.196  0.00  0.00    -0.312 N 
ATOM     10  C   UNL     1      -1.418  -0.537   0.002  0.00  0.00    +0.137 C 
ATOM     11  C   UNL     1      -1.770   0.122   1.341  0.00  0.00    +0.133 C 
ATOM     12  O   UNL     1      -0.886  -0.366   2.353  0.00  0.00    -0.371 OA
ATOM     13  C   UNL     1      -3.214  -0.218   1.714  0.00  0.00    +0.039 C 
ATOM     14  C   UNL     1      -2.091  -2.844  -0.652  0.00  0.00    +0.099 A 
ATOM     15  C   UNL     1      -2.927  -2.308  -1.627  0.00  0.00    +0.042 A 
ATOM     16  C   UNL     1      -3.619  -3.164  -2.464  0.00  0.00    +0.010 A 
ATOM     17  C   UNL     1      -3.451  -4.533  -2.299  0.00  0.00    -0.014 A 
ATOM     18  C   UNL     1      -2.604  -4.995  -1.311  0.00  0.00    +0.089 A 
ATOM     19  N   UNL     1      -1.953  -4.155  -0.530  0.00  0.00    -0.349 N 
ATOM     20  H   UNL     1      -1.361  -4.507   0.154  0.00  0.00    +0.167 HD
ENDBRANCH   5  17
ENDBRANCH   1   5
BRANCH   2  21
ATOM     21  C   UNL     1      -2.989  -6.946  -6.526  0.00  0.00    +0.204 C 
BRANCH  21  22
ATOM     22  N   UNL     1      -3.702  -7.889  -7.390  0.00  0.00    -0.171 NA
ATOM     23  C   UNL     1      -4.681  -7.395  -8.362  0.00  0.00    +0.132 C 
BRANCH  22  24
ATOM     24  S   UNL     1      -3.403  -9.513  -7.269  0.00  0.00    +0.061 S 
ATOM     25  O   UNL     1      -3.762 -10.087  -8.519  0.00  0.00    -0.153 OA
ATOM     26  O   UNL     1      -2.100  -9.646  -6.716  0.00  0.00    -0.153 OA
BRANCH  24  27
ATOM     27  C   UNL     1      -4.525 -10.162  -6.076  0.00  0.00    +0.106 A 
ATOM     28  C   UNL     1      -4.164 -10.198  -4.740  0.00  0.00    +0.029 A 
ATOM     29  C   UNL     1      -5.037 -10.705  -3.800  0.00  0.00    +0.013 A 
ATOM     30  C   UNL     1      -6.288 -11.184  -4.200  0.00  0.00    +0.017 A 
ATOM     31  C   UNL     1      -6.646 -11.144  -5.551  0.00  0.00    +0.013 A 
ATOM     32  C   UNL     1      -5.764 -10.629  -6.479  0.00  0.00    +0.029 A 
BRANCH  30  33
ATOM     33  C   UNL     1      -7.225 -11.727  -3.203  0.00  0.00    +0.160 C 
ATOM     34  O   UNL     1      -6.912 -11.761  -2.032  0.00  0.00    -0.292 OA
ATOM     35  C   UNL     1      -8.573 -12.241  -3.638  0.00  0.00    +0.091 C 
ENDBRANCH  30  33
ENDBRANCH  24  27
ENDBRANCH  22  24
ENDBRANCH  21  22
ENDBRANCH   2  21
TORSDOF 7
