REMARK  Name = ZINC20817985
REMARK  9 active torsions:
REMARK  status: ('A' for Active; 'I' for Inactive)
REMARK    1  A    between atoms: C_1  and  C_2
REMARK    2  A    between atoms: C_2  and  C_3
REMARK    3  A    between atoms: C_2  and  N_4
REMARK    4  A    between atoms: C_8  and  C_10
REMARK    5  A    between atoms: C_10  and  S_11
REMARK    6  A    between atoms: S_11  and  C_12
REMARK    7  A    between atoms: N_25  and  C_26
REMARK    8  A    between atoms: C_31  and  O_32
REMARK    9  A    between atoms: O_32  and  C_33
REMARK                            x       y       z     vdW  Elec       q    Type
REMARK                         _______ _______ _______ _____ _____    ______ ____
ROOT
ATOM      1  C   UNL     1       3.822  -1.160  -0.041  0.00  0.00    +0.178 A 
ATOM      2  N   UNL     1       2.508  -1.333  -0.029  0.00  0.00    -0.215 NA
ATOM      3  C   UNL     1       1.751  -0.243  -0.016  0.00  0.00    +0.117 A 
ATOM      4  C   UNL     1       2.263   1.074  -0.013  0.00  0.00    +0.076 A 
ATOM      5  C   UNL     1       1.278   2.143   0.001  0.00  0.00    -0.023 A 
ATOM      6  C   UNL     1      -0.022   1.771   0.012  0.00  0.00    -0.004 A 
ATOM      7  S   UNL     1       0.002  -0.004   0.002  0.00  0.00    -0.073 S 
ATOM      8  C   UNL     1      -1.222   2.667   0.034  0.00  0.00    +0.043 C 
ATOM      9  C   UNL     1      -0.767   4.084   0.404  0.00  0.00    +0.005 C 
ATOM     10  C   UNL     1       0.456   4.447  -0.444  0.00  0.00    +0.005 C 
ATOM     11  C   UNL     1       1.662   3.621   0.005  0.00  0.00    +0.037 C 
ATOM     12  C   UNL     1       3.688   1.223  -0.026  0.00  0.00    +0.268 A 
ATOM     13  O   UNL     1       4.224   2.318  -0.025  0.00  0.00    -0.267 OA
ATOM     14  N   UNL     1       4.402   0.073  -0.040  0.00  0.00    -0.252 N 
ENDROOT
BRANCH  14  15
ATOM     15  C   UNL     1       5.803   0.155  -0.052  0.00  0.00    +0.093 A 
ATOM     16  C   UNL     1       6.508   0.195   1.141  0.00  0.00    +0.030 A 
ATOM     17  C   UNL     1       7.888   0.271   1.126  0.00  0.00    +0.002 A 
ATOM     18  C   UNL     1       8.568   0.319  -0.077  0.00  0.00    +0.004 A 
ATOM     19  C   UNL     1       7.872   0.284  -1.270  0.00  0.00    +0.048 A 
ATOM     20  C   UNL     1       6.488   0.203  -1.264  0.00  0.00    +0.144 A 
BRANCH  20  21
ATOM     21  O   UNL     1       5.802   0.170  -2.437  0.00  0.00    -0.493 OA
ATOM     22  C   UNL     1       6.571   0.222  -3.640  0.00  0.00    +0.277 C 
ENDBRANCH  20  21
ENDBRANCH  14  15
BRANCH   1  23
ATOM     23  S   UNL     1       4.862  -2.583  -0.059  0.00  0.00    -0.078 S 
BRANCH  23  24
ATOM     24  C   UNL     1       3.608  -3.888  -0.054  0.00  0.00    +0.173 C 
BRANCH  24  29
ATOM     25  N   UNL     1       3.410  -8.692  -0.080  0.00  0.00    -0.297 N 
ATOM     26  C   UNL     1       4.150  -7.565  -0.081  0.00  0.00    +0.306 C 
ATOM     27  O   UNL     1       5.364  -7.635  -0.093  0.00  0.00    -0.252 OA
ATOM     28  N   UNL     1       3.545  -6.361  -0.068  0.00  0.00    -0.239 N 
ATOM     29  C   UNL     1       4.285  -5.235  -0.069  0.00  0.00    +0.231 C 
ATOM     30  O   UNL     1       5.495  -5.305  -0.081  0.00  0.00    -0.274 OA
ATOM     31  H   UNL     1       2.312  -8.628  -0.069  0.00  0.00    +0.151 HD
ATOM     32  H   UNL     1       2.447  -6.298  -0.057  0.00  0.00    +0.159 HD
BRANCH  25  34
ATOM     33  C   UNL     1       4.424 -10.408   1.338  0.00  0.00    +0.027 C 
ATOM     34  C   UNL     1       4.068 -10.001  -0.093  0.00  0.00    +0.068 C 
ATOM     35  C   UNL     1       3.123 -11.040  -0.700  0.00  0.00    +0.027 C 
ENDBRANCH  25  34
ENDBRANCH  24  29
ENDBRANCH  23  24
ENDBRANCH   1  23
TORSDOF 6
