REMARK  Name = ZINC35664786
REMARK  11 active torsions:
REMARK  status: ('A' for Active; 'I' for Inactive)
REMARK    1  A    between atoms: C_1  and  C_2
REMARK    2  A    between atoms: C_2  and  O_3
REMARK    3  A    between atoms: O_3  and  C_4
REMARK    4  A    between atoms: C_4  and  C_6
REMARK    5  A    between atoms: C_7  and  C_24
REMARK    6  A    between atoms: N_8  and  C_21
REMARK    7  A    between atoms: C_12  and  C_14
REMARK    8  A    between atoms: C_17  and  C_20
REMARK    9  A    between atoms: C_21  and  C_22
REMARK   10  A    between atoms: C_24  and  N_25
REMARK   11  A    between atoms: C_32  and  C_34
REMARK                            x       y       z     vdW  Elec       q    Type
REMARK                         _______ _______ _______ _____ _____    ______ ____
ROOT
ATOM      1  C   UNL     1       0.917  -2.425  -2.285  0.00  0.00    +0.076 C 
ATOM      2  C   UNL     1       1.401  -3.679  -2.415  0.00  0.00    +0.011 C 
ATOM      3  N   UNL     1       2.251  -4.005  -3.434  0.00  0.00    -0.257 N 
ATOM      4  C   UNL     1       2.665  -3.134  -4.362  0.00  0.00    +0.307 C 
ATOM      5  O   UNL     1       3.423  -3.518  -5.232  0.00  0.00    -0.252 OA
ATOM      6  N   UNL     1       2.269  -1.846  -4.365  0.00  0.00    -0.288 N 
ATOM      7  C   UNL     1       1.345  -1.394  -3.311  0.00  0.00    +0.143 C 
ATOM      8  H   UNL     1       2.582  -1.231  -5.048  0.00  0.00    +0.151 HD
ENDROOT
BRANCH   7   9
ATOM      9  C   UNL     1       2.006  -0.256  -2.577  0.00  0.00    -0.022 A 
ATOM     10  C   UNL     1       3.323  -0.367  -2.170  0.00  0.00    +0.006 A 
ATOM     11  C   UNL     1       3.929   0.677  -1.498  0.00  0.00    +0.004 A 
ATOM     12  C   UNL     1       3.219   1.833  -1.232  0.00  0.00    -0.050 A 
ATOM     13  C   UNL     1       1.903   1.945  -1.639  0.00  0.00    +0.004 A 
ATOM     14  C   UNL     1       1.298   0.902  -2.316  0.00  0.00    +0.006 A 
ATOM     15  C   UNL     1       3.880   2.971  -0.497  0.00  0.00    +0.044 C 
ENDBRANCH   7   9
BRANCH   1  16
ATOM     16  C   UNL     1       0.037  -2.086  -1.232  0.00  0.00    +0.339 C 
ATOM     17  O   UNL     1      -0.366  -2.949  -0.474  0.00  0.00    -0.245 OA
BRANCH  16  18
ATOM     18  O   UNL     1      -0.357  -0.806  -1.066  0.00  0.00    -0.462 OA
BRANCH  18  20
ATOM     19  C   UNL     1      -1.579   0.958   0.046  0.00  0.00    +0.048 C 
ATOM     20  C   UNL     1      -1.247  -0.536   0.018  0.00  0.00    +0.229 C 
ENDBRANCH  18  20
ENDBRANCH  16  18
ENDBRANCH   1  16
BRANCH   3  21
ATOM     21  C   UNL     1       2.737  -5.384  -3.514  0.00  0.00    +0.141 C 
BRANCH  21  22
ATOM     22  C   UNL     1       1.857  -6.173  -4.449  0.00  0.00    -0.015 C 
ATOM     23  C   UNL     1       2.379  -6.771  -5.492  0.00  0.00    +0.005 C 
ENDBRANCH  21  22
ENDBRANCH   3  21
BRANCH   2  24
ATOM     24  C   UNL     1       0.997  -4.736  -1.420  0.00  0.00    -0.026 C 
BRANCH  24  25
ATOM     25  N   UNL     1       2.008  -4.821  -0.358  0.00  0.00    +0.384 N 
ATOM     26  C   UNL     1       1.735  -6.011   0.445  0.00  0.00    -0.077 C 
ATOM     27  C   UNL     1       3.032  -6.534   1.020  0.00  0.00    +0.000 C 
ATOM     28  C   UNL     1       3.244  -5.944   2.426  0.00  0.00    +0.106 C 
ATOM     29  N   UNL     1       2.837  -4.524   2.473  0.00  0.00    -0.299 N 
ATOM     30  C   UNL     1       3.142  -3.595   1.405  0.00  0.00    +0.089 C 
ATOM     31  C   UNL     1       2.002  -3.604   0.360  0.00  0.00    -0.059 C 
ATOM     32  C   UNL     1       2.158  -4.079   3.549  0.00  0.00    +0.247 C 
ATOM     33  O   UNL     1       1.718  -2.946   3.563  0.00  0.00    -0.270 OA
ATOM     34  H   UNL     1       2.913  -4.931  -0.790  0.00  0.00    -0.081 HD
BRANCH  32  35
ATOM     35  C   UNL     1       1.947  -4.967   4.710  0.00  0.00    +0.037 A 
ATOM     36  C   UNL     1       2.945  -5.867   5.094  0.00  0.00    +0.016 A 
ATOM     37  C   UNL     1       2.743  -6.694   6.178  0.00  0.00    +0.039 A 
ATOM     38  C   UNL     1       1.553  -6.634   6.887  0.00  0.00    +0.123 A 
ATOM     39  C   UNL     1       0.560  -5.743   6.510  0.00  0.00    +0.039 A 
ATOM     40  C   UNL     1       0.753  -4.907   5.431  0.00  0.00    +0.016 A 
ATOM     41  F   UNL     1       1.360  -7.447   7.948  0.00  0.00    -0.205 F 
ENDBRANCH  32  35
ENDBRANCH  24  25
ENDBRANCH   2  24
TORSDOF 9
