REMARK  Name = ZINC06193743
REMARK  6 active torsions:
REMARK  status: ('A' for Active; 'I' for Inactive)
REMARK    1  A    between atoms: C_1  and  C_2
REMARK    2  A    between atoms: C_4  and  C_37
REMARK    3  A    between atoms: C_7  and  C_14
REMARK    4  A    between atoms: C_14  and  C_16
REMARK    5  A    between atoms: C_14  and  N_27
REMARK    6  A    between atoms: N_20  and  C_21
REMARK                            x       y       z     vdW  Elec       q    Type
REMARK                         _______ _______ _______ _____ _____    ______ ____
ROOT
ATOM      1  C   UNL     1       4.969  -2.783  -0.061  0.00  0.00    +0.179 C 
ENDROOT
BRANCH   1   8
ATOM      2  C   UNL     1      -1.962   1.113  -0.697  0.00  0.00    +0.044 C 
ATOM      3  C   UNL     1      -0.555   0.589  -0.570  0.00  0.00    -0.048 A 
ATOM      4  C   UNL     1       0.508   1.481  -0.517  0.00  0.00    +0.007 A 
ATOM      5  C   UNL     1       1.792   1.026  -0.407  0.00  0.00    -0.041 A 
ATOM      6  C   UNL     1       2.038  -0.349  -0.350  0.00  0.00    +0.002 A 
ATOM      7  C   UNL     1       3.401  -0.871  -0.234  0.00  0.00    +0.021 A 
ATOM      8  C   UNL     1       3.579  -2.214  -0.181  0.00  0.00    +0.045 A 
ATOM      9  C   UNL     1       2.466  -3.081  -0.238  0.00  0.00    +0.255 A 
ATOM     10  O   UNL     1       2.648  -4.285  -0.190  0.00  0.00    -0.268 OA
ATOM     11  N   UNL     1       1.211  -2.611  -0.345  0.00  0.00    -0.322 N 
ATOM     12  H   UNL     1       0.469  -3.235  -0.383  0.00  0.00    +0.169 HD
ATOM     13  C   UNL     1       0.963  -1.256  -0.403  0.00  0.00    +0.050 A 
ATOM     14  C   UNL     1      -0.336  -0.770  -0.514  0.00  0.00    +0.029 A 
ATOM     15  C   UNL     1       2.938   2.003  -0.350  0.00  0.00    +0.044 C 
ENDBRANCH   1   8
BRANCH   1  16
ATOM     16  N   UNL     1       5.048  -3.635   1.133  0.00  0.00    -0.316 N 
ATOM     17  C   UNL     1       4.228  -3.093   2.219  0.00  0.00    +0.106 C 
ATOM     18  C   UNL     1       4.372  -4.004   3.444  0.00  0.00    +0.024 C 
ATOM     19  C   UNL     1       5.802  -3.865   3.970  0.00  0.00    +0.038 C 
ATOM     20  C   UNL     1       6.776  -3.973   2.823  0.00  0.00    -0.026 A 
ATOM     21  C   UNL     1       6.373  -3.853   1.505  0.00  0.00    +0.034 A 
ATOM     22  C   UNL     1       7.323  -3.955   0.487  0.00  0.00    +0.023 A 
ATOM     23  C   UNL     1       8.649  -4.176   0.789  0.00  0.00    +0.002 A 
ATOM     24  C   UNL     1       9.046  -4.300   2.108  0.00  0.00    +0.000 A 
ATOM     25  C   UNL     1       8.111  -4.198   3.119  0.00  0.00    +0.005 A 
ENDBRANCH   1  16
BRANCH   1  26
ATOM     26  C   UNL     1       5.283  -3.604  -1.285  0.00  0.00    +0.177 A 
ATOM     27  N   UNL     1       4.822  -4.799  -1.565  0.00  0.00    -0.111 NA
ATOM     28  N   UNL     1       5.321  -5.163  -2.696  0.00  0.00    -0.023 NA
ATOM     29  N   UNL     1       6.088  -4.231  -3.145  0.00  0.00    -0.044 NA
ATOM     30  N   UNL     1       6.086  -3.251  -2.305  0.00  0.00    -0.224 N 
BRANCH  30  31
ATOM     31  C   UNL     1       6.824  -1.992  -2.437  0.00  0.00    +0.111 C 
ATOM     32  C   UNL     1       6.372  -1.267  -3.706  0.00  0.00    +0.027 C 
ATOM     33  C   UNL     1       7.143   0.048  -3.843  0.00  0.00    +0.002 C 
ATOM     34  C   UNL     1       8.642  -0.245  -3.929  0.00  0.00    +0.000 C 
ATOM     35  C   UNL     1       9.093  -0.971  -2.659  0.00  0.00    +0.002 C 
ATOM     36  C   UNL     1       8.323  -2.286  -2.522  0.00  0.00    +0.027 C 
ENDBRANCH  30  31
ENDBRANCH   1  26
TORSDOF 4
