REMARK  Name = ZINC09087268
REMARK  4 active torsions:
REMARK  status: ('A' for Active; 'I' for Inactive)
REMARK    1  A    between atoms: C_8  and  C_26
REMARK    2  A    between atoms: C_10  and  C_17
REMARK    3  A    between atoms: C_20  and  N_23
REMARK    4  A    between atoms: C_26  and  C_28
REMARK                            x       y       z     vdW  Elec       q    Type
REMARK                         _______ _______ _______ _____ _____    ______ ____
ROOT
ATOM      1  C   UNL     1       1.127   2.810   0.009  0.00  0.00    +0.000 A 
ATOM      2  C   UNL     1       1.110   1.461  -0.297  0.00  0.00    +0.002 A 
ATOM      3  C   UNL     1      -0.081   0.825  -0.579  0.00  0.00    +0.023 A 
ATOM      4  C   UNL     1      -1.277   1.539  -0.562  0.00  0.00    +0.036 A 
ATOM      5  C   UNL     1      -1.249   2.894  -0.247  0.00  0.00    -0.027 A 
ATOM      6  C   UNL     1      -0.058   3.525   0.033  0.00  0.00    +0.004 A 
ATOM      7  C   UNL     1      -2.677   3.362  -0.307  0.00  0.00    +0.052 C 
ATOM      8  C   UNL     1      -2.854   4.464  -1.360  0.00  0.00    +0.070 C 
ATOM      9  C   UNL     1      -2.715   5.769  -0.545  0.00  0.00    +0.016 C 
ATOM     10  C   UNL     1      -3.126   5.377   0.884  0.00  0.00    -0.047 C 
ATOM     11  C   UNL     1      -4.391   3.281   1.394  0.00  0.00    -0.005 C 
ATOM     12  S   UNL     1      -5.245   4.686   2.235  0.00  0.00    -0.181 S 
ATOM     13  C   UNL     1      -4.487   6.030   1.219  0.00  0.00    +0.052 C 
ATOM     14  C   UNL     1      -3.471   2.135  -0.674  0.00  0.00    +0.212 C 
ATOM     15  O   UNL     1      -4.672   2.070  -0.826  0.00  0.00    -0.277 OA
ATOM     16  N   UNL     1      -2.589   1.126  -0.800  0.00  0.00    -0.286 N 
ATOM     17  H   UNL     1      -2.837   0.217  -1.033  0.00  0.00    +0.155 HD
ATOM     18  N   UNL     1      -3.071   3.895   0.986  0.00  0.00    +0.401 N 
ATOM     19  H   UNL     1      -2.365   3.642   1.687  0.00  0.00    -0.078 HD
ENDROOT
BRANCH   9  20
ATOM     20  C   UNL     1      -3.640   6.829  -1.087  0.00  0.00    -0.045 A 
ATOM     21  C   UNL     1      -4.825   6.465  -1.697  0.00  0.00    +0.006 A 
ATOM     22  C   UNL     1      -5.676   7.437  -2.190  0.00  0.00    +0.033 A 
ATOM     23  C   UNL     1      -5.336   8.772  -2.080  0.00  0.00    +0.126 A 
ATOM     24  C   UNL     1      -4.148   9.136  -1.474  0.00  0.00    +0.033 A 
ATOM     25  C   UNL     1      -3.300   8.164  -0.977  0.00  0.00    +0.006 A 
BRANCH  23  26
ATOM     26  N   UNL     1      -6.245   9.813  -2.611  0.00  0.00    +0.056 N 
ATOM     27  O   UNL     1      -5.946  10.990  -2.513  0.00  0.00    -0.126 OA
ATOM     28  O   UNL     1      -7.292   9.493  -3.145  0.00  0.00    -0.126 OA
ENDBRANCH  23  26
ENDBRANCH   9  20
BRANCH   8  29
ATOM     29  C   UNL     1      -1.775   4.375  -2.408  0.00  0.00    +0.184 C 
ATOM     30  O   UNL     1      -0.763   5.032  -2.293  0.00  0.00    -0.290 OA
BRANCH  29  31
ATOM     31  C   UNL     1      -1.949   3.487  -3.574  0.00  0.00    +0.106 A 
ATOM     32  C   UNL     1      -0.946   3.408  -4.541  0.00  0.00    +0.031 A 
ATOM     33  C   UNL     1      -1.125   2.570  -5.629  0.00  0.00    +0.004 A 
ATOM     34  C   UNL     1      -2.300   1.839  -5.715  0.00  0.00    +0.020 A 
ATOM     35  C   UNL     1      -3.255   1.966  -4.717  0.00  0.00    +0.111 A 
ATOM     36  N   UNL     1      -3.058   2.764  -3.692  0.00  0.00    -0.252 NA
ENDBRANCH  29  31
ENDBRANCH   8  29
TORSDOF 4
