REMARK  Name = ZINC35363830
REMARK  8 active torsions:
REMARK  status: ('A' for Active; 'I' for Inactive)
REMARK    1  A    between atoms: C_1  and  C_2
REMARK    2  A    between atoms: C_16  and  C_19
REMARK    3  A    between atoms: C_19  and  C_21
REMARK    4  A    between atoms: C_19  and  O_22
REMARK    5  A    between atoms: N_25  and  C_28
REMARK    6  A    between atoms: C_28  and  C_29
REMARK    7  A    between atoms: C_32  and  O_35
REMARK    8  A    between atoms: O_35  and  C_36
REMARK                            x       y       z     vdW  Elec       q    Type
REMARK                         _______ _______ _______ _____ _____    ______ ____
ROOT
ATOM      1  C   UNL     1      -0.341   1.745   0.312  0.00  0.00    +0.046 C 
ATOM      2  C   UNL     1      -0.343   0.241   0.210  0.00  0.00    -0.028 A 
ATOM      3  C   UNL     1      -0.464  -0.364  -1.024  0.00  0.00    +0.025 A 
ATOM      4  C   UNL     1      -0.467  -1.744  -1.128  0.00  0.00    +0.042 A 
ATOM      5  C   UNL     1      -0.347  -2.521   0.013  0.00  0.00    +0.027 A 
ATOM      6  C   UNL     1      -0.227  -1.920   1.246  0.00  0.00    +0.005 A 
ATOM      7  C   UNL     1      -0.217  -0.533   1.361  0.00  0.00    +0.042 A 
ATOM      8  N   UNL     1      -0.077  -0.160   2.700  0.00  0.00    -0.283 N 
ATOM      9  C   UNL     1       0.012  -1.228   3.517  0.00  0.00    +0.243 C 
ATOM     10  O   UNL     1       0.136  -1.207   4.723  0.00  0.00    -0.273 OA
ATOM     11  C   UNL     1      -0.086  -2.449   2.644  0.00  0.00    +0.136 C 
ATOM     12  C   UNL     1       1.163  -3.327   2.794  0.00  0.00    +0.123 C 
ATOM     13  C   UNL     1       0.741  -4.437   3.797  0.00  0.00    +0.109 C 
ATOM     14  C   UNL     1      -0.717  -4.100   4.172  0.00  0.00    +0.096 C 
ATOM     15  N   UNL     1      -1.228  -3.303   3.018  0.00  0.00    -0.293 NA
ATOM     16  C   UNL     1       0.780  -5.696   2.961  0.00  0.00    +0.228 C 
ATOM     17  O   UNL     1       0.507  -6.809   3.358  0.00  0.00    -0.275 OA
ATOM     18  N   UNL     1       1.162  -5.391   1.716  0.00  0.00    -0.237 N 
ATOM     19  C   UNL     1       1.414  -4.079   1.506  0.00  0.00    +0.229 C 
ATOM     20  O   UNL     1       1.779  -3.579   0.464  0.00  0.00    -0.275 OA
ATOM     21 CL   UNL     1      -0.620  -2.499  -2.683  0.00  0.00    -0.084 Cl
ATOM     22  H   UNL     1      -0.049   0.760   3.006  0.00  0.00    +0.155 HD
ATOM     23  H   UNL     1      -2.022  -2.745   3.292  0.00  0.00    +0.124 HD
ENDROOT
BRANCH  14  24
ATOM     24  C   UNL     1      -1.538  -5.383   4.322  0.00  0.00    +0.129 C 
ATOM     25  C   UNL     1      -1.030  -6.175   5.528  0.00  0.00    +0.039 C 
BRANCH  24  26
ATOM     26  O   UNL     1      -2.913  -5.048   4.517  0.00  0.00    -0.390 OA
ATOM     27  H   UNL     1      -3.079  -4.509   5.303  0.00  0.00    +0.210 HD
ENDBRANCH  24  26
ENDBRANCH  14  24
BRANCH  18  28
ATOM     28  C   UNL     1       1.305  -6.399   0.662  0.00  0.00    +0.151 C 
BRANCH  28  29
ATOM     29  C   UNL     1      -0.004  -6.550  -0.069  0.00  0.00    -0.029 A 
ATOM     30  C   UNL     1      -0.938  -7.469   0.371  0.00  0.00    +0.009 A 
ATOM     31  C   UNL     1      -2.139  -7.609  -0.298  0.00  0.00    +0.046 A 
ATOM     32  C   UNL     1      -2.407  -6.827  -1.412  0.00  0.00    +0.120 A 
ATOM     33  C   UNL     1      -1.468  -5.905  -1.851  0.00  0.00    +0.046 A 
ATOM     34  C   UNL     1      -0.271  -5.764  -1.176  0.00  0.00    +0.009 A 
BRANCH  32  35
ATOM     35  O   UNL     1      -3.587  -6.963  -2.072  0.00  0.00    -0.495 OA
ATOM     36  C   UNL     1      -3.794  -6.125  -3.210  0.00  0.00    +0.277 C 
ENDBRANCH  32  35
ENDBRANCH  28  29
ENDBRANCH  18  28
TORSDOF 5
