REMARK  Name = ZINC36729967
REMARK  7 active torsions:
REMARK  status: ('A' for Active; 'I' for Inactive)
REMARK    1  A    between atoms: C_1  and  C_2
REMARK    2  A    between atoms: C_2  and  O_3
REMARK    3  A    between atoms: O_3  and  C_4
REMARK    4  A    between atoms: C_11  and  C_18
REMARK    5  A    between atoms: C_13  and  O_14
REMARK    6  A    between atoms: C_18  and  N_19
REMARK    7  A    between atoms: C_27  and  C_28
REMARK                            x       y       z     vdW  Elec       q    Type
REMARK                         _______ _______ _______ _____ _____    ______ ____
ROOT
ATOM      1  C   UNL     1       0.311  -1.958   1.280  0.00  0.00    +0.405 C 
ATOM      2  O   UNL     1      -0.422  -2.750   0.711  0.00  0.00    -0.226 OA
ATOM      3  N   UNL     1       1.121  -2.379   2.241  0.00  0.00    -0.251 N 
ATOM      4  C   UNL     1       1.241  -3.709   2.496  0.00  0.00    +0.040 A 
ATOM      5  C   UNL     1       1.855  -4.141   3.686  0.00  0.00    +0.024 A 
ATOM      6  C   UNL     1       1.980  -5.467   3.952  0.00  0.00    +0.014 A 
ATOM      7  C   UNL     1       1.494  -6.416   3.035  0.00  0.00    +0.023 A 
ATOM      8  C   UNL     1       1.614  -7.797   3.293  0.00  0.00    -0.010 A 
ATOM      9  C   UNL     1       1.120  -8.688   2.361  0.00  0.00    +0.093 A 
ATOM     10  C   UNL     1       0.522  -8.216   1.202  0.00  0.00    +0.285 A 
ATOM     11  O   UNL     1       0.410  -6.905   0.960  0.00  0.00    -0.425 OA
ATOM     12  C   UNL     1       0.875  -5.992   1.837  0.00  0.00    +0.141 A 
ATOM     13  C   UNL     1       0.748  -4.639   1.579  0.00  0.00    +0.070 A 
ATOM     14  H   UNL     1       1.629  -1.738   2.763  0.00  0.00    +0.158 HD
ENDROOT
BRANCH  10  15
ATOM     15  O   UNL     1       0.043  -9.096   0.301  0.00  0.00    -0.480 OA
ATOM     16  H   UNL     1      -0.357  -8.684  -0.477  0.00  0.00    +0.295 HD
ENDBRANCH  10  15
BRANCH   1  17
ATOM     17  O   UNL     1       0.298  -0.653   0.929  0.00  0.00    -0.450 OA
BRANCH  17  19
ATOM     18  C   UNL     1      -0.474   1.233  -0.369  0.00  0.00    +0.048 C 
ATOM     19  C   UNL     1      -0.599  -0.270  -0.114  0.00  0.00    +0.230 C 
ENDBRANCH  17  19
ENDBRANCH   1  17
BRANCH   8  20
ATOM     20  C   UNL     1       2.268  -8.290   4.559  0.00  0.00    +0.160 C 
BRANCH  20  21
ATOM     21  N   UNL     1       1.235  -8.643   5.536  0.00  0.00    -0.316 N 
ATOM     22  C   UNL     1       0.544  -9.837   5.601  0.00  0.00    +0.069 A 
ATOM     23  C   UNL     1       0.565 -11.008   4.856  0.00  0.00    +0.028 A 
ATOM     24  C   UNL     1      -0.278 -12.046   5.192  0.00  0.00    +0.002 A 
ATOM     25  C   UNL     1      -1.145 -11.927   6.268  0.00  0.00    +0.002 A 
ATOM     26  C   UNL     1      -1.180 -10.782   7.012  0.00  0.00    +0.030 A 
ATOM     27  C   UNL     1      -0.335  -9.717   6.691  0.00  0.00    +0.090 A 
ATOM     28  N   UNL     1      -0.139  -8.484   7.223  0.00  0.00    -0.224 NA
ATOM     29  C   UNL     1       0.783  -7.858   6.551  0.00  0.00    +0.216 A 
BRANCH  29  30
ATOM     30  C   UNL     1       1.277  -6.466   6.851  0.00  0.00    +0.451 C 
ATOM     31  F   UNL     1       0.935  -6.124   8.164  0.00  0.00    -0.163 F 
ATOM     32  F   UNL     1       2.667  -6.423   6.704  0.00  0.00    -0.163 F 
ATOM     33  F   UNL     1       0.685  -5.561   5.964  0.00  0.00    -0.163 F 
ENDBRANCH  29  30
ENDBRANCH  20  21
ENDBRANCH   8  20
TORSDOF 6
