REMARK  Name = ZINC40304885
REMARK  4 active torsions:
REMARK  status: ('A' for Active; 'I' for Inactive)
REMARK    1  A    between atoms: C_6  and  C_7
REMARK    2  A    between atoms: C_13  and  C_15
REMARK    3  A    between atoms: C_17  and  N_22
REMARK    4  A    between atoms: C_19  and  N_21
REMARK                            x       y       z     vdW  Elec       q    Type
REMARK                         _______ _______ _______ _____ _____    ______ ____
ROOT
ATOM      1  C   UNL     1      -1.071  -0.813  -0.027  0.00  0.00    +0.107 C 
ATOM      2  C   UNL     1      -1.176  -1.345  -1.471  0.00  0.00    +0.029 C 
ATOM      3  C   UNL     1      -1.704  -2.790  -1.272  0.00  0.00    +0.021 C 
ATOM      4  C   UNL     1      -0.992  -3.203   0.040  0.00  0.00    +0.109 C 
ATOM      5  N   UNL     1      -0.978  -1.978   0.866  0.00  0.00    -0.290 N 
ATOM      6  C   UNL     1      -0.892  -1.933   2.210  0.00  0.00    +0.247 C 
ATOM      7  O   UNL     1      -0.821  -0.861   2.779  0.00  0.00    -0.270 OA
ENDROOT
BRANCH   1  13
ATOM      8  C   UNL     1       0.071   1.425   0.114  0.00  0.00    +0.025 A 
ATOM      9  C   UNL     1       1.223   2.176   0.248  0.00  0.00    +0.111 A 
ATOM     10  N   UNL     1       2.398   1.592   0.376  0.00  0.00    -0.263 NA
ATOM     11  C   UNL     1       2.523   0.279   0.382  0.00  0.00    +0.111 A 
ATOM     12  C   UNL     1       1.415  -0.537   0.253  0.00  0.00    +0.025 A 
ATOM     13  C   UNL     1       0.162   0.042   0.116  0.00  0.00    -0.024 A 
ENDBRANCH   1  13
BRANCH   6  14
ATOM     14  C   UNL     1      -0.885  -3.188   2.993  0.00  0.00    +0.040 A 
ATOM     15  C   UNL     1      -0.409  -4.367   2.419  0.00  0.00    +0.036 A 
ATOM     16  C   UNL     1      -0.403  -5.542   3.156  0.00  0.00    +0.027 A 
ATOM     17  C   UNL     1      -0.871  -5.545   4.464  0.00  0.00    +0.045 A 
ATOM     18  C   UNL     1      -1.347  -4.373   5.037  0.00  0.00    +0.027 A 
ATOM     19  C   UNL     1      -1.350  -3.193   4.308  0.00  0.00    +0.036 A 
BRANCH  18  20
ATOM     20  N   UNL     1      -1.817  -4.381   6.353  0.00  0.00    -0.358 N 
ATOM     21  H   UNL     1      -1.812  -5.205   6.865  0.00  0.00    +0.142 HD
ATOM     22  H   UNL     1      -2.150  -3.563   6.754  0.00  0.00    +0.142 HD
ENDBRANCH  18  20
BRANCH  16  23
ATOM     23  N   UNL     1       0.073  -6.723   2.583  0.00  0.00    -0.358 N 
ATOM     24  H   UNL     1       0.400  -6.721   1.670  0.00  0.00    +0.142 HD
ATOM     25  H   UNL     1       0.078  -7.545   3.098  0.00  0.00    +0.142 HD
ENDBRANCH  16  23
ENDBRANCH   6  14
TORSDOF 4
