REMARK  Name = ZINC32502761
REMARK  7 active torsions:
REMARK  status: ('A' for Active; 'I' for Inactive)
REMARK    1  A    between atoms: C_1  and  N_2
REMARK    2  A    between atoms: N_2  and  C_3
REMARK    3  A    between atoms: N_2  and  C_4
REMARK    4  A    between atoms: C_7  and  N_10
REMARK    5  A    between atoms: N_22  and  C_23
REMARK    6  A    between atoms: C_23  and  C_25
REMARK    7  A    between atoms: C_25  and  C_26
REMARK                            x       y       z     vdW  Elec       q    Type
REMARK                         _______ _______ _______ _____ _____    ______ ____
ROOT
ATOM      1  N   UNL     1      -0.523   1.466   4.913  0.00  0.00    -0.276 N 
ATOM      2  C   UNL     1      -1.507   1.851   5.897  0.00  0.00    +0.116 C 
ATOM      3  C   UNL     1      -1.079   2.135   7.349  0.00  0.00    +0.190 C 
ATOM      4  S   UNL     1      -2.641   2.952   7.931  0.00  0.00    -0.028 S 
ATOM      5  O   UNL     1      -3.517   1.962   8.450  0.00  0.00    -0.174 OA
ATOM      6  O   UNL     1      -2.306   4.079   8.729  0.00  0.00    -0.174 OA
ATOM      7  C   UNL     1      -3.290   3.538   6.296  0.00  0.00    +0.182 C 
ATOM      8  C   UNL     1      -2.120   3.216   5.412  0.00  0.00    +0.097 C 
ATOM      9  S   UNL     1      -2.358   2.721   3.688  0.00  0.00    -0.086 S 
ATOM     10  C   UNL     1      -0.894   1.676   3.588  0.00  0.00    +0.154 C 
ATOM     11  N   UNL     1      -0.299   1.213   2.495  0.00  0.00    -0.159 NA
ENDROOT
BRANCH   1  15
ATOM     12  C   UNL     1       3.171  -0.158   5.966  0.00  0.00    +0.029 A 
ATOM     13  C   UNL     1       1.998  -0.757   6.407  0.00  0.00    +0.025 A 
ATOM     14  C   UNL     1       0.775  -0.219   6.058  0.00  0.00    +0.025 A 
ATOM     15  C   UNL     1       0.718   0.920   5.266  0.00  0.00    +0.036 A 
ATOM     16  C   UNL     1       1.891   1.516   4.821  0.00  0.00    +0.025 A 
ATOM     17  C   UNL     1       3.114   0.982   5.174  0.00  0.00    +0.025 A 
BRANCH  12  19
ATOM     18  C   UNL     1       4.472  -1.972   7.048  0.00  0.00    +0.129 C 
ATOM     19  N   UNL     1       4.411  -0.703   6.318  0.00  0.00    -0.336 N 
ATOM     20  C   UNL     1       5.647  -0.005   5.958  0.00  0.00    +0.129 C 
ENDBRANCH  12  19
ENDBRANCH   1  15
BRANCH  11  21
ATOM     21  C   UNL     1      -0.789   1.512   1.294  0.00  0.00    +0.243 C 
ATOM     22  O   UNL     1      -1.782   2.207   1.198  0.00  0.00    -0.273 OA
BRANCH  21  23
ATOM     23  C   UNL     1      -0.114   0.987   0.053  0.00  0.00    +0.133 C 
BRANCH  23  24
ATOM     24  C   UNL     1      -0.861   1.465  -1.165  0.00  0.00    -0.038 A 
ATOM     25  C   UNL     1      -1.889   0.704  -1.689  0.00  0.00    +0.005 A 
ATOM     26  C   UNL     1      -2.578   1.145  -2.803  0.00  0.00    +0.020 A 
ATOM     27  C   UNL     1      -2.231   2.343  -3.401  0.00  0.00    +0.041 A 
ATOM     28  C   UNL     1      -1.198   3.102  -2.880  0.00  0.00    +0.020 A 
ATOM     29  C   UNL     1      -0.514   2.663  -1.762  0.00  0.00    +0.005 A 
ATOM     30 CL   UNL     1      -3.092   2.895  -4.804  0.00  0.00    -0.084 Cl
ENDBRANCH  23  24
ENDBRANCH  21  23
ENDBRANCH  11  21
TORSDOF 5
