REMARK  Name = ZINC12401732
REMARK  10 active torsions:
REMARK  status: ('A' for Active; 'I' for Inactive)
REMARK    1  A    between atoms: C_1  and  C_2
REMARK    2  A    between atoms: C_2  and  C_3
REMARK    3  A    between atoms: C_2  and  C_4
REMARK    4  A    between atoms: C_7  and  C_10
REMARK    5  A    between atoms: C_13  and  C_25
REMARK    6  A    between atoms: C_19  and  C_22
REMARK    7  A    between atoms: C_28  and  O_33
REMARK    8  A    between atoms: C_29  and  O_31
REMARK    9  A    between atoms: O_31  and  C_32
REMARK   10  A    between atoms: O_33  and  C_34
REMARK                            x       y       z     vdW  Elec       q    Type
REMARK                         _______ _______ _______ _____ _____    ______ ____
ROOT
ATOM      1  C   UNL     1      -0.075   1.478  -0.056  0.00  0.00    +0.102 C 
ATOM      2  C   UNL     1       1.366   2.005  -0.057  0.00  0.00    +0.040 C 
ATOM      3  C   UNL     1       1.999   1.639  -1.401  0.00  0.00    +0.053 C 
ATOM      4  C   UNL     1       1.714   0.192  -1.719  0.00  0.00    -0.017 A 
ATOM      5  C   UNL     1       2.460  -0.416  -2.716  0.00  0.00    +0.021 A 
ATOM      6  C   UNL     1       2.236  -1.737  -3.064  0.00  0.00    +0.019 A 
ATOM      7  C   UNL     1       1.262  -2.467  -2.417  0.00  0.00    +0.032 A 
ATOM      8  C   UNL     1       0.504  -1.870  -1.409  0.00  0.00    +0.085 A 
ATOM      9  C   UNL     1       0.736  -0.525  -1.052  0.00  0.00    +0.046 A 
ATOM     10  N   UNL     1      -0.038   0.014  -0.038  0.00  0.00    -0.336 N 
ATOM     11 BR   UNL     1       3.269  -2.541  -4.428  0.00  0.00    -0.050 Br
ATOM     12  H   UNL     1      -0.970  -0.371  -0.050  0.00  0.00    +0.147 HD
ENDROOT
BRANCH   1  16
ATOM     13  C   UNL     1      -2.119   2.902   3.414  0.00  0.00    -0.045 A 
ATOM     14  C   UNL     1      -2.323   3.515   2.191  0.00  0.00    +0.004 A 
ATOM     15  C   UNL     1      -1.661   3.054   1.069  0.00  0.00    +0.006 A 
ATOM     16  C   UNL     1      -0.796   1.981   1.168  0.00  0.00    -0.027 A 
ATOM     17  C   UNL     1      -0.596   1.365   2.390  0.00  0.00    +0.006 A 
ATOM     18  C   UNL     1      -1.254   1.829   3.514  0.00  0.00    +0.004 A 
BRANCH  13  20
ATOM     19  C   UNL     1      -3.708   2.284   5.215  0.00  0.00    +0.012 C 
ATOM     20  C   UNL     1      -2.841   3.405   4.638  0.00  0.00    +0.013 C 
ATOM     21  C   UNL     1      -1.819   3.851   5.685  0.00  0.00    +0.012 C 
ENDBRANCH  13  20
ENDBRANCH   1  16
BRANCH   3  22
ATOM     22  C   UNL     1       3.489   1.852  -1.328  0.00  0.00    -0.036 A 
ATOM     23  C   UNL     1       4.241   1.156  -0.399  0.00  0.00    +0.008 A 
ATOM     24  C   UNL     1       5.609   1.344  -0.332  0.00  0.00    +0.050 A 
ATOM     25  C   UNL     1       6.228   2.240  -1.188  0.00  0.00    +0.162 A 
ATOM     26  C   UNL     1       5.471   2.945  -2.118  0.00  0.00    +0.162 A 
ATOM     27  C   UNL     1       4.101   2.748  -2.184  0.00  0.00    +0.053 A 
BRANCH  26  28
ATOM     28  O   UNL     1       6.074   3.827  -2.960  0.00  0.00    -0.491 OA
ATOM     29  C   UNL     1       5.234   4.515  -3.889  0.00  0.00    +0.277 C 
ENDBRANCH  26  28
BRANCH  25  30
ATOM     30  O   UNL     1       7.573   2.431  -1.118  0.00  0.00    -0.491 OA
ATOM     31  C   UNL     1       8.286   1.673  -0.139  0.00  0.00    +0.277 C 
ENDBRANCH  25  30
ENDBRANCH   3  22
BRANCH   8  32
ATOM     32  C   UNL     1      -0.539  -2.646  -0.717  0.00  0.00    +0.388 C 
ATOM     33  O   UNL     1      -1.119  -2.167   0.238  0.00  0.00    -0.241 OA
ATOM     34  O   UNL     1      -0.851  -3.886  -1.141  0.00  0.00    -0.241 OA
ENDBRANCH   8  32
TORSDOF 6
