REMARK  Name = ZINC16675805
REMARK  6 active torsions:
REMARK  status: ('A' for Active; 'I' for Inactive)
REMARK    1  A    between atoms: C_3  and  C_7
REMARK    2  A    between atoms: N_9  and  N_10
REMARK    3  A    between atoms: C_11  and  C_12
REMARK    4  A    between atoms: C_15  and  N_18
REMARK    5  A    between atoms: C_19  and  C_31
REMARK    6  A    between atoms: C_22  and  C_24
REMARK                            x       y       z     vdW  Elec       q    Type
REMARK                         _______ _______ _______ _____ _____    ______ ____
ROOT
ATOM      1  N   UNL     1      -2.423   1.039   0.019  0.00  0.00    -0.216 N 
ATOM      2  C   UNL     1      -3.772   1.627   0.035  0.00  0.00    +0.134 C 
ATOM      3  C   UNL     1      -4.702   0.398   0.028  0.00  0.00    +0.087 C 
ATOM      4  C   UNL     1      -3.752  -0.778   0.017  0.00  0.00    +0.069 C 
ATOM      5  N   UNL     1      -2.537  -0.349   0.013  0.00  0.00    -0.183 NA
ENDROOT
BRANCH   4   6
ATOM      6  C   UNL     1      -4.154  -2.197   0.012  0.00  0.00    -0.002 A 
ATOM      7  C   UNL     1      -5.508  -2.542   0.024  0.00  0.00    +0.011 A 
ATOM      8  C   UNL     1      -5.877  -3.871   0.013  0.00  0.00    +0.020 A 
ATOM      9  C   UNL     1      -4.909  -4.862   0.004  0.00  0.00    +0.041 A 
ATOM     10  C   UNL     1      -3.566  -4.526  -0.002  0.00  0.00    +0.020 A 
ATOM     11  C   UNL     1      -3.183  -3.201   0.002  0.00  0.00    +0.011 A 
ATOM     12 CL   UNL     1      -5.382  -6.532  -0.002  0.00  0.00    -0.084 Cl
ENDBRANCH   4   6
BRANCH   2  13
ATOM     13  C   UNL     1      -3.998   2.468  -1.195  0.00  0.00    -0.025 A 
ATOM     14  C   UNL     1      -3.498   2.055  -2.416  0.00  0.00    +0.007 A 
ATOM     15  C   UNL     1      -3.710   2.822  -3.546  0.00  0.00    +0.020 A 
ATOM     16  C   UNL     1      -4.414   4.010  -3.453  0.00  0.00    +0.041 A 
ATOM     17  C   UNL     1      -4.910   4.425  -2.230  0.00  0.00    +0.020 A 
ATOM     18  C   UNL     1      -4.702   3.654  -1.102  0.00  0.00    +0.007 A 
ATOM     19 CL   UNL     1      -4.674   4.979  -4.870  0.00  0.00    -0.084 Cl
ENDBRANCH   2  13
BRANCH   1  23
ATOM     20  C   UNL     1       1.151   3.178   0.008  0.00  0.00    -0.005 A 
ATOM     21  C   UNL     1       1.171   1.780   0.000  0.00  0.00    +0.011 A 
ATOM     22  C   UNL     1      -0.013   1.076   0.008  0.00  0.00    +0.025 A 
ATOM     23  C   UNL     1      -1.228   1.754   0.017  0.00  0.00    +0.052 A 
ATOM     24  C   UNL     1      -1.251   3.146   0.031  0.00  0.00    +0.025 A 
ATOM     25  C   UNL     1      -0.071   3.856   0.023  0.00  0.00    +0.011 A 
BRANCH  20  27
ATOM     26  N   UNL     1       2.395   5.232   0.007  0.00  0.00    -0.187 NA
ATOM     27  C   UNL     1       2.415   3.934  -0.000  0.00  0.00    +0.138 C 
BRANCH  26  30
ATOM     28  C   UNL     1       3.577   7.299   0.006  0.00  0.00    +0.265 C 
ATOM     29  O   UNL     1       2.514   7.891   0.020  0.00  0.00    -0.268 OA
ATOM     30  N   UNL     1       3.598   5.952  -0.001  0.00  0.00    -0.203 N 
ATOM     31  H   UNL     1       4.445   5.480  -0.012  0.00  0.00    +0.178 HD
BRANCH  28  34
ATOM     32  C   UNL     1       6.052  10.121  -0.005  0.00  0.00    +0.020 A 
ATOM     33  C   UNL     1       4.837   9.458  -0.001  0.00  0.00    +0.016 A 
ATOM     34  C   UNL     1       4.845   8.058  -0.002  0.00  0.00    +0.056 A 
ATOM     35  C   UNL     1       6.071   7.391  -0.018  0.00  0.00    +0.123 A 
ATOM     36  N   UNL     1       7.201   8.067  -0.026  0.00  0.00    -0.263 NA
ATOM     37  C   UNL     1       7.223   9.386  -0.019  0.00  0.00    +0.111 A 
ENDBRANCH  28  34
ENDBRANCH  26  30
ENDBRANCH  20  27
ENDBRANCH   1  23
TORSDOF 6
