REMARK  Name = ZINC36580038
REMARK  8 active torsions:
REMARK  status: ('A' for Active; 'I' for Inactive)
REMARK    1  A    between atoms: C_1  and  C_2
REMARK    2  A    between atoms: C_2  and  C_3
REMARK    3  A    between atoms: C_2  and  C_4
REMARK    4  A    between atoms: C_4  and  C_6
REMARK    5  A    between atoms: C_4  and  N_10
REMARK    6  A    between atoms: C_6  and  O_8
REMARK    7  A    between atoms: O_8  and  C_9
REMARK    8  A    between atoms: C_22  and  C_24
REMARK                            x       y       z     vdW  Elec       q    Type
REMARK                         _______ _______ _______ _____ _____    ______ ____
ROOT
ATOM      1  N   UNL     1      -2.602   1.706  -0.211  0.00  0.00    -0.286 N 
ATOM      2  C   UNL     1      -2.781   1.020  -1.357  0.00  0.00    +0.304 C 
ATOM      3  O   UNL     1      -2.242  -0.060  -1.509  0.00  0.00    -0.253 OA
ATOM      4  N   UNL     1      -3.557   1.529  -2.333  0.00  0.00    -0.273 N 
ATOM      5  C   UNL     1      -3.875   0.739  -3.532  0.00  0.00    +0.116 C 
ATOM      6  C   UNL     1      -5.385   0.473  -3.571  0.00  0.00    +0.074 C 
ATOM      7  C   UNL     1      -6.112   1.752  -3.250  0.00  0.00    +0.040 A 
ATOM      8  C   UNL     1      -5.555   2.827  -2.651  0.00  0.00    +0.062 A 
ATOM      9  N   UNL     1      -6.495   3.766  -2.525  0.00  0.00    -0.348 N 
ATOM     10  C   UNL     1      -7.617   3.319  -3.026  0.00  0.00    +0.171 A 
ATOM     11  N   UNL     1      -7.416   2.064  -3.490  0.00  0.00    -0.349 N 
ATOM     12  H   UNL     1      -8.077   1.493  -3.913  0.00  0.00    +0.166 HD
ATOM     13  C   UNL     1      -4.112   2.890  -2.224  0.00  0.00    +0.157 C 
ATOM     14  H   UNL     1      -2.968   2.600  -0.118  0.00  0.00    +0.151 HD
ATOM     15  H   UNL     1      -6.366   4.641  -2.126  0.00  0.00    +0.167 HD
ENDROOT
BRANCH  13  16
ATOM     16  C   UNL     1      -3.354   3.828  -3.129  0.00  0.00    -0.003 A 
ATOM     17  C   UNL     1      -3.915   4.237  -4.325  0.00  0.00    +0.009 A 
ATOM     18  C   UNL     1      -3.221   5.096  -5.155  0.00  0.00    +0.020 A 
ATOM     19  C   UNL     1      -1.965   5.548  -4.790  0.00  0.00    +0.042 A 
ATOM     20  C   UNL     1      -1.404   5.140  -3.593  0.00  0.00    +0.040 A 
ATOM     21  C   UNL     1      -2.102   4.283  -2.760  0.00  0.00    +0.048 A 
ATOM     22 CL   UNL     1      -1.401   3.775  -1.255  0.00  0.00    -0.083 Cl
ATOM     23 CL   UNL     1      -1.093   6.628  -5.833  0.00  0.00    -0.083 Cl
ENDBRANCH  13  16
BRANCH   1  24
ATOM     24  C   UNL     1      -1.853   1.104   0.895  0.00  0.00    +0.186 C 
BRANCH  24  26
ATOM     25  C   UNL     1      -3.386  -0.869   0.858  0.00  0.00    +0.009 C 
ATOM     26  C   UNL     1      -2.793   0.236   1.734  0.00  0.00    +0.014 C 
ATOM     27  C   UNL     1      -2.011  -0.393   2.889  0.00  0.00    +0.009 C 
ENDBRANCH  24  26
BRANCH  24  28
ATOM     28  C   UNL     1      -1.269   2.192   1.758  0.00  0.00    +0.328 C 
ATOM     29  O   UNL     1      -1.459   3.353   1.479  0.00  0.00    -0.249 OA
BRANCH  28  30
ATOM     30  O   UNL     1      -0.539   1.873   2.838  0.00  0.00    -0.467 OA
ATOM     31  C   UNL     1      -0.016   2.956   3.611  0.00  0.00    +0.280 C 
ENDBRANCH  28  30
ENDBRANCH  24  28
ENDBRANCH   1  24
TORSDOF 5
