REMARK  Name = ZINC10644818
REMARK  8 active torsions:
REMARK  status: ('A' for Active; 'I' for Inactive)
REMARK    1  A    between atoms: C_1  and  C_2
REMARK    2  A    between atoms: C_4  and  C_26
REMARK    3  A    between atoms: C_8  and  N_25
REMARK    4  A    between atoms: C_9  and  C_11
REMARK    5  A    between atoms: C_11  and  O_13
REMARK    6  A    between atoms: O_13  and  C_14
REMARK    7  A    between atoms: C_14  and  C_15
REMARK    8  A    between atoms: N_17  and  C_18
REMARK                            x       y       z     vdW  Elec       q    Type
REMARK                         _______ _______ _______ _____ _____    ______ ____
ROOT
ATOM      1  C   UNL     1      -2.033   1.706   0.392  0.00  0.00    +0.044 C 
ATOM      2  C   UNL     1      -1.899   0.223   0.163  0.00  0.00    -0.037 A 
ATOM      3  C   UNL     1      -2.505  -0.374  -0.918  0.00  0.00    +0.025 A 
ATOM      4  C   UNL     1      -2.380  -1.740  -1.126  0.00  0.00    +0.014 A 
ATOM      5  N   UNL     1      -1.681  -2.482  -0.290  0.00  0.00    -0.353 N 
ATOM      6  C   UNL     1      -1.083  -1.958   0.758  0.00  0.00    +0.088 A 
ATOM      7  C   UNL     1      -1.144  -0.577   1.056  0.00  0.00    +0.030 A 
ATOM      8  C   UNL     1      -0.420  -0.170   2.250  0.00  0.00    +0.055 A 
ATOM      9  C   UNL     1       0.252  -1.136   2.969  0.00  0.00    +0.119 A 
ATOM     10  S   UNL     1      -0.084  -2.633   2.062  0.00  0.00    -0.062 S 
ATOM     11  C   UNL     1      -3.049  -2.380  -2.315  0.00  0.00    +0.063 C 
ATOM     12  H   UNL     1      -1.605  -3.436  -0.452  0.00  0.00    +0.166 HD
ENDROOT
BRANCH   8  13
ATOM     13  N   UNL     1      -0.404   1.157   2.654  0.00  0.00    -0.356 N 
ATOM     14  H   UNL     1      -0.610   1.860   2.018  0.00  0.00    +0.142 HD
ATOM     15  H   UNL     1      -0.189   1.381   3.573  0.00  0.00    +0.142 HD
ENDBRANCH   8  13
BRANCH   9  16
ATOM     16  C   UNL     1       1.015  -0.978   4.149  0.00  0.00    +0.348 C 
ATOM     17  O   UNL     1       1.139   0.124   4.651  0.00  0.00    -0.244 OA
BRANCH  16  18
ATOM     18  O   UNL     1       1.606  -2.049   4.719  0.00  0.00    -0.451 OA
BRANCH  18  19
ATOM     19  C   UNL     1       2.362  -1.817   5.909  0.00  0.00    +0.328 C 
BRANCH  19  20
ATOM     20  C   UNL     1       2.943  -3.119   6.397  0.00  0.00    +0.255 C 
ATOM     21  O   UNL     1       2.731  -4.145   5.786  0.00  0.00    -0.272 OA
ATOM     22  N   UNL     1       3.699  -3.143   7.513  0.00  0.00    -0.283 N 
ATOM     23  H   UNL     1       3.866  -2.323   8.004  0.00  0.00    +0.155 HD
BRANCH  22  24
ATOM     24  C   UNL     1       4.241  -4.352   7.965  0.00  0.00    +0.034 A 
ATOM     25  C   UNL     1       4.465  -4.550   9.321  0.00  0.00    +0.024 A 
ATOM     26  C   UNL     1       5.000  -5.744   9.764  0.00  0.00    +0.017 A 
ATOM     27  C   UNL     1       5.314  -6.741   8.858  0.00  0.00    +0.018 A 
ATOM     28  C   UNL     1       5.092  -6.546   7.506  0.00  0.00    +0.017 A 
ATOM     29  C   UNL     1       4.552  -5.356   7.058  0.00  0.00    +0.024 A 
ATOM     30 BR   UNL     1       6.047  -8.374   9.468  0.00  0.00    -0.050 Br
ENDBRANCH  22  24
ENDBRANCH  19  20
ENDBRANCH  18  19
ENDBRANCH  16  18
ENDBRANCH   9  16
TORSDOF 6
