REMARK  Name = ZINC39595797
REMARK  8 active torsions:
REMARK  status: ('A' for Active; 'I' for Inactive)
REMARK    1  A    between atoms: C_1  and  C_2
REMARK    2  A    between atoms: C_2  and  C_4
REMARK    3  A    between atoms: C_2  and  O_32
REMARK    4  A    between atoms: C_4  and  N_5
REMARK    5  A    between atoms: C_6  and  C_8
REMARK    6  A    between atoms: C_19  and  C_21
REMARK    7  A    between atoms: C_24  and  C_28
REMARK    8  A    between atoms: O_32  and  C_33
REMARK                            x       y       z     vdW  Elec       q    Type
REMARK                         _______ _______ _______ _____ _____    ______ ____
ROOT
ATOM      1  C   UNL     1       0.345  -3.302   2.246  0.00  0.00    +0.100 C 
ATOM      2  C   UNL     1       0.579  -3.904   0.842  0.00  0.00    +0.121 C 
ATOM      3  N   UNL     1       2.020  -4.248   0.819  0.00  0.00    -0.296 N 
ATOM      4  C   UNL     1       2.294  -4.782   2.175  0.00  0.00    +0.115 C 
ATOM      5  C   UNL     1       1.470  -3.884   3.118  0.00  0.00    -0.004 C 
ATOM      6  C   UNL     1       2.343  -2.762   3.672  0.00  0.00    -0.010 C 
ATOM      7  C   UNL     1       3.420  -3.361   4.581  0.00  0.00    -0.082 C 
ATOM      8  N   UNL     1       2.781  -4.099   5.678  0.00  0.00    +0.379 N 
ATOM      9  C   UNL     1       2.018  -5.232   5.142  0.00  0.00    -0.082 C 
ATOM     10  C   UNL     1       0.882  -4.712   4.257  0.00  0.00    -0.010 C 
ATOM     11  C   UNL     1       2.887  -4.108  -0.204  0.00  0.00    +0.249 C 
ATOM     12  O   UNL     1       4.025  -4.522  -0.098  0.00  0.00    -0.270 OA
ATOM     13  H   UNL     1       3.490  -4.441   6.309  0.00  0.00    -0.086 HD
ATOM     14  H   UNL     1       2.159  -3.482   6.179  0.00  0.00    -0.086 HD
ENDROOT
BRANCH  11  15
ATOM     15  C   UNL     1       2.453  -3.452  -1.454  0.00  0.00    +0.072 A 
ATOM     16  C   UNL     1       1.193  -3.727  -1.991  0.00  0.00    +0.016 A 
ATOM     17  C   UNL     1       0.795  -3.111  -3.158  0.00  0.00    +0.013 A 
ATOM     18  C   UNL     1       1.639  -2.221  -3.800  0.00  0.00    +0.058 A 
ATOM     19  C   UNL     1       2.888  -1.943  -3.277  0.00  0.00    +0.051 A 
ATOM     20  C   UNL     1       3.300  -2.549  -2.104  0.00  0.00    +0.136 A 
ATOM     21  F   UNL     1       4.519  -2.273  -1.590  0.00  0.00    -0.205 F 
BRANCH  18  22
ATOM     22  C   UNL     1       1.195  -1.553  -5.075  0.00  0.00    +0.418 C 
ATOM     23  F   UNL     1       0.543  -0.353  -4.771  0.00  0.00    -0.166 F 
ATOM     24  F   UNL     1       2.311  -1.288  -5.876  0.00  0.00    -0.166 F 
ATOM     25  F   UNL     1       0.318  -2.399  -5.763  0.00  0.00    -0.166 F 
ENDBRANCH  18  22
ENDBRANCH  11  15
BRANCH   1  27
ATOM     26  N   UNL     1      -0.156  -1.052   3.144  0.00  0.00    -0.312 N 
ATOM     27  C   UNL     1       0.444  -1.799   2.196  0.00  0.00    +0.218 C 
ATOM     28  O   UNL     1       1.063  -1.261   1.303  0.00  0.00    -0.275 OA
ATOM     29  H   UNL     1      -0.652  -1.482   3.859  0.00  0.00    +0.149 HD
BRANCH  26  30
ATOM     30  C   UNL     1      -0.060   0.409   3.095  0.00  0.00    +0.148 C 
BRANCH  30  32
ATOM     31  C   UNL     1      -0.723   2.536   4.227  0.00  0.00    +0.053 C 
ATOM     32  C   UNL     1      -0.823   1.010   4.278  0.00  0.00    +0.187 C 
BRANCH  32  33
ATOM     33  O   UNL     1      -2.196   0.620   4.207  0.00  0.00    -0.488 OA
BRANCH  33  34
ATOM     34  C   UNL     1      -2.879   0.549   5.380  0.00  0.00    +0.121 A 
ATOM     35  C   UNL     1      -4.180   0.069   5.398  0.00  0.00    +0.048 A 
ATOM     36  C   UNL     1      -4.873  -0.002   6.591  0.00  0.00    +0.042 A 
ATOM     37  C   UNL     1      -4.270   0.406   7.768  0.00  0.00    +0.124 A 
ATOM     38  C   UNL     1      -2.971   0.886   7.752  0.00  0.00    +0.042 A 
ATOM     39  C   UNL     1      -2.274   0.952   6.561  0.00  0.00    +0.048 A 
ATOM     40  F   UNL     1      -4.949   0.336   8.934  0.00  0.00    -0.205 F 
ENDBRANCH  33  34
ENDBRANCH  32  33
ENDBRANCH  30  32
ENDBRANCH  26  30
ENDBRANCH   1  27
TORSDOF 7
