REMARK  Name = ZINC04266017
REMARK  8 active torsions:
REMARK  status: ('A' for Active; 'I' for Inactive)
REMARK    1  A    between atoms: C_3  and  N_26
REMARK    2  A    between atoms: C_6  and  N_7
REMARK    3  A    between atoms: N_8  and  C_9
REMARK    4  A    between atoms: C_12  and  N_15
REMARK    5  A    between atoms: N_16  and  C_17
REMARK    6  A    between atoms: C_20  and  S_23
REMARK    7  A    between atoms: N_27  and  C_28
REMARK    8  A    between atoms: C_31  and  S_34
REMARK                            x       y       z     vdW  Elec       q    Type
REMARK                         _______ _______ _______ _____ _____    ______ ____
ROOT
ATOM      1  N   UNL     1      -6.569   4.899  10.295  0.00  0.00    -0.149 NA
ATOM      2  N   UNL     1      -5.710   5.708   9.772  0.00  0.00    -0.149 NA
ENDROOT
BRANCH   1   8
ATOM      3  C   UNL     1      -7.063   6.535  11.972  0.00  0.00    +0.032 A 
ATOM      4  C   UNL     1      -7.773   6.912  13.075  0.00  0.00    +0.032 A 
ATOM      5  C   UNL     1      -8.704   6.034  13.642  0.00  0.00    +0.086 A 
ATOM      6  C   UNL     1      -8.912   4.771  13.074  0.00  0.00    +0.032 A 
ATOM      7  C   UNL     1      -8.206   4.396  11.967  0.00  0.00    +0.032 A 
ATOM      8  C   UNL     1      -7.274   5.274  11.400  0.00  0.00    +0.086 A 
BRANCH   5   9
ATOM      9  N   UNL     1      -9.409   6.409  14.748  0.00  0.00    -0.149 NA
ATOM     10  N   UNL     1      -9.218   7.572  15.272  0.00  0.00    -0.149 NA
BRANCH  10  11
ATOM     11  C   UNL     1      -9.924   7.948  16.379  0.00  0.00    +0.086 A 
ATOM     12  C   UNL     1     -10.859   7.076  16.945  0.00  0.00    +0.031 A 
ATOM     13  C   UNL     1     -11.564   7.459  18.067  0.00  0.00    +0.032 A 
ATOM     14  C   UNL     1     -11.355   8.709  18.625  0.00  0.00    +0.120 A 
ATOM     15  C   UNL     1     -10.436   9.579  18.067  0.00  0.00    +0.032 A 
ATOM     16  C   UNL     1      -9.719   9.208  16.949  0.00  0.00    +0.031 A 
BRANCH  14  17
ATOM     17  S   UNL     1     -12.265   9.192  20.054  0.00  0.00    +0.140 S 
ATOM     18  O   UNL     1     -12.666   7.994  20.706  0.00  0.00    -0.140 OA
ATOM     19  O   UNL     1     -11.496  10.193  20.706  0.00  0.00    -0.140 OA
ATOM     20  O   UNL     1     -13.539   9.870  19.569  0.00  0.00    -0.043 OA
ENDBRANCH  14  17
ENDBRANCH  10  11
ENDBRANCH   5   9
ENDBRANCH   1   8
BRANCH   2  21
ATOM     21  C   UNL     1      -5.005   5.333   8.667  0.00  0.00    +0.086 A 
ATOM     22  C   UNL     1      -4.074   6.211   8.100  0.00  0.00    +0.032 A 
ATOM     23  C   UNL     1      -3.368   5.836   6.993  0.00  0.00    +0.032 A 
ATOM     24  C   UNL     1      -3.576   4.574   6.425  0.00  0.00    +0.086 A 
ATOM     25  C   UNL     1      -4.511   3.698   6.988  0.00  0.00    +0.032 A 
ATOM     26  C   UNL     1      -5.213   4.070   8.099  0.00  0.00    +0.032 A 
BRANCH  24  27
ATOM     27  N   UNL     1      -2.871   4.199   5.318  0.00  0.00    -0.149 NA
ATOM     28  N   UNL     1      -3.063   3.035   4.794  0.00  0.00    -0.149 NA
BRANCH  28  29
ATOM     29  C   UNL     1      -2.357   2.660   3.687  0.00  0.00    +0.086 A 
ATOM     30  C   UNL     1      -2.562   1.401   3.116  0.00  0.00    +0.031 A 
ATOM     31  C   UNL     1      -1.846   1.029   1.998  0.00  0.00    +0.032 A 
ATOM     32  C   UNL     1      -0.927   1.900   1.439  0.00  0.00    +0.120 A 
ATOM     33  C   UNL     1      -0.714   3.147   2.002  0.00  0.00    +0.032 A 
ATOM     34  C   UNL     1      -1.426   3.535   3.117  0.00  0.00    +0.031 A 
BRANCH  32  35
ATOM     35  S   UNL     1      -0.017   1.417   0.010  0.00  0.00    +0.140 S 
ATOM     36  O   UNL     1       0.002  -0.004   0.002  0.00  0.00    -0.140 OA
ATOM     37  O   UNL     1       1.172   2.195   0.003  0.00  0.00    -0.140 OA
ATOM     38  O   UNL     1      -0.826   1.847  -1.205  0.00  0.00    -0.043 OA
ENDBRANCH  32  35
ENDBRANCH  28  29
ENDBRANCH  24  27
ENDBRANCH   2  21
TORSDOF 8
