REMARK  Name = ZINC35486593
REMARK  16 active torsions:
REMARK  status: ('A' for Active; 'I' for Inactive)
REMARK    1  A    between atoms: C_1  and  C_2
REMARK    2  A    between atoms: C_2  and  O_3
REMARK    3  A    between atoms: O_3  and  C_4
REMARK    4  A    between atoms: C_6  and  C_16
REMARK    5  A    between atoms: C_9  and  O_10
REMARK    6  A    between atoms: O_10  and  C_11
REMARK    7  A    between atoms: C_11  and  C_12
REMARK    8  A    between atoms: C_12  and  C_13
REMARK    9  A    between atoms: C_13  and  C_14
REMARK   10  A    between atoms: C_13  and  C_15
REMARK   11  A    between atoms: C_23  and  C_37
REMARK   12  A    between atoms: N_31  and  C_32
REMARK   13  A    between atoms: C_32  and  C_33
REMARK   14  A    between atoms: C_33  and  N_34
REMARK   15  A    between atoms: N_34  and  C_35
REMARK   16  A    between atoms: N_34  and  C_36
REMARK                            x       y       z     vdW  Elec       q    Type
REMARK                         _______ _______ _______ _____ _____    ______ ____
ROOT
ATOM      1  C   UNL     1      -0.229  -4.969   0.477  0.00  0.00    +0.145 C 
ATOM      2  C   UNL     1      -1.522  -5.536  -0.009  0.00  0.00    +0.072 A 
ATOM      3  C   UNL     1      -2.786  -4.887  -0.372  0.00  0.00    +0.199 A 
ATOM      4  O   UNL     1      -2.908  -3.680  -0.486  0.00  0.00    -0.287 OA
ATOM      5  C   UNL     1      -3.903  -5.841  -0.588  0.00  0.00    +0.065 A 
ATOM      6  C   UNL     1      -5.209  -5.376  -0.743  0.00  0.00    +0.018 A 
ATOM      7  C   UNL     1      -6.228  -6.268  -0.935  0.00  0.00    -0.050 A 
ATOM      8  C   UNL     1      -5.965  -7.630  -0.976  0.00  0.00    +0.007 A 
ATOM      9  C   UNL     1      -4.682  -8.106  -0.828  0.00  0.00    +0.047 A 
ATOM     10  C   UNL     1      -3.625  -7.217  -0.632  0.00  0.00    +0.139 A 
ATOM     11  O   UNL     1      -2.371  -7.706  -0.498  0.00  0.00    -0.450 OA
ATOM     12  C   UNL     1      -1.380  -6.892  -0.084  0.00  0.00    +0.199 A 
ATOM     13  C   UNL     1      -0.016  -7.239   0.352  0.00  0.00    +0.283 C 
ATOM     14  O   UNL     1       0.432  -8.367   0.407  0.00  0.00    -0.267 OA
ATOM     15  N   UNL     1       0.665  -6.120   0.682  0.00  0.00    -0.285 N 
ATOM     16  C   UNL     1      -7.640  -5.770  -1.103  0.00  0.00    +0.044 C 
ENDROOT
BRANCH   1  19
ATOM     17  C   UNL     1       0.777  -1.811  -1.336  0.00  0.00    +0.162 A 
ATOM     18  C   UNL     1       0.243  -2.669  -0.388  0.00  0.00    +0.055 A 
ATOM     19  C   UNL     1       0.352  -4.037  -0.555  0.00  0.00    -0.019 A 
ATOM     20  C   UNL     1       0.992  -4.552  -1.667  0.00  0.00    +0.009 A 
ATOM     21  C   UNL     1       1.526  -3.702  -2.616  0.00  0.00    +0.050 A 
ATOM     22  C   UNL     1       1.416  -2.330  -2.458  0.00  0.00    +0.162 A 
BRANCH  17  23
ATOM     23  O   UNL     1       0.671  -0.465  -1.174  0.00  0.00    -0.489 OA
BRANCH  23  25
ATOM     24  C   UNL     1      -0.019   1.526   0.010  0.00  0.00    +0.048 C 
ATOM     25  C   UNL     1       0.002  -0.004   0.002  0.00  0.00    +0.226 C 
ENDBRANCH  23  25
ENDBRANCH  17  23
BRANCH  22  26
ATOM     26  O   UNL     1       1.936  -1.492  -3.394  0.00  0.00    -0.488 OA
BRANCH  26  27
ATOM     27  C   UNL     1       2.578  -2.095  -4.520  0.00  0.00    +0.229 C 
BRANCH  27  28
ATOM     28  C   UNL     1       3.096  -1.002  -5.457  0.00  0.00    +0.044 C 
BRANCH  28  29
ATOM     29  C   UNL     1       3.783  -1.648  -6.662  0.00  0.00    -0.014 C 
ATOM     30  C   UNL     1       4.191  -0.561  -7.660  0.00  0.00    +0.007 C 
ATOM     31  C   UNL     1       5.029  -2.404  -6.194  0.00  0.00    +0.007 C 
ENDBRANCH  28  29
ENDBRANCH  27  28
ENDBRANCH  26  27
ENDBRANCH  22  26
ENDBRANCH   1  19
BRANCH  15  32
ATOM     32  C   UNL     1       2.049  -6.062   1.159  0.00  0.00    +0.090 C 
BRANCH  32  33
ATOM     33  C   UNL     1       2.066  -6.160   2.686  0.00  0.00    -0.060 C 
BRANCH  33  34
ATOM     34  N   UNL     1       3.454  -6.101   3.165  0.00  0.00    +0.377 N 
ATOM     35  C   UNL     1       3.465  -6.074   4.633  0.00  0.00    -0.097 C 
ATOM     36  C   UNL     1       4.186  -7.283   2.691  0.00  0.00    -0.097 C 
ATOM     37  H   UNL     1       3.897  -5.266   2.810  0.00  0.00    -0.083 HD
ENDBRANCH  33  34
ENDBRANCH  32  33
ENDBRANCH  15  32
TORSDOF 10
