REMARK  Name = ZINC53519041
REMARK  5 active torsions:
REMARK  status: ('A' for Active; 'I' for Inactive)
REMARK    1  A    between atoms: C_4  and  O_28
REMARK    2  A    between atoms: C_5  and  N_7
REMARK    3  A    between atoms: N_15  and  C_16
REMARK    4  A    between atoms: C_16  and  C_17
REMARK    5  A    between atoms: C_17  and  C_18
REMARK                            x       y       z     vdW  Elec       q    Type
REMARK                         _______ _______ _______ _____ _____    ______ ____
ROOT
ATOM      1  N   UNL     1       1.235  -2.080  -0.017  0.00  0.00    -0.324 N 
ATOM      2  C   UNL     1       1.248  -2.836   1.244  0.00  0.00    +0.124 C 
ATOM      3  C   UNL     1       0.069  -3.816   1.240  0.00  0.00    +0.128 C 
ATOM      4  N   UNL     1       0.078  -4.557  -0.030  0.00  0.00    -0.283 N 
ATOM      5  C   UNL     1       0.066  -3.802  -1.291  0.00  0.00    +0.128 C 
ATOM      6  C   UNL     1       1.239  -2.821  -1.286  0.00  0.00    +0.124 C 
ATOM      7  C   UNL     1       0.099  -5.904  -0.038  0.00  0.00    +0.302 C 
ATOM      8  O   UNL     1       0.206  -6.517   1.007  0.00  0.00    -0.253 OA
ATOM      9  N   UNL     1       0.002  -6.573  -1.204  0.00  0.00    -0.299 N 
ATOM     10  H   UNL     1      -0.010  -6.086  -2.043  0.00  0.00    +0.150 HD
ENDROOT
BRANCH   1  15
ATOM     11  C   UNL     1      -0.016   1.378   0.009  0.00  0.00    +0.002 A 
ATOM     12  C   UNL     1       1.170   2.089   0.007  0.00  0.00    +0.004 A 
ATOM     13  C   UNL     1       2.381   1.421  -0.004  0.00  0.00    +0.047 A 
ATOM     14  C   UNL     1       2.408   0.036  -0.011  0.00  0.00    +0.138 A 
ATOM     15  C   UNL     1       1.214  -0.681  -0.009  0.00  0.00    +0.072 A 
ATOM     16  C   UNL     1       0.003  -0.004   0.002  0.00  0.00    +0.027 A 
BRANCH  14  17
ATOM     17  O   UNL     1       3.598  -0.623  -0.022  0.00  0.00    -0.505 OA
ATOM     18  H   UNL     1       3.948  -0.818   0.858  0.00  0.00    +0.292 HD
ENDBRANCH  14  17
ENDBRANCH   1  15
BRANCH   9  19
ATOM     19  C   UNL     1      -0.086  -8.036  -1.205  0.00  0.00    +0.106 C 
BRANCH  19  20
ATOM     20  C   UNL     1      -0.187  -8.540  -2.646  0.00  0.00    +0.025 C 
BRANCH  20  21
ATOM     21  C   UNL     1      -0.279 -10.067  -2.647  0.00  0.00    -0.027 C 
ATOM     22  C   UNL     1       0.972 -10.653  -1.988  0.00  0.00    +0.010 C 
ATOM     23  C   UNL     1       0.880 -12.180  -1.988  0.00  0.00    -0.010 C 
ATOM     24  C   UNL     1       0.779 -12.684  -3.429  0.00  0.00    +0.007 C 
ATOM     25  C   UNL     1      -0.471 -12.098  -4.088  0.00  0.00    -0.010 C 
ATOM     26  C   UNL     1      -0.380 -10.571  -4.088  0.00  0.00    +0.010 C 
ATOM     27  C   UNL     1      -1.712 -12.535  -3.307  0.00  0.00    +0.007 C 
ATOM     28  C   UNL     1      -1.611 -12.031  -1.866  0.00  0.00    -0.010 C 
ATOM     29  C   UNL     1      -0.361 -12.617  -1.207  0.00  0.00    +0.007 C 
ATOM     30  C   UNL     1      -1.520 -10.504  -1.865  0.00  0.00    +0.010 C 
ENDBRANCH  20  21
ENDBRANCH  19  20
ENDBRANCH   9  19
TORSDOF 5
