REMARK  Name = ZINC65098383
REMARK  10 active torsions:
REMARK  status: ('A' for Active; 'I' for Inactive)
REMARK    1  A    between atoms: C_1  and  C_2
REMARK    2  A    between atoms: C_2  and  C_3
REMARK    3  A    between atoms: C_3  and  N_4
REMARK    4  A    between atoms: C_7  and  C_15
REMARK    5  A    between atoms: C_17  and  C_20
REMARK    6  A    between atoms: C_20  and  C_22
REMARK    7  A    between atoms: C_20  and  N_25
REMARK    8  A    between atoms: C_22  and  C_23
REMARK    9  A    between atoms: C_22  and  C_24
REMARK   10  A    between atoms: C_26  and  C_28
REMARK                            x       y       z     vdW  Elec       q    Type
REMARK                         _______ _______ _______ _____ _____    ______ ____
ROOT
ATOM      1  C   UNL     1       4.642  -2.065   1.715  0.00  0.00    +0.202 A 
ATOM      2  N   UNL     1       5.689  -2.641   2.333  0.00  0.00    -0.190 NA
ATOM      3  C   UNL     1       6.300  -1.768   3.082  0.00  0.00    +0.248 A 
ATOM      4  O   UNL     1       5.665  -0.595   2.972  0.00  0.00    -0.336 OA
ATOM      5  N   UNL     1       4.587  -0.805   2.072  0.00  0.00    -0.056 NA
ENDROOT
BRANCH   1   9
ATOM      6  N   UNL     1       0.738  -1.962  -1.265  0.00  0.00    -0.265 N 
ATOM      7  C   UNL     1       1.797  -2.663  -0.669  0.00  0.00    +0.079 A 
ATOM      8  C   UNL     1       2.662  -2.027   0.201  0.00  0.00    +0.039 A 
ATOM      9  C   UNL     1       3.709  -2.742   0.781  0.00  0.00    +0.024 A 
ATOM     10  C   UNL     1       3.878  -4.093   0.483  0.00  0.00    +0.015 A 
ATOM     11  C   UNL     1       3.012  -4.724  -0.386  0.00  0.00    +0.048 A 
ATOM     12  C   UNL     1       1.970  -4.016  -0.964  0.00  0.00    +0.143 A 
ATOM     13  O   UNL     1       1.109  -4.629  -1.819  0.00  0.00    -0.481 OA
ATOM     14  C   UNL     1      -0.244  -4.166  -1.810  0.00  0.00    +0.325 C 
ATOM     15  C   UNL     1      -0.266  -2.659  -1.841  0.00  0.00    +0.258 C 
ATOM     16  O   UNL     1      -1.179  -2.074  -2.384  0.00  0.00    -0.272 OA
BRANCH   6  17
ATOM     17  C   UNL     1       0.718  -0.497  -1.257  0.00  0.00    +0.113 C 
BRANCH  17  19
ATOM     18  C   UNL     1      -0.019   1.526   0.010  0.00  0.00    +0.005 C 
ATOM     19  C   UNL     1       0.002  -0.004   0.002  0.00  0.00    +0.016 C 
ENDBRANCH  17  19
ENDBRANCH   6  17
ENDBRANCH   1   9
BRANCH   3  20
ATOM     20  C   UNL     1       7.517  -2.034   3.930  0.00  0.00    +0.165 C 
BRANCH  20  21
ATOM     21  N   UNL     1       7.332  -1.431   5.253  0.00  0.00    -0.297 N 
ATOM     22  C   UNL     1       7.995  -1.925   6.317  0.00  0.00    +0.280 C 
ATOM     23  O   UNL     1       8.748  -2.871   6.180  0.00  0.00    -0.267 OA
ATOM     24  H   UNL     1       6.732  -0.677   5.362  0.00  0.00    +0.150 HD
BRANCH  22  25
ATOM     25  C   UNL     1       7.810  -1.321   7.641  0.00  0.00    +0.189 A 
ATOM     26  C   UNL     1       8.422  -1.717   8.796  0.00  0.00    +0.054 A 
ATOM     27  C   UNL     1       7.956  -0.866   9.811  0.00  0.00    +0.042 A 
ATOM     28  C   UNL     1       7.092   0.000   9.238  0.00  0.00    +0.196 A 
ATOM     29  O   UNL     1       7.010  -0.274   7.930  0.00  0.00    -0.458 OA
ENDBRANCH  22  25
ENDBRANCH  20  21
BRANCH  20  30
ATOM     30  C   UNL     1       8.749  -1.425   3.260  0.00  0.00    +0.012 C 
ATOM     31  C   UNL     1       8.608   0.098   3.221  0.00  0.00    +0.009 C 
ATOM     32  C   UNL     1      10.001  -1.801   4.055  0.00  0.00    +0.009 C 
ENDBRANCH  20  30
ENDBRANCH   3  20
TORSDOF 7
