REMARK  Name = ZINC36017361
REMARK  16 active torsions:
REMARK  status: ('A' for Active; 'I' for Inactive)
REMARK    1  A    between atoms: C_1  and  C_2
REMARK    2  A    between atoms: C_2  and  N_3
REMARK    3  A    between atoms: C_4  and  C_24
REMARK    4  A    between atoms: C_5  and  C_19
REMARK    5  A    between atoms: C_6  and  C_11
REMARK    6  A    between atoms: C_13  and  C_18
REMARK    7  A    between atoms: C_16  and  C_17
REMARK    8  A    between atoms: C_19  and  O_21
REMARK    9  A    between atoms: O_21  and  C_22
REMARK   10  A    between atoms: C_22  and  C_23
REMARK   11  A    between atoms: C_24  and  N_25
REMARK   12  A    between atoms: C_29  and  C_32
REMARK   13  A    between atoms: N_35  and  C_36
REMARK   14  A    between atoms: C_36  and  C_37
REMARK   15  A    between atoms: C_36  and  C_38
REMARK   16  A    between atoms: C_36  and  C_39
REMARK                            x       y       z     vdW  Elec       q    Type
REMARK                         _______ _______ _______ _____ _____    ______ ____
ROOT
ATOM      1  N   UNL     1       1.393  -0.516  -0.772  0.00  0.00    -0.258 N 
ATOM      2  C   UNL     1       0.359  -0.441  -1.660  0.00  0.00    +0.041 C 
ATOM      3  C   UNL     1       0.534  -0.751  -2.962  0.00  0.00    +0.080 C 
ATOM      4  C   UNL     1       1.917  -1.186  -3.403  0.00  0.00    +0.144 C 
ATOM      5  N   UNL     1       2.964  -1.234  -2.368  0.00  0.00    -0.288 N 
ATOM      6  C   UNL     1       2.635  -0.888  -1.108  0.00  0.00    +0.307 C 
ATOM      7  O   UNL     1       3.492  -0.921  -0.246  0.00  0.00    -0.252 OA
ATOM      8  H   UNL     1       3.869  -1.504  -2.589  0.00  0.00    +0.151 HD
ENDROOT
BRANCH   4   9
ATOM      9  C   UNL     1       2.378  -0.243  -4.485  0.00  0.00    -0.019 A 
ATOM     10  C   UNL     1       3.109   0.883  -4.155  0.00  0.00    +0.009 A 
ATOM     11  C   UNL     1       3.531   1.748  -5.147  0.00  0.00    -0.050 A 
ATOM     12  C   UNL     1       3.223   1.487  -6.469  0.00  0.00    +0.003 A 
ATOM     13  C   UNL     1       2.493   0.361  -6.799  0.00  0.00    +0.004 A 
ATOM     14  C   UNL     1       2.074  -0.507  -5.807  0.00  0.00    -0.045 A 
ATOM     15  C   UNL     1       1.283  -1.738  -6.168  0.00  0.00    +0.044 C 
ATOM     16  C   UNL     1       4.327   2.976  -4.787  0.00  0.00    +0.044 C 
ENDBRANCH   4   9
BRANCH   1  18
ATOM     17  C   UNL     1       1.376   1.333   0.830  0.00  0.00    +0.025 C 
ATOM     18  C   UNL     1       1.131  -0.164   0.626  0.00  0.00    +0.111 C 
ENDBRANCH   1  18
BRANCH   3  19
ATOM     19  C   UNL     1      -0.536  -0.674  -3.884  0.00  0.00    +0.339 C 
ATOM     20  O   UNL     1      -1.172  -1.674  -4.162  0.00  0.00    -0.245 OA
BRANCH  19  21
ATOM     21  O   UNL     1      -0.853   0.507  -4.453  0.00  0.00    -0.462 OA
BRANCH  21  22
ATOM     22  C   UNL     1      -2.011   0.535  -5.289  0.00  0.00    +0.229 C 
ATOM     23  C   UNL     1      -2.140   1.914  -5.938  0.00  0.00    +0.048 C 
ENDBRANCH  21  22
ENDBRANCH  19  21
ENDBRANCH   3  19
BRANCH   2  24
ATOM     24  C   UNL     1      -1.001  -0.004  -1.179  0.00  0.00    +0.136 C 
BRANCH  24  25
ATOM     25  N   UNL     1      -1.546  -1.016  -0.265  0.00  0.00    -0.294 NA
ATOM     26  C   UNL     1      -1.805  -2.278  -0.971  0.00  0.00    +0.104 C 
ATOM     27  C   UNL     1      -2.198  -3.356   0.045  0.00  0.00    +0.125 C 
ATOM     28  N   UNL     1      -3.320  -2.852   0.851  0.00  0.00    -0.280 N 
ATOM     29  C   UNL     1      -3.187  -1.529   1.479  0.00  0.00    +0.088 C 
ATOM     30  C   UNL     1      -2.755  -0.522   0.407  0.00  0.00    +0.107 C 
ATOM     31  C   UNL     1      -4.530  -1.105   2.076  0.00  0.00    +0.029 C 
ATOM     32  C   UNL     1      -4.441  -3.583   1.011  0.00  0.00    +0.303 C 
ATOM     33  O   UNL     1      -5.393  -3.115   1.605  0.00  0.00    -0.253 OA
ATOM     34  N   UNL     1      -4.506  -4.833   0.511  0.00  0.00    -0.294 N 
ATOM     35  H   UNL     1      -3.724  -5.234   0.101  0.00  0.00    +0.151 HD
BRANCH  34  36
ATOM     36  C   UNL     1      -5.760  -5.588   0.587  0.00  0.00    +0.028 C 
ATOM     37  C   UNL     1      -6.857  -4.831  -0.164  0.00  0.00    +0.031 C 
ATOM     38  C   UNL     1      -5.565  -6.966  -0.047  0.00  0.00    +0.031 C 
ATOM     39  C   UNL     1      -6.167  -5.753   2.053  0.00  0.00    +0.031 C 
ENDBRANCH  34  36
ENDBRANCH  24  25
ENDBRANCH   2  24
TORSDOF 8
