REMARK  Name = ZINC34835363
REMARK  17 active torsions:
REMARK  status: ('A' for Active; 'I' for Inactive)
REMARK    1  A    between atoms: C_1  and  C_2
REMARK    2  A    between atoms: C_2  and  C_3
REMARK    3  A    between atoms: C_4  and  C_24
REMARK    4  A    between atoms: C_5  and  N_15
REMARK    5  A    between atoms: N_6  and  C_8
REMARK    6  A    between atoms: N_18  and  C_21
REMARK    7  A    between atoms: C_21  and  C_22
REMARK    8  A    between atoms: C_21  and  C_23
REMARK    9  A    between atoms: C_24  and  N_25
REMARK   10  A    between atoms: N_25  and  C_26
REMARK   11  A    between atoms: C_26  and  C_27
REMARK   12  A    between atoms: C_27  and  C_28
REMARK   13  A    between atoms: C_27  and  C_29
REMARK   14  A    between atoms: C_30  and  C_32
REMARK   15  A    between atoms: C_32  and  C_33
REMARK   16  A    between atoms: C_33  and  C_34
REMARK   17  A    between atoms: C_33  and  C_35
REMARK                            x       y       z     vdW  Elec       q    Type
REMARK                         _______ _______ _______ _____ _____    ______ ____
ROOT
ATOM      1  C   UNL     1       1.550  -0.056   1.166  0.00  0.00    +0.070 A 
ATOM      2  C   UNL     1       2.930  -0.095   1.387  0.00  0.00    +0.033 A 
ATOM      3  C   UNL     1       3.135  -0.429   2.691  0.00  0.00    +0.130 A 
ATOM      4  N   UNL     1       1.914  -0.594   3.267  0.00  0.00    -0.218 N 
ATOM      5  N   UNL     1       0.942  -0.348   2.288  0.00  0.00    -0.169 NA
ENDROOT
BRANCH   4   6
ATOM      6  C   UNL     1       1.670  -0.942   4.603  0.00  0.00    +0.068 A 
ATOM      7  C   UNL     1       2.423  -1.939   5.209  0.00  0.00    +0.030 A 
ATOM      8  C   UNL     1       2.182  -2.281   6.526  0.00  0.00    +0.040 A 
ATOM      9  C   UNL     1       1.191  -1.630   7.241  0.00  0.00    +0.124 A 
ATOM     10  C   UNL     1       0.439  -0.635   6.638  0.00  0.00    +0.040 A 
ATOM     11  C   UNL     1       0.681  -0.287   5.324  0.00  0.00    +0.030 A 
ATOM     12  F   UNL     1       0.957  -1.966   8.528  0.00  0.00    -0.205 F 
ENDBRANCH   4   6
BRANCH   3  13
ATOM     13  N   UNL     1       4.369  -0.575   3.319  0.00  0.00    -0.318 N 
ATOM     14  C   UNL     1       5.097   0.593   3.838  0.00  0.00    +0.088 C 
ATOM     15  C   UNL     1       5.502   0.309   5.288  0.00  0.00    -0.059 C 
ATOM     16  N   UNL     1       6.256  -0.950   5.346  0.00  0.00    +0.383 N 
ATOM     17  C   UNL     1       5.392  -2.069   4.951  0.00  0.00    -0.059 C 
ATOM     18  C   UNL     1       4.978  -1.903   3.489  0.00  0.00    +0.088 C 
ATOM     19  H   UNL     1       7.045  -0.898   4.719  0.00  0.00    -0.081 HD
BRANCH  16  20
ATOM     20  C   UNL     1       6.738  -1.167   6.717  0.00  0.00    -0.075 C 
ATOM     21  C   UNL     1       7.524  -2.478   6.780  0.00  0.00    -0.014 C 
ATOM     22  C   UNL     1       7.648  -0.007   7.127  0.00  0.00    -0.014 C 
ENDBRANCH  16  20
ENDBRANCH   3  13
BRANCH   1  24
ATOM     23  C   UNL     1       0.789   1.791  -0.302  0.00  0.00    +0.010 C 
ATOM     24  C   UNL     1       0.876   0.272  -0.141  0.00  0.00    +0.054 C 
ENDBRANCH   1  24
BRANCH   2  25
ATOM     25  C   UNL     1       4.000   0.183   0.363  0.00  0.00    +0.148 C 
BRANCH  25  26
ATOM     26  N   UNL     1       4.212  -1.011  -0.459  0.00  0.00    -0.297 N 
ATOM     27  C   UNL     1       5.005  -2.005  -0.012  0.00  0.00    +0.216 C 
ATOM     28  O   UNL     1       5.481  -1.947   1.102  0.00  0.00    -0.276 OA
BRANCH  26  29
ATOM     29  C   UNL     1       3.561  -1.125  -1.767  0.00  0.00    +0.111 C 
BRANCH  29  30
ATOM     30  C   UNL     1       4.534  -0.682  -2.861  0.00  0.00    +0.000 C 
ATOM     31  C   UNL     1       3.883  -0.876  -4.232  0.00  0.00    +0.009 C 
ATOM     32  C   UNL     1       4.882   0.795  -2.667  0.00  0.00    +0.009 C 
ENDBRANCH  29  30
ENDBRANCH  26  29
BRANCH  27  33
ATOM     33  C   UNL     1       5.301  -3.188  -0.897  0.00  0.00    +0.099 C 
BRANCH  33  34
ATOM     34  C   UNL     1       6.085  -4.236  -0.103  0.00  0.00    -0.008 C 
ATOM     35  C   UNL     1       5.193  -4.814   0.998  0.00  0.00    +0.008 C 
ATOM     36  C   UNL     1       6.530  -5.359  -1.042  0.00  0.00    +0.008 C 
ENDBRANCH  33  34
ENDBRANCH  27  33
ENDBRANCH  25  26
ENDBRANCH   2  25
TORSDOF 10
