REMARK  Name = ZINC22920183
REMARK  9 active torsions:
REMARK  status: ('A' for Active; 'I' for Inactive)
REMARK    1  A    between atoms: C_1  and  C_2
REMARK    2  A    between atoms: C_3  and  C_35
REMARK    3  A    between atoms: C_11  and  C_13
REMARK    4  A    between atoms: C_13  and  N_14
REMARK    5  A    between atoms: N_17  and  C_20
REMARK    6  A    between atoms: C_20  and  C_21
REMARK    7  A    between atoms: C_24  and  C_26
REMARK    8  A    between atoms: C_26  and  O_27
REMARK    9  A    between atoms: O_27  and  C_28
REMARK                            x       y       z     vdW  Elec       q    Type
REMARK                         _______ _______ _______ _____ _____    ______ ____
ROOT
ATOM      1  N   UNL     1       0.104  -4.815   4.051  0.00  0.00    +0.386 N 
ATOM      2  C   UNL     1       1.356  -5.060   3.322  0.00  0.00    -0.063 C 
ATOM      3  C   UNL     1       1.363  -6.495   2.789  0.00  0.00    +0.066 C 
ATOM      4  N   UNL     1       1.239  -7.433   3.914  0.00  0.00    -0.300 NA
ATOM      5  C   UNL     1       0.002  -7.183   4.668  0.00  0.00    +0.066 C 
ATOM      6  C   UNL     1       0.006  -5.743   5.186  0.00  0.00    -0.063 C 
ATOM      7  H   UNL     1      -0.679  -4.958   3.431  0.00  0.00    -0.081 HD
ENDROOT
BRANCH   1   8
ATOM      8  C   UNL     1       0.090  -3.432   4.547  0.00  0.00    -0.003 C 
BRANCH   8  19
ATOM      9  C   UNL     1      -0.018   1.503   0.010  0.00  0.00    +0.045 C 
ATOM     10  C   UNL     1       0.002  -0.004   0.002  0.00  0.00    -0.026 A 
ATOM     11  C   UNL     1       0.006  -0.677  -1.160  0.00  0.00    -0.008 A 
ATOM     12  S   UNL     1       0.032  -2.385  -0.648  0.00  0.00    -0.073 S 
ATOM     13  C   UNL     1       0.037  -2.144   1.110  0.00  0.00    +0.116 A 
ATOM     14  C   UNL     1       0.024  -0.745   1.250  0.00  0.00    +0.075 A 
ATOM     15  C   UNL     1       0.029  -0.257   2.597  0.00  0.00    +0.260 A 
ATOM     16  O   UNL     1       0.014   0.942   2.821  0.00  0.00    -0.267 OA
ATOM     17  N   UNL     1       0.051  -1.142   3.611  0.00  0.00    -0.312 N 
ATOM     18  H   UNL     1       0.054  -0.817   4.525  0.00  0.00    +0.170 HD
ATOM     19  C   UNL     1       0.067  -2.480   3.380  0.00  0.00    +0.094 A 
ATOM     20  N   UNL     1       0.053  -2.956   2.163  0.00  0.00    -0.229 NA
ATOM     21  C   UNL     1      -0.009  -0.122  -2.561  0.00  0.00    +0.052 C 
ENDBRANCH   8  19
ENDBRANCH   1   8
BRANCH   4  22
ATOM     22  C   UNL     1       1.299  -8.824   3.447  0.00  0.00    +0.140 C 
BRANCH  22  23
ATOM     23  C   UNL     1       1.416  -9.747   4.633  0.00  0.00    +0.063 A 
ATOM     24  C   UNL     1       0.324 -10.335   5.186  0.00  0.00    +0.071 A 
ATOM     25  S   UNL     1       1.085 -11.272   6.502  0.00  0.00    -0.077 S 
ATOM     26  C   UNL     1       2.681 -10.823   6.212  0.00  0.00    +0.116 A 
ATOM     27  N   UNL     1       2.583 -10.025   5.178  0.00  0.00    -0.244 NA
BRANCH  26  28
ATOM     28  C   UNL     1       3.921 -11.243   6.957  0.00  0.00    +0.291 C 
BRANCH  28  29
ATOM     29  O   UNL     1       4.169 -10.326   8.024  0.00  0.00    -0.485 OA
BRANCH  29  30
ATOM     30  C   UNL     1       5.260 -10.563   8.801  0.00  0.00    +0.121 A 
ATOM     31  C   UNL     1       6.077 -11.652   8.536  0.00  0.00    +0.048 A 
ATOM     32  C   UNL     1       7.185 -11.891   9.326  0.00  0.00    +0.042 A 
ATOM     33  C   UNL     1       7.479 -11.045  10.381  0.00  0.00    +0.124 A 
ATOM     34  C   UNL     1       6.664  -9.958  10.647  0.00  0.00    +0.042 A 
ATOM     35  C   UNL     1       5.559  -9.712   9.854  0.00  0.00    +0.048 A 
ATOM     36  F   UNL     1       8.563 -11.281  11.153  0.00  0.00    -0.205 F 
ENDBRANCH  29  30
ENDBRANCH  28  29
ENDBRANCH  26  28
ENDBRANCH  22  23
ENDBRANCH   4  22
TORSDOF 7
