REMARK  Name = ZINC06443748
REMARK  10 active torsions:
REMARK  status: ('A' for Active; 'I' for Inactive)
REMARK    1  A    between atoms: C_1  and  C_2
REMARK    2  A    between atoms: C_12  and  C_14
REMARK    3  A    between atoms: C_14  and  C_16
REMARK    4  A    between atoms: C_14  and  N_69
REMARK    5  A    between atoms: N_20  and  C_21
REMARK    6  A    between atoms: C_21  and  C_22
REMARK    7  A    between atoms: C_28  and  C_29
REMARK    8  A    between atoms: C_28  and  N_69
REMARK    9  A    between atoms: C_34  and  C_35
REMARK   10  A    between atoms: C_34  and  N_69
REMARK                            x       y       z     vdW  Elec       q    Type
REMARK                         _______ _______ _______ _____ _____    ______ ____
ROOT
ATOM      1  C   UNL     1      -1.858   6.322   3.316  0.00  0.00    +0.039 C 
ENDROOT
BRANCH   1  13
ATOM      2  C   UNL     1       3.963   9.334   2.805  0.00  0.00    +0.046 C 
ATOM      3  C   UNL     1       3.071   8.707   1.764  0.00  0.00    -0.026 A 
ATOM      4  C   UNL     1       3.448   8.711   0.438  0.00  0.00    +0.005 A 
ATOM      5  C   UNL     1       2.636   8.138  -0.531  0.00  0.00    +0.001 A 
ATOM      6  C   UNL     1       1.448   7.558  -0.188  0.00  0.00    +0.010 A 
ATOM      7  C   UNL     1       1.045   7.542   1.152  0.00  0.00    -0.001 A 
ATOM      8  C   UNL     1       1.866   8.123   2.137  0.00  0.00    +0.052 A 
ATOM      9  N   UNL     1       1.464   8.104   3.456  0.00  0.00    -0.322 N 
ATOM     10  H   UNL     1       2.031   8.505   4.134  0.00  0.00    +0.169 HD
ATOM     11  C   UNL     1       0.296   7.544   3.815  0.00  0.00    +0.251 A 
ATOM     12  O   UNL     1      -0.029   7.551   4.990  0.00  0.00    -0.268 OA
ATOM     13  C   UNL     1      -0.560   6.944   2.867  0.00  0.00    +0.011 A 
ATOM     14  C   UNL     1      -0.223   6.930   1.554  0.00  0.00    +0.017 A 
ENDBRANCH   1  13
BRANCH   1  15
ATOM     15  C   UNL     1      -1.568   5.137   4.200  0.00  0.00    +0.143 A 
ATOM     16  N   UNL     1      -0.877   5.142   5.314  0.00  0.00    -0.115 NA
ATOM     17  N   UNL     1      -0.855   3.939   5.774  0.00  0.00    -0.023 NA
ATOM     18  N   UNL     1      -1.518   3.167   4.985  0.00  0.00    -0.044 NA
ATOM     19  N   UNL     1      -1.968   3.868   3.999  0.00  0.00    -0.228 N 
BRANCH  19  20
ATOM     20  C   UNL     1      -2.770   3.375   2.877  0.00  0.00    +0.178 C 
BRANCH  20  21
ATOM     21  C   UNL     1      -1.843   2.941   1.740  0.00  0.00    +0.140 C 
ATOM     22  C   UNL     1      -2.665   2.533   0.491  0.00  0.00    +0.035 C 
ATOM     23  C   UNL     1      -1.692   1.575  -0.239  0.00  0.00    +0.031 C 
ATOM     24  C   UNL     1      -0.714   1.120   0.861  0.00  0.00    +0.160 C 
ATOM     25  O   UNL     1      -1.137   1.730   2.092  0.00  0.00    -0.375 OA
ENDBRANCH  20  21
ENDBRANCH  19  20
ENDBRANCH   1  15
BRANCH   1  26
ATOM     26  N   UNL     1      -2.626   7.322   4.087  0.00  0.00    +0.394 N 
ATOM     27  H   UNL     1      -2.034   7.686   4.843  0.00  0.00    -0.080 HD
BRANCH  26  28
ATOM     28  C   UNL     1      -3.022   8.443   3.207  0.00  0.00    -0.034 C 
BRANCH  28  29
ATOM     29  C   UNL     1      -1.850   9.379   3.062  0.00  0.00    -0.027 A 
ATOM     30  C   UNL     1      -1.111   9.658   1.961  0.00  0.00    +0.009 A 
ATOM     31  C   UNL     1      -0.071  10.562   2.063  0.00  0.00    +0.008 A 
ATOM     32  C   UNL     1       0.180  11.143   3.261  0.00  0.00    +0.045 A 
ATOM     33  S   UNL     1      -1.080  10.415   4.295  0.00  0.00    -0.103 S 
ENDBRANCH  28  29
ENDBRANCH  26  28
BRANCH  26  34
ATOM     34  C   UNL     1      -3.827   6.693   4.675  0.00  0.00    -0.045 C 
BRANCH  34  35
ATOM     35  C   UNL     1      -3.457   6.129   6.048  0.00  0.00    +0.102 C 
ATOM     36  C   UNL     1      -4.715   5.589   6.764  0.00  0.00    +0.032 C 
ATOM     37  C   UNL     1      -4.490   5.957   8.248  0.00  0.00    +0.030 C 
ATOM     38  C   UNL     1      -3.123   6.676   8.253  0.00  0.00    +0.160 C 
ATOM     39  O   UNL     1      -2.966   7.180   6.909  0.00  0.00    -0.378 OA
ENDBRANCH  34  35
ENDBRANCH  26  34
ENDBRANCH   1  26
TORSDOF 9
