REMARK  Name = ZINC43262930
REMARK  11 active torsions:
REMARK  status: ('A' for Active; 'I' for Inactive)
REMARK    1  A    between atoms: C_1  and  C_2
REMARK    2  A    between atoms: C_2  and  C_3
REMARK    3  A    between atoms: C_3  and  C_5
REMARK    4  A    between atoms: C_3  and  N_21
REMARK    5  A    between atoms: C_5  and  C_7
REMARK    6  A    between atoms: C_5  and  N_13
REMARK    7  A    between atoms: N_13  and  C_14
REMARK    8  A    between atoms: N_13  and  C_18
REMARK    9  A    between atoms: C_14  and  C_15
REMARK   10  A    between atoms: C_18  and  C_19
REMARK   11  A    between atoms: C_18  and  C_20
REMARK                            x       y       z     vdW  Elec       q    Type
REMARK                         _______ _______ _______ _____ _____    ______ ____
ROOT
ATOM      1  C   UNL     1       0.956  -1.864  -1.320  0.00  0.00    +0.079 C 
ENDROOT
BRANCH   1   2
ATOM      2  C   UNL     1       2.005  -1.925  -0.240  0.00  0.00    +0.006 A 
ATOM      3  C   UNL     1       1.869  -2.273   1.063  0.00  0.00    +0.014 A 
ATOM      4  C   UNL     1       2.983  -2.257   1.881  0.00  0.00    +0.023 A 
ATOM      5  C   UNL     1       4.180  -1.893   1.355  0.00  0.00    +0.055 A 
ATOM      6  S   UNL     1       3.750  -1.565  -0.346  0.00  0.00    -0.085 S 
ATOM      7 BR   UNL     1       5.866  -1.772   2.203  0.00  0.00    -0.043 Br
ENDBRANCH   1   2
BRANCH   1   8
ATOM      8  C   UNL     1       0.741  -0.408  -1.740  0.00  0.00    -0.053 C 
BRANCH   8   9
ATOM      9  N   UNL     1      -0.179  -0.360  -2.884  0.00  0.00    +0.381 N 
ATOM     10  H   UNL     1      -0.255   0.591  -3.215  0.00  0.00    -0.090 HD
ATOM     11  H   UNL     1       0.176  -0.946  -3.626  0.00  0.00    -0.090 HD
ATOM     12  H   UNL     1      -1.088  -0.691  -2.599  0.00  0.00    -0.090 HD
ENDBRANCH   8   9
BRANCH   8  14
ATOM     13  C   UNL     1       0.043   1.856  -0.948  0.00  0.00    +0.002 C 
ATOM     14  C   UNL     1       0.142   0.377  -0.571  0.00  0.00    -0.018 C 
ENDBRANCH   8  14
ENDBRANCH   1   8
BRANCH   1  15
ATOM     15  N   UNL     1       1.401  -2.647  -2.480  0.00  0.00    -0.294 NA
BRANCH  15  16
ATOM     16  C   UNL     1       1.186  -4.084  -2.258  0.00  0.00    +0.051 C 
ATOM     17  C   UNL     1       1.794  -4.489  -0.913  0.00  0.00    +0.024 C 
ATOM     18  C   UNL     1      -0.315  -4.380  -2.249  0.00  0.00    +0.024 C 
ENDBRANCH  15  16
BRANCH  15  19
ATOM     19  C   UNL     1       2.808  -2.368  -2.796  0.00  0.00    +0.088 C 
BRANCH  19  20
ATOM     20  C   UNL     1       3.119  -2.856  -4.212  0.00  0.00    +0.003 C 
ATOM     21  C   UNL     1       4.119  -4.004  -4.359  0.00  0.00    +0.005 C 
ATOM     22  C   UNL     1       4.521  -2.583  -4.761  0.00  0.00    +0.005 C 
ENDBRANCH  19  20
ENDBRANCH  15  19
ENDBRANCH   1  15
TORSDOF 8
