REMARK  Name = ZINC04150102
REMARK  5 active torsions:
REMARK  status: ('A' for Active; 'I' for Inactive)
REMARK    1  A    between atoms: C_4  and  C_7
REMARK    2  A    between atoms: C_10  and  C_13
REMARK    3  A    between atoms: C_26  and  N_31
REMARK    4  A    between atoms: N_31  and  S_32
REMARK    5  A    between atoms: S_32  and  C_35
REMARK                            x       y       z     vdW  Elec       q    Type
REMARK                         _______ _______ _______ _____ _____    ______ ____
ROOT
ATOM      1  C   UNL     1      -7.343   6.047   0.676  0.00  0.00    +0.247 C 
ATOM      2  O   UNL     1      -8.345   5.360   0.731  0.00  0.00    -0.270 OA
ATOM      3  N   UNL     1      -7.428   7.380   0.858  0.00  0.00    -0.297 N 
ATOM      4  C   UNL     1      -8.704   8.006   1.226  0.00  0.00    +0.113 C 
ATOM      5  C   UNL     1      -8.508   8.918   2.435  0.00  0.00    +0.027 C 
ATOM      6  C   UNL     1      -7.334   9.873   2.216  0.00  0.00    +0.018 C 
ATOM      7  C   UNL     1      -6.069   9.041   1.988  0.00  0.00    +0.054 C 
ATOM      8  C   UNL     1      -6.247   8.240   0.687  0.00  0.00    +0.117 C 
ATOM      9  C   UNL     1      -5.900   8.052   3.117  0.00  0.00    +0.027 A 
ATOM     10  C   UNL     1      -4.636   7.646   3.408  0.00  0.00    +0.024 A 
ATOM     11  C   UNL     1      -4.405   6.682   4.396  0.00  0.00    +0.031 A 
ATOM     12  C   UNL     1      -5.476   6.135   5.048  0.00  0.00    +0.112 A 
ATOM     13  C   UNL     1      -6.773   6.576   4.721  0.00  0.00    +0.274 A 
ATOM     14  O   UNL     1      -7.741   6.053   5.248  0.00  0.00    -0.266 OA
ATOM     15  N   UNL     1      -6.955   7.577   3.824  0.00  0.00    -0.310 N 
ATOM     16  C   UNL     1      -8.303   8.134   3.718  0.00  0.00    +0.130 C 
ENDROOT
BRANCH   1  20
ATOM     17  C   UNL     1      -3.571   4.245  -0.091  0.00  0.00    -0.018 A 
ATOM     18  C   UNL     1      -4.444   3.669   0.831  0.00  0.00    +0.009 A 
ATOM     19  C   UNL     1      -5.664   4.254   1.085  0.00  0.00    +0.013 A 
ATOM     20  C   UNL     1      -6.032   5.421   0.409  0.00  0.00    +0.037 A 
ATOM     21  C   UNL     1      -5.159   5.994  -0.519  0.00  0.00    +0.013 A 
ATOM     22  C   UNL     1      -3.937   5.410  -0.766  0.00  0.00    +0.009 A 
BRANCH  17  26
ATOM     23  C   UNL     1       0.201   2.441  -0.861  0.00  0.00    +0.000 A 
ATOM     24  C   UNL     1      -0.160   3.597  -1.531  0.00  0.00    +0.001 A 
ATOM     25  C   UNL     1      -1.381   4.189  -1.281  0.00  0.00    +0.008 A 
ATOM     26  C   UNL     1      -2.255   3.616  -0.360  0.00  0.00    -0.018 A 
ATOM     27  C   UNL     1      -1.886   2.452   0.313  0.00  0.00    +0.008 A 
ATOM     28  C   UNL     1      -0.661   1.871   0.059  0.00  0.00    +0.001 A 
ENDBRANCH  17  26
ENDBRANCH   1  20
BRANCH  12  29
ATOM     29  N   UNL     1      -5.285   5.152   6.027  0.00  0.00    -0.211 N 
ATOM     30  H   UNL     1      -6.051   4.723   6.440  0.00  0.00    +0.174 HD
BRANCH  29  31
ATOM     31  S   UNL     1      -3.752   4.721   6.481  0.00  0.00    +0.073 S 
ATOM     32  O   UNL     1      -3.890   3.779   7.536  0.00  0.00    -0.150 OA
ATOM     33  O   UNL     1      -3.042   4.427   5.285  0.00  0.00    -0.150 OA
BRANCH  31  34
ATOM     34  C   UNL     1      -2.993   6.151   7.177  0.00  0.00    +0.111 A 
ATOM     35  C   UNL     1      -3.213   6.472   8.504  0.00  0.00    +0.029 A 
ATOM     36  C   UNL     1      -2.619   7.594   9.052  0.00  0.00    +0.005 A 
ATOM     37  C   UNL     1      -1.804   8.394   8.274  0.00  0.00    +0.038 A 
ATOM     38  C   UNL     1      -1.583   8.073   6.946  0.00  0.00    +0.125 A 
ATOM     39  C   UNL     1      -2.175   6.947   6.399  0.00  0.00    +0.067 A 
ATOM     40  F   UNL     1      -0.786   8.855   6.184  0.00  0.00    -0.205 F 
ENDBRANCH  31  34
ENDBRANCH  29  31
ENDBRANCH  12  29
TORSDOF 5
