REMARK  Name = ZINC38711771
REMARK  5 active torsions:
REMARK  status: ('A' for Active; 'I' for Inactive)
REMARK    1  A    between atoms: C_4  and  C_7
REMARK    2  A    between atoms: C_7  and  C_9
REMARK    3  A    between atoms: C_14  and  N_15
REMARK    4  A    between atoms: C_16  and  C_18
REMARK    5  A    between atoms: C_24  and  C_26
REMARK                            x       y       z     vdW  Elec       q    Type
REMARK                         _______ _______ _______ _____ _____    ______ ____
ROOT
ATOM      1  N   UNL     1       6.872  -3.160   1.103  0.00  0.00    -0.285 N 
ATOM      2  C   UNL     1       7.521  -2.686   0.021  0.00  0.00    +0.221 C 
ATOM      3  O   UNL     1       7.139  -2.979  -1.092  0.00  0.00    -0.275 OA
ATOM      4  H   UNL     1       7.217  -2.983   1.992  0.00  0.00    +0.155 HD
ENDROOT
BRANCH   1  10
ATOM      5  C   UNL     1       4.652  -3.770   1.863  0.00  0.00    +0.045 A 
ATOM      6  C   UNL     1       3.484  -4.518   1.689  0.00  0.00    +0.033 A 
ATOM      7  C   UNL     1       3.376  -5.385   0.623  0.00  0.00    +0.042 A 
ATOM      8  C   UNL     1       4.421  -5.519  -0.279  0.00  0.00    +0.022 A 
ATOM      9  C   UNL     1       5.580  -4.787  -0.120  0.00  0.00    +0.025 A 
ATOM     10  C   UNL     1       5.705  -3.904   0.944  0.00  0.00    +0.044 A 
ATOM     11 CL   UNL     1       1.925  -6.314   0.409  0.00  0.00    -0.084 Cl
BRANCH   5  12
ATOM     12  C   UNL     1       4.775  -2.840   3.001  0.00  0.00    +0.195 C 
ATOM     13  O   UNL     1       4.201  -1.769   2.975  0.00  0.00    -0.287 OA
BRANCH  12  17
ATOM     14  C   UNL     1       7.134  -3.906   6.368  0.00  0.00    +0.000 A 
ATOM     15  C   UNL     1       6.577  -2.642   6.290  0.00  0.00    +0.001 A 
ATOM     16  C   UNL     1       5.810  -2.289   5.199  0.00  0.00    +0.012 A 
ATOM     17  C   UNL     1       5.596  -3.211   4.172  0.00  0.00    +0.022 A 
ATOM     18  C   UNL     1       6.161  -4.485   4.258  0.00  0.00    +0.012 A 
ATOM     19  C   UNL     1       6.926  -4.825   5.354  0.00  0.00    +0.001 A 
ENDBRANCH  12  17
ENDBRANCH   5  12
ENDBRANCH   1  10
BRANCH   2  20
ATOM     20  C   UNL     1       8.722  -1.792   0.195  0.00  0.00    +0.091 C 
ATOM     21  C   UNL     1       8.732  -0.726  -0.903  0.00  0.00    +0.040 C 
ATOM     22  C   UNL     1       9.046  -1.353  -2.229  0.00  0.00    -0.030 C 
ATOM     23  C   UNL     1       9.577  -2.525  -2.370  0.00  0.00    -0.030 C 
ATOM     24  C   UNL     1       9.945  -3.424  -1.227  0.00  0.00    +0.040 C 
ATOM     25  C   UNL     1      10.005  -2.624   0.081  0.00  0.00    +0.091 C 
BRANCH  25  26
ATOM     26  C   UNL     1      10.105  -3.564   1.255  0.00  0.00    +0.220 C 
ATOM     27  O   UNL     1       9.654  -4.687   1.173  0.00  0.00    -0.275 OA
ATOM     28  N   UNL     1      10.696  -3.157   2.396  0.00  0.00    -0.301 N 
ATOM     29  C   UNL     1      11.139  -1.765   2.554  0.00  0.00    +0.108 C 
ATOM     30  C   UNL     1      10.528  -1.197   3.839  0.00  0.00    +0.019 C 
ATOM     31  C   UNL     1      10.886  -2.108   5.015  0.00  0.00    +0.003 C 
ATOM     32  C   UNL     1      10.302  -3.503   4.779  0.00  0.00    +0.019 C 
ATOM     33  C   UNL     1      10.905  -4.096   3.507  0.00  0.00    +0.108 C 
ENDBRANCH  25  26
ENDBRANCH   2  20
TORSDOF 5
