REMARK  Name = ZINC37604417
REMARK  11 active torsions:
REMARK  status: ('A' for Active; 'I' for Inactive)
REMARK    1  A    between atoms: C_1  and  C_2
REMARK    2  A    between atoms: C_2  and  C_3
REMARK    3  A    between atoms: C_2  and  C_4
REMARK    4  A    between atoms: C_4  and  C_5
REMARK    5  A    between atoms: C_13  and  O_25
REMARK    6  A    between atoms: C_16  and  C_18
REMARK    7  A    between atoms: O_25  and  C_26
REMARK    8  A    between atoms: C_26  and  C_27
REMARK    9  A    between atoms: C_30  and  C_32
REMARK   10  A    between atoms: N_34  and  C_35
REMARK   11  A    between atoms: C_35  and  C_36
REMARK                            x       y       z     vdW  Elec       q    Type
REMARK                         _______ _______ _______ _____ _____    ______ ____
ROOT
ATOM      1  C   UNL     1       2.325   0.117  -0.911  0.00  0.00    +0.217 C 
ATOM      2  O   UNL     1       2.890   0.815  -0.096  0.00  0.00    -0.276 OA
ATOM      3  N   UNL     1       2.995  -0.342  -1.987  0.00  0.00    -0.290 N 
ATOM      4  C   UNL     1       2.336  -1.185  -2.998  0.00  0.00    +0.113 C 
ATOM      5  C   UNL     1       2.323  -0.415  -4.316  0.00  0.00    +0.054 C 
ATOM      6  C   UNL     1       3.680   0.168  -4.611  0.00  0.00    -0.040 A 
ATOM      7  C   UNL     1       3.958   0.518  -5.928  0.00  0.00    +0.007 A 
ATOM      8  C   UNL     1       5.176   1.065  -6.267  0.00  0.00    +0.046 A 
ATOM      9  C   UNL     1       6.136   1.272  -5.287  0.00  0.00    +0.121 A 
ATOM     10  C   UNL     1       5.861   0.921  -3.976  0.00  0.00    +0.051 A 
ATOM     11  C   UNL     1       4.635   0.364  -3.639  0.00  0.00    -0.016 A 
ATOM     12  C   UNL     1       4.409  -0.015  -2.201  0.00  0.00    +0.137 C 
ENDROOT
BRANCH  12  13
ATOM     13  C   UNL     1       5.258  -1.213  -1.864  0.00  0.00    -0.020 A 
ATOM     14  C   UNL     1       5.157  -2.366  -2.621  0.00  0.00    +0.006 A 
ATOM     15  C   UNL     1       5.935  -3.466  -2.313  0.00  0.00    +0.003 A 
ATOM     16  C   UNL     1       6.814  -3.416  -1.247  0.00  0.00    +0.038 A 
ATOM     17  C   UNL     1       6.915  -2.263  -0.489  0.00  0.00    +0.124 A 
ATOM     18  C   UNL     1       6.140  -1.159  -0.802  0.00  0.00    +0.044 A 
ATOM     19  F   UNL     1       7.773  -2.212   0.554  0.00  0.00    -0.205 F 
ENDBRANCH  12  13
BRANCH   1  20
ATOM     20  C   UNL     1       0.872  -0.238  -0.721  0.00  0.00    +0.099 C 
BRANCH  20  22
ATOM     21  C   UNL     1       0.384   1.928   0.425  0.00  0.00    +0.008 C 
ATOM     22  C   UNL     1       0.355   0.405   0.567  0.00  0.00    -0.008 C 
ATOM     23  C   UNL     1      -1.081  -0.056   0.826  0.00  0.00    +0.008 C 
ENDBRANCH  20  22
ENDBRANCH   1  20
BRANCH   9  24
ATOM     24  O   UNL     1       7.339   1.815  -5.611  0.00  0.00    -0.484 OA
BRANCH  24  25
ATOM     25  C   UNL     1       7.550   2.150  -6.984  0.00  0.00    +0.303 C 
BRANCH  25  26
ATOM     26  C   UNL     1       8.929   2.735  -7.151  0.00  0.00    +0.143 A 
ATOM     27  C   UNL     1      10.052   2.037  -7.428  0.00  0.00    +0.049 A 
ATOM     28  C   UNL     1      11.106   2.960  -7.500  0.00  0.00    +0.055 A 
ATOM     29  C   UNL     1      10.566   4.191  -7.261  0.00  0.00    +0.190 A 
ATOM     30  O   UNL     1       9.242   4.034  -7.056  0.00  0.00    -0.452 OA
BRANCH  29  31
ATOM     31  C   UNL     1      11.297   5.463  -7.236  0.00  0.00    +0.279 C 
ATOM     32  O   UNL     1      12.496   5.479  -7.440  0.00  0.00    -0.267 OA
ATOM     33  N   UNL     1      10.640   6.613  -6.986  0.00  0.00    -0.306 N 
ATOM     34  H   UNL     1       9.684   6.600  -6.823  0.00  0.00    +0.149 HD
BRANCH  33  35
ATOM     35  C   UNL     1      11.370   7.883  -6.961  0.00  0.00    +0.136 C 
BRANCH  35  36
ATOM     36  C   UNL     1      10.397   9.024  -6.658  0.00  0.00    +0.135 C 
ATOM     37  C   UNL     1      11.143  10.382  -6.661  0.00  0.00    +0.035 C 
ATOM     38  C   UNL     1       9.980  11.357  -6.989  0.00  0.00    +0.031 C 
ATOM     39  C   UNL     1       9.100  10.511  -7.934  0.00  0.00    +0.160 C 
ATOM     40  O   UNL     1       9.415   9.132  -7.700  0.00  0.00    -0.375 OA
ENDBRANCH  35  36
ENDBRANCH  33  35
ENDBRANCH  29  31
ENDBRANCH  25  26
ENDBRANCH  24  25
ENDBRANCH   9  24
TORSDOF 9
