REMARK  Name = ZINC39487490
REMARK  10 active torsions:
REMARK  status: ('A' for Active; 'I' for Inactive)
REMARK    1  A    between atoms: C_1  and  C_2
REMARK    2  A    between atoms: C_2  and  C_3
REMARK    3  A    between atoms: C_3  and  C_4
REMARK    4  A    between atoms: C_4  and  C_34
REMARK    5  A    between atoms: N_6  and  S_24
REMARK    6  A    between atoms: N_9  and  C_10
REMARK    7  A    between atoms: C_10  and  C_11
REMARK    8  A    between atoms: C_11  and  C_18
REMARK    9  A    between atoms: S_24  and  O_27
REMARK   10  A    between atoms: O_27  and  C_28
REMARK                            x       y       z     vdW  Elec       q    Type
REMARK                         _______ _______ _______ _____ _____    ______ ____
ROOT
ATOM      1  C   UNL     1       0.515  -2.398  -1.775  0.00  0.00    +0.054 C 
ATOM      2  C   UNL     1      -0.723  -3.228  -2.168  0.00  0.00    +0.164 C 
ATOM      3  N   UNL     1      -0.220  -4.141  -3.205  0.00  0.00    -0.125 N 
ATOM      4  C   UNL     1       1.084  -3.907  -3.403  0.00  0.00    +0.327 C 
ATOM      5  O   UNL     1       1.754  -4.523  -4.210  0.00  0.00    -0.251 OA
ATOM      6  N   UNL     1       1.584  -2.932  -2.633  0.00  0.00    -0.277 N 
ATOM      7  C   UNL     1       0.858  -2.605  -0.298  0.00  0.00    +0.033 C 
ENDROOT
BRANCH   3   8
ATOM      8  S   UNL     1      -1.122  -5.279  -4.001  0.00  0.00    +0.213 S 
ATOM      9  O   UNL     1      -0.213  -6.269  -4.461  0.00  0.00    -0.115 OA
ATOM     10  O   UNL     1      -2.222  -5.588  -3.157  0.00  0.00    -0.115 OA
BRANCH   8  11
ATOM     11  O   UNL     1      -1.699  -4.609  -5.240  0.00  0.00    -0.331 OA
BRANCH  11  12
ATOM     12  C   UNL     1      -0.795  -4.419  -6.237  0.00  0.00    +0.158 A 
ATOM     13  C   UNL     1      -0.054  -3.248  -6.290  0.00  0.00    +0.048 A 
ATOM     14  C   UNL     1       0.864  -3.057  -7.304  0.00  0.00    +0.004 A 
ATOM     15  C   UNL     1       1.045  -4.033  -8.267  0.00  0.00    +0.000 A 
ATOM     16  C   UNL     1       0.308  -5.202  -8.217  0.00  0.00    +0.004 A 
ATOM     17  C   UNL     1      -0.608  -5.399  -7.201  0.00  0.00    +0.048 A 
ENDBRANCH  11  12
ENDBRANCH   8  11
ENDBRANCH   3   8
BRANCH   1  18
ATOM     18  C   UNL     1       0.282  -0.915  -2.068  0.00  0.00    +0.027 C 
BRANCH  18  20
ATOM     19  C   UNL     1      -1.066   1.098  -1.457  0.00  0.00    +0.004 C 
ATOM     20  C   UNL     1      -0.833  -0.385  -1.164  0.00  0.00    -0.001 C 
ENDBRANCH  18  20
ENDBRANCH   1  18
BRANCH   6  21
ATOM     21  C   UNL     1       2.974  -2.471  -2.642  0.00  0.00    +0.117 C 
BRANCH  21  22
ATOM     22  C   UNL     1       3.866  -3.526  -1.984  0.00  0.00    -0.008 C 
ATOM     23  C   UNL     1       5.333  -3.103  -2.104  0.00  0.00    +0.025 C 
ATOM     24  C   UNL     1       5.717  -3.027  -3.584  0.00  0.00    +0.103 C 
ATOM     25  N   UNL     1       5.514  -4.339  -4.212  0.00  0.00    -0.219 NA
ATOM     26  C   UNL     1       4.104  -4.744  -4.150  0.00  0.00    +0.103 C 
ATOM     27  C   UNL     1       3.671  -4.872  -2.687  0.00  0.00    +0.025 C 
ATOM     28 CL   UNL     1       6.082  -4.341  -5.824  0.00  0.00    -0.021 Cl
BRANCH  22  29
ATOM     29  C   UNL     1       3.492  -3.662  -0.507  0.00  0.00    -0.003 C 
ATOM     30  C   UNL     1       3.906  -2.394   0.243  0.00  0.00    +0.004 C 
ATOM     31  C   UNL     1       3.531  -2.531   1.721  0.00  0.00    +0.000 C 
ATOM     32  C   UNL     1       4.255  -3.738   2.321  0.00  0.00    +0.000 C 
ATOM     33  C   UNL     1       3.840  -5.005   1.571  0.00  0.00    +0.000 C 
ATOM     34  C   UNL     1       4.215  -4.869   0.093  0.00  0.00    +0.004 C 
ENDBRANCH  22  29
ENDBRANCH  21  22
ENDBRANCH   6  21
TORSDOF 8
