REMARK  Name = ZINC08740052
REMARK  16 active torsions:
REMARK  status: ('A' for Active; 'I' for Inactive)
REMARK    1  A    between atoms: C_1  and  N_73
REMARK    2  A    between atoms: C_2  and  N_73
REMARK    3  A    between atoms: C_8  and  O_37
REMARK    4  A    between atoms: C_9  and  O_35
REMARK    5  A    between atoms: C_10  and  O_33
REMARK    6  A    between atoms: C_17  and  N_20
REMARK    7  A    between atoms: N_20  and  C_21
REMARK    8  A    between atoms: C_21  and  C_22
REMARK    9  A    between atoms: C_22  and  C_23
REMARK   10  A    between atoms: C_26  and  O_31
REMARK   11  A    between atoms: C_27  and  O_29
REMARK   12  A    between atoms: O_29  and  C_30
REMARK   13  A    between atoms: O_31  and  C_32
REMARK   14  A    between atoms: O_33  and  C_34
REMARK   15  A    between atoms: O_35  and  C_36
REMARK   16  A    between atoms: O_37  and  C_38
REMARK                            x       y       z     vdW  Elec       q    Type
REMARK                         _______ _______ _______ _____ _____    ______ ____
ROOT
ATOM      1  C   UNL     1      -1.502   5.762  -0.174  0.00  0.00    -0.040 C 
ATOM      2  C   UNL     1      -1.605   6.496   1.148  0.00  0.00    -0.007 C 
ATOM      3  C   UNL     1      -0.280   6.453   1.904  0.00  0.00    +0.035 C 
ATOM      4  C   UNL     1       0.855   6.742   0.956  0.00  0.00    -0.033 A 
ATOM      5  C   UNL     1       1.476   7.974   0.973  0.00  0.00    +0.054 A 
ATOM      6  C   UNL     1       2.538   8.229   0.115  0.00  0.00    +0.165 A 
ATOM      7  C   UNL     1       2.981   7.248  -0.766  0.00  0.00    +0.204 A 
ATOM      8  C   UNL     1       2.356   6.008  -0.793  0.00  0.00    +0.173 A 
ATOM      9  C   UNL     1       1.286   5.759   0.071  0.00  0.00    +0.031 A 
ATOM     10  C   UNL     1       0.604   4.430   0.040  0.00  0.00    -0.012 A 
ATOM     11  C   UNL     1      -0.789   4.434  -0.024  0.00  0.00    -0.050 A 
ATOM     12  C   UNL     1      -1.572   3.341   0.030  0.00  0.00    +0.055 A 
ATOM     13  C   UNL     1      -1.299   2.006   0.112  0.00  0.00    +0.200 A 
ATOM     14  O   UNL     1      -2.273   1.269   0.192  0.00  0.00    -0.286 OA
ATOM     15  C   UNL     1      -0.059   1.373   0.122  0.00  0.00    +0.074 A 
ATOM     16  C   UNL     1       1.150   2.002   0.104  0.00  0.00    +0.027 A 
ATOM     17  C   UNL     1       1.411   3.322   0.083  0.00  0.00    +0.011 A 
ENDROOT
BRANCH   1  19
ATOM     18  C   UNL     1      -3.402   6.737  -1.314  0.00  0.00    -0.100 C 
ATOM     19  N   UNL     1      -2.859   5.513  -0.696  0.00  0.00    +0.382 N 
ATOM     20  H   UNL     1      -2.820   4.767  -1.400  0.00  0.00    -0.085 HD
ATOM     21  H   UNL     1      -3.470   5.223   0.076  0.00  0.00    -0.085 HD
ENDBRANCH   1  19
BRANCH  15  22
ATOM     22  N   UNL     1      -0.053  -0.012   0.148  0.00  0.00    -0.341 N 
ATOM     23  H   UNL     1      -0.891  -0.500   0.162  0.00  0.00    +0.146 HD
BRANCH  22  24
ATOM     24  C   UNL     1       1.219  -0.739   0.155  0.00  0.00    +0.106 C 
BRANCH  24  25
ATOM     25  C   UNL     1       0.945  -2.244   0.185  0.00  0.00    +0.054 C 
BRANCH  25  26
ATOM     26  C   UNL     1       2.253  -2.992   0.192  0.00  0.00    -0.042 A 
ATOM     27  C   UNL     1       2.859  -3.312   1.394  0.00  0.00    +0.007 A 
ATOM     28  C   UNL     1       4.058  -3.999   1.406  0.00  0.00    +0.049 A 
ATOM     29  C   UNL     1       4.657  -4.368   0.212  0.00  0.00    +0.161 A 
ATOM     30  C   UNL     1       4.048  -4.046  -0.997  0.00  0.00    +0.162 A 
ATOM     31  C   UNL     1       2.843  -3.362  -1.002  0.00  0.00    +0.053 A 
BRANCH  30  32
ATOM     32  O   UNL     1       4.632  -4.406  -2.172  0.00  0.00    -0.491 OA
ATOM     33  C   UNL     1       3.950  -4.042  -3.373  0.00  0.00    +0.277 C 
ENDBRANCH  30  32
BRANCH  29  34
ATOM     34  O   UNL     1       5.837  -5.044   0.222  0.00  0.00    -0.491 OA
ATOM     35  C   UNL     1       6.404  -5.341   1.499  0.00  0.00    +0.277 C 
ENDBRANCH  29  34
ENDBRANCH  25  26
ENDBRANCH  24  25
ENDBRANCH  22  24
ENDBRANCH  15  22
BRANCH   8  36
ATOM     36  O   UNL     1       2.782   5.044  -1.651  0.00  0.00    -0.491 OA
ATOM     37  C   UNL     1       2.174   5.012  -2.944  0.00  0.00    +0.277 C 
ENDBRANCH   8  36
BRANCH   7  38
ATOM     38  O   UNL     1       4.026   7.503  -1.600  0.00  0.00    -0.488 OA
ATOM     39  C   UNL     1       5.334   7.197  -1.113  0.00  0.00    +0.277 C 
ENDBRANCH   7  38
BRANCH   6  40
ATOM     40  O   UNL     1       3.147   9.443   0.136  0.00  0.00    -0.491 OA
ATOM     41  C   UNL     1       2.644  10.406   1.065  0.00  0.00    +0.277 C 
ENDBRANCH   6  40
TORSDOF 10
