REMARK  Name = ZINC06089555
REMARK  8 active torsions:
REMARK  status: ('A' for Active; 'I' for Inactive)
REMARK    1  A    between atoms: C_1  and  C_2
REMARK    2  A    between atoms: C_2  and  O_3
REMARK    3  A    between atoms: O_3  and  C_4
REMARK    4  A    between atoms: C_4  and  C_6
REMARK    5  A    between atoms: C_10  and  N_11
REMARK    6  A    between atoms: C_12  and  C_14
REMARK    7  A    between atoms: C_16  and  N_27
REMARK    8  A    between atoms: C_19  and  N_20
REMARK                            x       y       z     vdW  Elec       q    Type
REMARK                         _______ _______ _______ _____ _____    ______ ____
ROOT
ATOM      1  N   UNL     1      -1.190   1.870  -0.075  0.00  0.00    -0.275 N 
ATOM      2  C   UNL     1      -0.014   1.212  -0.054  0.00  0.00    +0.250 C 
ATOM      3  O   UNL     1       0.003  -0.004  -0.061  0.00  0.00    -0.270 OA
ATOM      4  H   UNL     1      -1.203   2.840  -0.069  0.00  0.00    +0.156 HD
ENDROOT
BRANCH   1   9
ATOM      5  C   UNL     1      -3.678   1.655  -0.122  0.00  0.00    +0.091 A 
ATOM      6  C   UNL     1      -4.763   0.688  -0.156  0.00  0.00    -0.021 A 
ATOM      7  C   UNL     1      -4.379  -0.607  -0.155  0.00  0.00    -0.004 A 
ATOM      8  S   UNL     1      -2.610  -0.556  -0.118  0.00  0.00    -0.077 S 
ATOM      9  C   UNL     1      -2.380   1.161  -0.103  0.00  0.00    +0.087 A 
ATOM     10  C   UNL     1      -5.268  -1.812  -0.179  0.00  0.00    +0.043 C 
ATOM     11  C   UNL     1      -6.695  -1.368   0.172  0.00  0.00    +0.005 C 
ATOM     12  C   UNL     1      -7.048  -0.136  -0.665  0.00  0.00    +0.005 C 
ATOM     13  C   UNL     1      -6.237   1.069  -0.185  0.00  0.00    +0.037 C 
BRANCH   5  14
ATOM     14  C   UNL     1      -3.944   3.094  -0.111  0.00  0.00    +0.342 C 
ATOM     15  O   UNL     1      -4.036   3.704  -1.160  0.00  0.00    -0.245 OA
BRANCH  14  16
ATOM     16  O   UNL     1      -4.087   3.745   1.062  0.00  0.00    -0.461 OA
BRANCH  16  18
ATOM     17  C   UNL     1      -4.480   5.732   2.415  0.00  0.00    +0.048 C 
ATOM     18  C   UNL     1      -4.349   5.172   0.997  0.00  0.00    +0.229 C 
ENDBRANCH  16  18
ENDBRANCH  14  16
ENDBRANCH   5  14
ENDBRANCH   1   9
BRANCH   2  19
ATOM     19  C   UNL     1       1.252   1.966  -0.030  0.00  0.00    +0.060 A 
ATOM     20  C   UNL     1       1.238   3.364  -0.022  0.00  0.00    +0.047 A 
ATOM     21  C   UNL     1       2.425   4.062   0.001  0.00  0.00    +0.127 A 
ATOM     22  C   UNL     1       3.635   3.387   0.017  0.00  0.00    +0.034 A 
ATOM     23  C   UNL     1       3.666   2.008   0.009  0.00  0.00    +0.026 A 
ATOM     24  C   UNL     1       2.479   1.285  -0.009  0.00  0.00    +0.042 A 
BRANCH  24  25
ATOM     25  N   UNL     1       2.507  -0.103  -0.011  0.00  0.00    -0.329 N 
ATOM     26  C   UNL     1       3.144  -0.623   1.220  0.00  0.00    +0.105 C 
ATOM     27  C   UNL     1       3.443  -2.095   1.145  0.00  0.00    +0.019 C 
ATOM     28  C   UNL     1       4.894  -2.276   0.653  0.00  0.00    +0.002 C 
ATOM     29  C   UNL     1       5.013  -2.097  -0.790  0.00  0.00    +0.002 C 
ATOM     30  C   UNL     1       4.591  -0.682  -1.239  0.00  0.00    +0.019 C 
ATOM     31  C   UNL     1       3.088  -0.620  -1.271  0.00  0.00    +0.105 C 
ENDBRANCH  24  25
BRANCH  21  32
ATOM     32  N   UNL     1       2.407   5.543   0.010  0.00  0.00    +0.056 N 
ATOM     33  O   UNL     1       1.345   6.139  -0.004  0.00  0.00    -0.126 OA
ATOM     34  O   UNL     1       3.455   6.164   0.030  0.00  0.00    -0.126 OA
ENDBRANCH  21  32
ENDBRANCH   2  19
TORSDOF 7
