REMARK  Name = ZINC15947093
REMARK  10 active torsions:
REMARK  status: ('A' for Active; 'I' for Inactive)
REMARK    1  A    between atoms: C_1  and  C_2
REMARK    2  A    between atoms: C_2  and  C_3
REMARK    3  A    between atoms: C_2  and  N_4
REMARK    4  A    between atoms: C_12  and  O_34
REMARK    5  A    between atoms: C_14  and  C_17
REMARK    6  A    between atoms: C_20  and  O_23
REMARK    7  A    between atoms: O_23  and  C_24
REMARK    8  A    between atoms: C_24  and  C_26
REMARK    9  A    between atoms: C_29  and  O_32
REMARK   10  A    between atoms: O_32  and  C_33
REMARK                            x       y       z     vdW  Elec       q    Type
REMARK                         _______ _______ _______ _____ _____    ______ ____
ROOT
ATOM      1  N   UNL     1      -1.706  -0.261   0.403  0.00  0.00    +0.384 N 
ATOM      2  C   UNL     1      -1.960  -1.683   0.673  0.00  0.00    -0.073 C 
ATOM      3  C   UNL     1      -3.442  -1.903   0.996  0.00  0.00    +0.018 C 
ATOM      4  C   UNL     1      -4.263  -1.271  -0.119  0.00  0.00    -0.027 A 
ATOM      5  C   UNL     1      -3.691  -0.371  -0.956  0.00  0.00    -0.021 A 
ATOM      6  S   UNL     1      -4.985   0.090  -2.072  0.00  0.00    -0.080 S 
ATOM      7  C   UNL     1      -6.215  -0.845  -1.469  0.00  0.00    +0.080 A 
ATOM      8  C   UNL     1      -5.659  -1.546  -0.391  0.00  0.00    +0.067 A 
ATOM      9  C   UNL     1      -6.545  -2.489   0.341  0.00  0.00    +0.220 C 
ATOM     10  N   UNL     1      -7.827  -2.423   0.105  0.00  0.00    -0.223 NA
ATOM     11  C   UNL     1      -8.456  -1.448  -0.777  0.00  0.00    +0.224 C 
ATOM     12  N   UNL     1      -7.533  -0.997  -1.834  0.00  0.00    -0.313 N 
ATOM     13  C   UNL     1      -2.273   0.102  -0.908  0.00  0.00    -0.035 C 
ATOM     14  H   UNL     1      -7.838  -0.817  -2.737  0.00  0.00    +0.149 HD
ATOM     15  H   UNL     1      -2.137   0.299   1.123  0.00  0.00    -0.081 HD
ENDROOT
BRANCH  11  16
ATOM     16  C   UNL     1      -8.889  -0.256   0.037  0.00  0.00    -0.005 A 
ATOM     17  C   UNL     1      -8.932   0.998  -0.544  0.00  0.00    +0.011 A 
ATOM     18  C   UNL     1      -9.329   2.092   0.200  0.00  0.00    +0.047 A 
ATOM     19  C   UNL     1      -9.685   1.933   1.531  0.00  0.00    +0.132 A 
ATOM     20  C   UNL     1      -9.642   0.673   2.112  0.00  0.00    +0.047 A 
ATOM     21  C   UNL     1      -9.249  -0.419   1.362  0.00  0.00    +0.011 A 
BRANCH  19  22
ATOM     22  O   UNL     1     -10.075   3.008   2.265  0.00  0.00    -0.422 OA
BRANCH  22  23
ATOM     23  C   UNL     1     -11.323   3.483   2.077  0.00  0.00    +0.344 C 
ATOM     24  O   UNL     1     -12.029   3.009   1.209  0.00  0.00    -0.245 OA
BRANCH  23  25
ATOM     25  C   UNL     1     -11.830   4.577   2.925  0.00  0.00    +0.060 A 
ATOM     26  C   UNL     1     -11.017   5.127   3.921  0.00  0.00    +0.018 A 
ATOM     27  C   UNL     1     -11.495   6.149   4.710  0.00  0.00    +0.046 A 
ATOM     28  C   UNL     1     -12.783   6.634   4.518  0.00  0.00    +0.120 A 
ATOM     29  C   UNL     1     -13.595   6.090   3.530  0.00  0.00    +0.046 A 
ATOM     30  C   UNL     1     -13.123   5.071   2.732  0.00  0.00    +0.018 A 
BRANCH  28  31
ATOM     31  O   UNL     1     -13.250   7.641   5.298  0.00  0.00    -0.495 OA
ATOM     32  C   UNL     1     -14.583   8.092   5.048  0.00  0.00    +0.277 C 
ENDBRANCH  28  31
ENDBRANCH  23  25
ENDBRANCH  22  23
ENDBRANCH  19  22
ENDBRANCH  11  16
BRANCH   1  34
ATOM     33  C   UNL     1       0.011   1.441   0.015  0.00  0.00    -0.014 C 
ATOM     34  C   UNL     1      -0.258  -0.017   0.394  0.00  0.00    -0.074 C 
ATOM     35  C   UNL     1       0.315  -0.296   1.785  0.00  0.00    -0.014 C 
ENDBRANCH   1  34
BRANCH   9  36
ATOM     36  O   UNL     1      -6.039  -3.384   1.220  0.00  0.00    -0.492 OA
ATOM     37  H   UNL     1      -6.707  -3.945   1.637  0.00  0.00    +0.294 HD
ENDBRANCH   9  36
TORSDOF 7
