REMARK  Name = ZINC63117521
REMARK  9 active torsions:
REMARK  status: ('A' for Active; 'I' for Inactive)
REMARK    1  A    between atoms: C_1  and  O_2
REMARK    2  A    between atoms: O_2  and  C_3
REMARK    3  A    between atoms: C_7  and  C_11
REMARK    4  A    between atoms: C_8  and  O_9
REMARK    5  A    between atoms: O_9  and  C_10
REMARK    6  A    between atoms: C_11  and  C_13
REMARK    7  A    between atoms: C_11  and  C_28
REMARK    8  A    between atoms: C_13  and  N_14
REMARK    9  A    between atoms: C_15  and  C_17
REMARK                            x       y       z     vdW  Elec       q    Type
REMARK                         _______ _______ _______ _____ _____    ______ ____
ROOT
ATOM      1  C   UNL     1       1.394  -4.134   2.219  0.00  0.00    +0.068 C 
ENDROOT
BRANCH   1   2
ATOM      2  C   UNL     1       0.715  -4.617   3.474  0.00  0.00    -0.033 C 
ATOM      3  C   UNL     1      -0.348  -5.449   3.554  0.00  0.00    -0.000 A 
ATOM      4  C   UNL     1      -1.160  -6.127   2.536  0.00  0.00    +0.010 A 
ATOM      5  C   UNL     1      -2.185  -6.915   2.932  0.00  0.00    +0.001 A 
ATOM      6  C   UNL     1      -2.491  -7.101   4.287  0.00  0.00    +0.002 A 
ATOM      7  C   UNL     1      -1.791  -6.513   5.280  0.00  0.00    +0.026 A 
ATOM      8  C   UNL     1      -0.692  -5.663   4.978  0.00  0.00    +0.043 A 
ATOM      9  N   UNL     1       0.127  -4.989   5.749  0.00  0.00    -0.380 N 
ATOM     10  C   UNL     1       1.088  -4.275   4.899  0.00  0.00    +0.145 C 
ATOM     11  H   UNL     1       0.104  -4.968   6.718  0.00  0.00    +0.160 HD
ENDBRANCH   1   2
BRANCH   1  16
ATOM     12  C   UNL     1       0.626  -0.619   1.042  0.00  0.00    +0.162 A 
ATOM     13  C   UNL     1       1.202   0.137   2.051  0.00  0.00    +0.049 A 
ATOM     14  C   UNL     1       1.836  -0.490   3.108  0.00  0.00    +0.004 A 
ATOM     15  C   UNL     1       1.897  -1.870   3.161  0.00  0.00    +0.008 A 
ATOM     16  C   UNL     1       1.325  -2.630   2.158  0.00  0.00    +0.007 A 
ATOM     17  C   UNL     1       0.683  -2.008   1.099  0.00  0.00    +0.165 A 
BRANCH  12  19
ATOM     18  C   UNL     1      -0.017   1.425   0.010  0.00  0.00    +0.277 C 
ATOM     19  O   UNL     1       0.002  -0.004   0.002  0.00  0.00    -0.491 OA
ENDBRANCH  12  19
BRANCH  17  20
ATOM     20  O   UNL     1       0.115  -2.754   0.114  0.00  0.00    -0.491 OA
ATOM     21  C   UNL     1       0.940  -3.091  -1.003  0.00  0.00    +0.277 C 
ENDBRANCH  17  20
ENDBRANCH   1  16
BRANCH   1  22
ATOM     22  C   UNL     1       2.859  -4.577   2.229  0.00  0.00    +0.117 C 
BRANCH  22  23
ATOM     23  N   UNL     1       2.927  -6.039   2.168  0.00  0.00    -0.311 N 
ATOM     24  C   UNL     1       4.124  -6.658   2.165  0.00  0.00    +0.257 C 
ATOM     25  O   UNL     1       5.145  -6.005   2.213  0.00  0.00    -0.272 OA
ATOM     26  H   UNL     1       2.111  -6.561   2.130  0.00  0.00    +0.149 HD
BRANCH  24  27
ATOM     27  C   UNL     1       4.194  -8.162   2.102  0.00  0.00    +0.296 C 
ATOM     28  C   UNL     1       3.647  -8.650   0.753  0.00  0.00    +0.283 C 
ATOM     29  O   UNL     1       3.742 -10.078   0.722  0.00  0.00    -0.484 OA
ATOM     30  C   UNL     1       4.920 -10.623   1.132  0.00  0.00    +0.162 A 
ATOM     31  C   UNL     1       5.217 -11.935   0.796  0.00  0.00    +0.049 A 
ATOM     32  C   UNL     1       6.407 -12.503   1.208  0.00  0.00    +0.004 A 
ATOM     33  C   UNL     1       7.306 -11.765   1.956  0.00  0.00    +0.004 A 
ATOM     34  C   UNL     1       7.017 -10.456   2.292  0.00  0.00    +0.049 A 
ATOM     35  C   UNL     1       5.824  -9.880   1.881  0.00  0.00    +0.163 A 
ATOM     36  O   UNL     1       5.557  -8.587   2.215  0.00  0.00    -0.473 OA
ENDBRANCH  24  27
ENDBRANCH  22  23
ENDBRANCH   1  22
TORSDOF 7
