REMARK  Name = ZINC20913351
REMARK  11 active torsions:
REMARK  status: ('A' for Active; 'I' for Inactive)
REMARK    1  A    between atoms: C_1  and  O_2
REMARK    2  A    between atoms: O_2  and  C_3
REMARK    3  A    between atoms: C_3  and  C_5
REMARK    4  A    between atoms: C_8  and  C_11
REMARK    5  A    between atoms: N_12  and  N_13
REMARK    6  A    between atoms: C_17  and  S_20
REMARK    7  A    between atoms: N_18  and  N_19
REMARK    8  A    between atoms: S_20  and  C_21
REMARK    9  A    between atoms: C_21  and  C_22
REMARK   10  A    between atoms: N_24  and  C_25
REMARK   11  A    between atoms: C_30  and  C_31
REMARK                            x       y       z     vdW  Elec       q    Type
REMARK                         _______ _______ _______ _____ _____    ______ ____
ROOT
ATOM      1  N   UNL     1     -10.993   0.909  -0.633  0.00  0.00    -0.204 N 
ATOM      2  C   UNL     1      -9.618   0.762  -0.528  0.00  0.00    +0.254 A 
ATOM      3  N   UNL     1      -8.736   1.728  -0.453  0.00  0.00    -0.109 NA
ATOM      4  N   UNL     1      -7.552   1.238  -0.359  0.00  0.00    -0.119 NA
ATOM      5  C   UNL     1      -7.605  -0.071  -0.378  0.00  0.00    +0.210 A 
ATOM      6  N   UNL     1      -8.926  -0.421  -0.483  0.00  0.00    -0.211 N 
ATOM      7  H   UNL     1     -11.638   0.019  -0.689  0.00  0.00    +0.177 HD
ENDROOT
BRANCH   6   8
ATOM      8  N   UNL     1      -9.444  -1.683  -0.532  0.00  0.00    -0.294 N 
ATOM      9  H   UNL     1      -8.775  -2.555  -0.486  0.00  0.00    +0.163 HD
ATOM     10  H   UNL     1     -10.532  -1.828  -0.617  0.00  0.00    +0.163 HD
ENDBRANCH   6   8
BRANCH   1  12
ATOM     11  C   UNL     1     -12.850   2.326  -0.767  0.00  0.00    +0.138 C 
ATOM     12  N   UNL     1     -11.561   2.189  -0.669  0.00  0.00    -0.188 NA
BRANCH  11  16
ATOM     13  C   UNL     1     -14.567   6.197  -0.874  0.00  0.00    +0.059 A 
ATOM     14  C   UNL     1     -15.387   5.066  -0.945  0.00  0.00    +0.015 A 
ATOM     15  C   UNL     1     -14.835   3.818  -0.910  0.00  0.00    +0.010 A 
ATOM     16  C   UNL     1     -13.447   3.671  -0.804  0.00  0.00    -0.005 A 
ATOM     17  C   UNL     1     -12.627   4.802  -0.728  0.00  0.00    +0.010 A 
ATOM     18  C   UNL     1     -13.180   6.050  -0.768  0.00  0.00    +0.015 A 
BRANCH  13  19
ATOM     19  C   UNL     1     -15.164   7.544  -0.912  0.00  0.00    +0.339 C 
ATOM     20  O   UNL     1     -16.369   7.672  -1.004  0.00  0.00    -0.245 OA
BRANCH  19  22
ATOM     21  C   UNL     1     -15.031   9.928  -0.886  0.00  0.00    +0.280 C 
ATOM     22  O   UNL     1     -14.374   8.634  -0.844  0.00  0.00    -0.464 OA
ENDBRANCH  19  22
ENDBRANCH  13  19
ENDBRANCH  11  16
ENDBRANCH   1  12
BRANCH   5  23
ATOM     23  S   UNL     1      -6.236  -1.176  -0.279  0.00  0.00    -0.075 S 
BRANCH  23  24
ATOM     24  C   UNL     1      -4.878   0.016  -0.166  0.00  0.00    +0.173 C 
BRANCH  24  25
ATOM     25  C   UNL     1      -3.568  -0.722  -0.069  0.00  0.00    +0.227 C 
ATOM     26  O   UNL     1      -3.554  -1.935  -0.076  0.00  0.00    -0.275 OA
ATOM     27  N   UNL     1      -2.413  -0.035   0.025  0.00  0.00    -0.284 N 
ATOM     28  H   UNL     1      -2.431   1.061   0.123  0.00  0.00    +0.155 HD
BRANCH  27  29
ATOM     29  C   UNL     1      -1.190  -0.714  -0.002  0.00  0.00    +0.045 A 
ATOM     30  C   UNL     1      -1.097  -1.956  -0.618  0.00  0.00    +0.024 A 
ATOM     31  C   UNL     1       0.111  -2.624  -0.642  0.00  0.00    +0.002 A 
ATOM     32  C   UNL     1       1.228  -2.059  -0.054  0.00  0.00    +0.001 A 
ATOM     33  C   UNL     1       1.140  -0.821   0.555  0.00  0.00    +0.014 A 
ATOM     34  C   UNL     1      -0.067  -0.150   0.588  0.00  0.00    +0.076 A 
BRANCH  34  35
ATOM     35  C   UNL     1      -0.163   1.197   1.258  0.00  0.00    +0.419 C 
ATOM     36  F   UNL     1       1.088   1.552   1.773  0.00  0.00    -0.166 F 
ATOM     37  F   UNL     1      -0.571   2.155   0.323  0.00  0.00    -0.166 F 
ATOM     38  F   UNL     1      -1.096   1.135   2.299  0.00  0.00    -0.166 F 
ENDBRANCH  34  35
ENDBRANCH  27  29
ENDBRANCH  24  25
ENDBRANCH  23  24
ENDBRANCH   5  23
TORSDOF 10
