REMARK  Name = ZINC34708230
REMARK  8 active torsions:
REMARK  status: ('A' for Active; 'I' for Inactive)
REMARK    1  A    between atoms: C_1  and  C_2
REMARK    2  A    between atoms: C_6  and  C_8
REMARK    3  A    between atoms: C_12  and  O_27
REMARK    4  A    between atoms: C_19  and  C_21
REMARK    5  A    between atoms: O_27  and  C_28
REMARK    6  A    between atoms: C_28  and  C_30
REMARK    7  A    between atoms: C_28  and  C_31
REMARK    8  A    between atoms: N_33  and  C_34
REMARK                            x       y       z     vdW  Elec       q    Type
REMARK                         _______ _______ _______ _____ _____    ______ ____
ROOT
ATOM      1  C   UNL     1      -0.245  -2.609   2.671  0.00  0.00    +0.137 C 
ATOM      2  C   UNL     1       0.928  -3.090   3.488  0.00  0.00    -0.016 A 
ATOM      3  C   UNL     1       2.064  -2.294   3.519  0.00  0.00    +0.051 A 
ATOM      4  C   UNL     1       3.170  -2.677   4.260  0.00  0.00    +0.122 A 
ATOM      5  C   UNL     1       3.137  -3.865   4.976  0.00  0.00    +0.046 A 
ATOM      6  C   UNL     1       2.008  -4.655   4.939  0.00  0.00    +0.007 A 
ATOM      7  C   UNL     1       0.900  -4.274   4.191  0.00  0.00    -0.040 A 
ATOM      8  C   UNL     1      -0.285  -5.203   4.179  0.00  0.00    +0.054 C 
ATOM      9  C   UNL     1      -1.550  -4.465   3.744  0.00  0.00    +0.113 C 
ATOM     10  N   UNL     1      -1.228  -3.689   2.536  0.00  0.00    -0.286 N 
ATOM     11  C   UNL     1      -1.814  -3.959   1.352  0.00  0.00    +0.247 C 
ATOM     12  O   UNL     1      -1.554  -3.282   0.377  0.00  0.00    -0.270 OA
ENDROOT
BRANCH   1  18
ATOM     13  C   UNL     1       0.147   0.864  -0.911  0.00  0.00    +0.044 C 
ATOM     14  C   UNL     1       0.420  -0.531  -0.410  0.00  0.00    -0.050 A 
ATOM     15  C   UNL     1       1.110  -1.428  -1.204  0.00  0.00    +0.003 A 
ATOM     16  C   UNL     1       1.361  -2.707  -0.744  0.00  0.00    +0.001 A 
ATOM     17  C   UNL     1       0.923  -3.089   0.510  0.00  0.00    +0.006 A 
ATOM     18  C   UNL     1       0.234  -2.192   1.304  0.00  0.00    -0.022 A 
ATOM     19  C   UNL     1      -0.014  -0.911   0.846  0.00  0.00    +0.009 A 
ENDBRANCH   1  18
BRANCH  11  20
ATOM     20  C   UNL     1      -2.772  -5.079   1.241  0.00  0.00    +0.037 A 
ATOM     21  C   UNL     1      -2.617  -6.217   2.034  0.00  0.00    +0.013 A 
ATOM     22  C   UNL     1      -3.515  -7.258   1.926  0.00  0.00    +0.001 A 
ATOM     23  C   UNL     1      -4.569  -7.176   1.032  0.00  0.00    +0.000 A 
ATOM     24  C   UNL     1      -4.728  -6.052   0.242  0.00  0.00    +0.001 A 
ATOM     25  C   UNL     1      -3.841  -5.001   0.346  0.00  0.00    +0.013 A 
ENDBRANCH  11  20
BRANCH   4  26
ATOM     26  O   UNL     1       4.280  -1.894   4.285  0.00  0.00    -0.480 OA
BRANCH  26  27
ATOM     27  C   UNL     1       5.391  -2.368   5.048  0.00  0.00    +0.256 C 
ATOM     28  C   UNL     1       6.273  -3.256   4.167  0.00  0.00    +0.062 C 
BRANCH  27  29
ATOM     29  C   UNL     1       6.197  -1.196   5.545  0.00  0.00    +0.258 C 
ATOM     30  O   UNL     1       5.853  -0.065   5.273  0.00  0.00    -0.271 OA
ATOM     31  N   UNL     1       7.299  -1.404   6.292  0.00  0.00    -0.282 N 
ATOM     32  H   UNL     1       7.624  -2.306   6.436  0.00  0.00    +0.155 HD
BRANCH  31  33
ATOM     33  C   UNL     1       7.974  -0.318   6.859  0.00  0.00    +0.036 A 
ATOM     34  C   UNL     1       9.356  -0.353   6.998  0.00  0.00    +0.023 A 
ATOM     35  C   UNL     1      10.021   0.720   7.557  0.00  0.00    +0.005 A 
ATOM     36  C   UNL     1       9.314   1.830   7.981  0.00  0.00    +0.038 A 
ATOM     37  C   UNL     1       7.936   1.869   7.846  0.00  0.00    +0.125 A 
ATOM     38  C   UNL     1       7.266   0.799   7.280  0.00  0.00    +0.061 A 
ATOM     39  F   UNL     1       7.248   2.955   8.261  0.00  0.00    -0.205 F 
ENDBRANCH  31  33
ENDBRANCH  27  29
ENDBRANCH  26  27
ENDBRANCH   4  26
TORSDOF 6
