REMARK  Name = ZINC02391582
REMARK  8 active torsions:
REMARK  status: ('A' for Active; 'I' for Inactive)
REMARK    1  A    between atoms: C_1  and  C_2
REMARK    2  A    between atoms: C_7  and  N_8
REMARK    3  A    between atoms: C_9  and  C_11
REMARK    4  A    between atoms: N_13  and  N_14
REMARK    5  A    between atoms: C_15  and  C_16
REMARK    6  A    between atoms: C_19  and  O_22
REMARK    7  A    between atoms: O_22  and  C_23
REMARK    8  A    between atoms: C_23  and  C_25
REMARK                            x       y       z     vdW  Elec       q    Type
REMARK                         _______ _______ _______ _____ _____    ______ ____
ROOT
ATOM      1  N   UNL     1      -8.713  -1.646   0.272  0.00  0.00    -0.187 NA
ATOM      2  C   UNL     1      -8.633  -0.350   0.218  0.00  0.00    +0.138 C 
ENDROOT
BRANCH   2   3
ATOM      3  C   UNL     1      -7.315   0.306   0.191  0.00  0.00    -0.005 A 
ATOM      4  C   UNL     1      -7.227   1.700   0.132  0.00  0.00    +0.013 A 
ATOM      5  C   UNL     1      -5.991   2.310   0.107  0.00  0.00    +0.047 A 
ATOM      6  C   UNL     1      -4.834   1.541   0.140  0.00  0.00    +0.132 A 
ATOM      7  C   UNL     1      -4.917   0.155   0.193  0.00  0.00    +0.047 A 
ATOM      8  C   UNL     1      -6.148  -0.463   0.224  0.00  0.00    +0.013 A 
BRANCH   6   9
ATOM      9  O   UNL     1      -3.619   2.147   0.115  0.00  0.00    -0.422 OA
BRANCH   9  10
ATOM     10  C   UNL     1      -3.188   2.750   1.242  0.00  0.00    +0.351 C 
ATOM     11  O   UNL     1      -3.919   2.821   2.212  0.00  0.00    -0.244 OA
BRANCH  10  12
ATOM     12  C   UNL     1      -1.841   3.321   1.299  0.00  0.00    +0.097 A 
ATOM     13  C   UNL     1      -1.212   3.975   2.347  0.00  0.00    +0.022 A 
ATOM     14  C   UNL     1       0.072   4.410   2.132  0.00  0.00    +0.008 A 
ATOM     15  C   UNL     1       0.654   4.188   0.924  0.00  0.00    +0.046 A 
ATOM     16  S   UNL     1      -0.582   3.357   0.035  0.00  0.00    -0.090 S 
ENDBRANCH  10  12
ENDBRANCH   9  10
ENDBRANCH   6   9
ENDBRANCH   2   3
BRANCH   1  19
ATOM     17  C   UNL     1     -10.050  -3.614   0.354  0.00  0.00    +0.318 C 
ATOM     18  O   UNL     1      -9.037  -4.284   0.383  0.00  0.00    -0.263 OA
ATOM     19  N   UNL     1      -9.967  -2.270   0.298  0.00  0.00    -0.199 N 
ATOM     20  H   UNL     1     -10.776  -1.735   0.276  0.00  0.00    +0.178 HD
BRANCH  17  22
ATOM     21  N   UNL     1     -11.467  -5.623   0.438  0.00  0.00    -0.277 N 
ATOM     22  C   UNL     1     -11.384  -4.279   0.382  0.00  0.00    +0.305 C 
ATOM     23  O   UNL     1     -12.396  -3.609   0.354  0.00  0.00    -0.265 OA
ATOM     24  H   UNL     1     -10.661  -6.155   0.526  0.00  0.00    +0.155 HD
BRANCH  21  31
ATOM     25  C   UNL     1     -11.634  -8.138  -0.881  0.00  0.00    +0.045 C 
ATOM     26  C   UNL     1     -12.841  -7.478  -0.265  0.00  0.00    -0.029 A 
ATOM     27  C   UNL     1     -14.075  -8.095  -0.331  0.00  0.00    +0.005 A 
ATOM     28  C   UNL     1     -15.183  -7.491   0.234  0.00  0.00    +0.000 A 
ATOM     29  C   UNL     1     -15.059  -6.267   0.868  0.00  0.00    +0.002 A 
ATOM     30  C   UNL     1     -13.828  -5.648   0.942  0.00  0.00    +0.023 A 
ATOM     31  C   UNL     1     -12.714  -6.250   0.370  0.00  0.00    +0.037 A 
ENDBRANCH  21  31
ENDBRANCH  17  22
ENDBRANCH   1  19
TORSDOF 7
