REMARK  Name = ZINC59464115
REMARK  12 active torsions:
REMARK  status: ('A' for Active; 'I' for Inactive)
REMARK    1  A    between atoms: C_1  and  O_2
REMARK    2  A    between atoms: O_2  and  C_3
REMARK    3  A    between atoms: C_3  and  C_5
REMARK    4  A    between atoms: C_5  and  O_6
REMARK    5  A    between atoms: O_6  and  C_7
REMARK    6  A    between atoms: C_10  and  C_13
REMARK    7  A    between atoms: N_14  and  N_15
REMARK    8  A    between atoms: C_16  and  C_18
REMARK    9  A    between atoms: C_18  and  N_19
REMARK   10  A    between atoms: N_19  and  C_20
REMARK   11  A    between atoms: N_19  and  S_32
REMARK   12  A    between atoms: S_32  and  C_35
REMARK                            x       y       z     vdW  Elec       q    Type
REMARK                         _______ _______ _______ _____ _____    ______ ____
ROOT
ATOM      1  N   UNL     1       2.812 -10.040  -4.281  0.00  0.00    -0.206 N 
ATOM      2  C   UNL     1       3.406 -10.375  -5.443  0.00  0.00    +0.251 C 
ATOM      3  O   UNL     1       3.902  -9.515  -6.141  0.00  0.00    -0.272 OA
ATOM      4  H   UNL     1       2.415 -10.728  -3.723  0.00  0.00    +0.177 HD
ENDROOT
BRANCH   1   6
ATOM      5  C   UNL     1       2.192  -8.377  -2.759  0.00  0.00    +0.138 C 
ATOM      6  N   UNL     1       2.765  -8.699  -3.878  0.00  0.00    -0.188 NA
BRANCH   5  10
ATOM      7  C   UNL     1       2.053  -4.313  -1.540  0.00  0.00    +0.121 A 
ATOM      8  C   UNL     1       1.485  -5.296  -0.740  0.00  0.00    +0.046 A 
ATOM      9  C   UNL     1       1.528  -6.616  -1.131  0.00  0.00    +0.013 A 
ATOM     10  C   UNL     1       2.144  -6.965  -2.336  0.00  0.00    -0.005 A 
ATOM     11  C   UNL     1       2.714  -5.973  -3.138  0.00  0.00    +0.013 A 
ATOM     12  C   UNL     1       2.662  -4.655  -2.740  0.00  0.00    +0.046 A 
BRANCH   7  13
ATOM     13  O   UNL     1       2.009  -3.012  -1.149  0.00  0.00    -0.481 OA
BRANCH  13  14
ATOM     14  C   UNL     1       1.367  -2.731   0.096  0.00  0.00    +0.349 C 
BRANCH  14  15
ATOM     15  C   UNL     1       1.414  -1.248   0.361  0.00  0.00    +0.345 C 
ATOM     16  O   UNL     1       1.942  -0.508  -0.435  0.00  0.00    -0.247 OA
BRANCH  15  18
ATOM     17  C   UNL     1       0.950   0.666   1.668  0.00  0.00    +0.280 C 
ATOM     18  O   UNL     1       0.869  -0.749   1.482  0.00  0.00    -0.466 OA
ENDBRANCH  15  18
ENDBRANCH  14  15
ENDBRANCH  13  14
ENDBRANCH   7  13
ENDBRANCH   5  10
ENDBRANCH   1   6
BRANCH   2  19
ATOM     19  C   UNL     1       3.456 -11.818  -5.876  0.00  0.00    +0.228 C 
BRANCH  19  20
ATOM     20  N   UNL     1       4.074 -11.909  -7.201  0.00  0.00    -0.198 N 
BRANCH  20  21
ATOM     21  C   UNL     1       5.460 -11.980  -7.319  0.00  0.00    +0.059 A 
ATOM     22  C   UNL     1       6.227 -10.830  -7.343  0.00  0.00    +0.025 A 
ATOM     23  C   UNL     1       7.616 -10.868  -7.460  0.00  0.00    +0.006 A 
ATOM     24  C   UNL     1       8.269 -12.060  -7.557  0.00  0.00    -0.039 A 
ATOM     25  C   UNL     1       7.513 -13.228  -7.535  0.00  0.00    -0.010 A 
ATOM     26  C   UNL     1       6.113 -13.227  -7.412  0.00  0.00    +0.005 A 
ATOM     27  C   UNL     1       5.454 -14.466  -7.395  0.00  0.00    +0.010 A 
ATOM     28  C   UNL     1       6.196 -15.608  -7.492  0.00  0.00    +0.001 A 
ATOM     29  C   UNL     1       7.588 -15.586  -7.608  0.00  0.00    +0.004 A 
ATOM     30  C   UNL     1       8.257 -14.400  -7.638  0.00  0.00    -0.039 A 
ATOM     31  C   UNL     1       9.709 -14.006  -7.746  0.00  0.00    +0.040 C 
ATOM     32  C   UNL     1       9.718 -12.463  -7.692  0.00  0.00    +0.040 C 
ENDBRANCH  20  21
BRANCH  20  33
ATOM     33  S   UNL     1       3.125 -11.928  -8.558  0.00  0.00    +0.043 S 
ATOM     34  O   UNL     1       3.858 -12.695  -9.503  0.00  0.00    -0.155 OA
ATOM     35  O   UNL     1       1.851 -12.363  -8.103  0.00  0.00    -0.155 OA
ATOM     36  C   UNL     1       3.040 -10.196  -9.091  0.00  0.00    +0.218 C 
ENDBRANCH  20  33
ENDBRANCH  19  20
ENDBRANCH   2  19
TORSDOF 10
