REMARK  Name = ZINC63791138
REMARK  9 active torsions:
REMARK  status: ('A' for Active; 'I' for Inactive)
REMARK    1  A    between atoms: C_1  and  C_2
REMARK    2  A    between atoms: C_7  and  N_8
REMARK    3  A    between atoms: C_9  and  S_23
REMARK    4  A    between atoms: C_13  and  C_14
REMARK    5  A    between atoms: S_23  and  C_24
REMARK    6  A    between atoms: C_24  and  C_25
REMARK    7  A    between atoms: N_30  and  C_31
REMARK    8  A    between atoms: C_31  and  C_32
REMARK    9  A    between atoms: C_31  and  C_33
REMARK                            x       y       z     vdW  Elec       q    Type
REMARK                         _______ _______ _______ _____ _____    ______ ____
ROOT
ATOM      1  N   UNL     1      -0.297  -0.239   2.336  0.00  0.00    -0.254 N 
ATOM      2  C   UNL     1      -1.412   0.204   3.189  0.00  0.00    +0.241 C 
ATOM      3  N   UNL     1      -0.772   1.041   4.217  0.00  0.00    -0.237 N 
ATOM      4  N   UNL     1       0.598   1.045   3.931  0.00  0.00    -0.169 NA
ATOM      5  C   UNL     1       0.865   0.320   2.877  0.00  0.00    +0.151 C 
ATOM      6  H   UNL     1      -1.214   1.500   4.949  0.00  0.00    +0.171 HD
ENDROOT
BRANCH   5   7
ATOM      7  C   UNL     1       2.152   0.131   2.352  0.00  0.00    +0.022 C 
ATOM      8  C   UNL     1       3.349   0.653   2.844  0.00  0.00    +0.006 A 
ATOM      9  C   UNL     1       3.645   1.482   3.946  0.00  0.00    +0.010 A 
ATOM     10  C   UNL     1       4.931   1.842   4.193  0.00  0.00    +0.001 A 
ATOM     11  C   UNL     1       5.980   1.410   3.377  0.00  0.00    +0.002 A 
ATOM     12  C   UNL     1       5.768   0.613   2.301  0.00  0.00    +0.026 A 
ATOM     13  C   UNL     1       4.451   0.195   1.981  0.00  0.00    +0.043 A 
ATOM     14  N   UNL     1       3.989  -0.565   1.008  0.00  0.00    -0.380 N 
ATOM     15  C   UNL     1       2.534  -0.688   1.138  0.00  0.00    +0.152 C 
ATOM     16  H   UNL     1       4.528  -0.982   0.317  0.00  0.00    +0.160 HD
ENDBRANCH   5   7
BRANCH   1  23
ATOM     17  C   UNL     1      -0.283  -3.057   2.729  0.00  0.00    +0.045 C 
ATOM     18  C   UNL     1      -0.379  -2.443   1.356  0.00  0.00    -0.029 A 
ATOM     19  C   UNL     1      -0.469  -3.254   0.241  0.00  0.00    +0.005 A 
ATOM     20  C   UNL     1      -0.557  -2.691  -1.019  0.00  0.00    +0.000 A 
ATOM     21  C   UNL     1      -0.555  -1.316  -1.168  0.00  0.00    +0.002 A 
ATOM     22  C   UNL     1      -0.464  -0.500  -0.058  0.00  0.00    +0.024 A 
ATOM     23  C   UNL     1      -0.382  -1.062   1.210  0.00  0.00    +0.041 A 
ENDBRANCH   1  23
BRANCH   2  24
ATOM     24  S   UNL     1      -2.602   1.176   2.225  0.00  0.00    -0.108 S 
BRANCH  24  25
ATOM     25  C   UNL     1      -1.672   2.659   1.749  0.00  0.00    +0.168 C 
BRANCH  25  26
ATOM     26  C   UNL     1      -2.514   3.506   0.829  0.00  0.00    +0.230 C 
ATOM     27  O   UNL     1      -3.630   3.144   0.524  0.00  0.00    -0.274 OA
ATOM     28  N   UNL     1      -2.026   4.665   0.344  0.00  0.00    -0.240 N 
ATOM     29  C   UNL     1      -2.778   5.422  -0.478  0.00  0.00    +0.306 C 
ATOM     30  O   UNL     1      -3.897   5.059  -0.783  0.00  0.00    -0.252 OA
ATOM     31  N   UNL     1      -2.290   6.581  -0.962  0.00  0.00    -0.297 N 
ATOM     32  H   UNL     1      -1.132   4.954   0.588  0.00  0.00    +0.159 HD
ATOM     33  H   UNL     1      -1.397   6.870  -0.719  0.00  0.00    +0.151 HD
BRANCH  31  34
ATOM     34  C   UNL     1      -3.108   7.404  -1.857  0.00  0.00    +0.068 C 
ATOM     35  C   UNL     1      -4.022   8.306  -1.026  0.00  0.00    +0.027 C 
ATOM     36  C   UNL     1      -2.197   8.268  -2.731  0.00  0.00    +0.027 C 
ENDBRANCH  31  34
ENDBRANCH  25  26
ENDBRANCH  24  25
ENDBRANCH   2  24
TORSDOF 6
