REMARK  Name = ZINC28297159
REMARK  18 active torsions:
REMARK  status: ('A' for Active; 'I' for Inactive)
REMARK    1  A    between atoms: C_1  and  C_2
REMARK    2  A    between atoms: C_2  and  C_42
REMARK    3  A    between atoms: C_7  and  C_41
REMARK    4  A    between atoms: C_9  and  O_10
REMARK    5  A    between atoms: O_10  and  C_11
REMARK    6  A    between atoms: C_11  and  C_12
REMARK    7  A    between atoms: C_12  and  C_14
REMARK    8  A    between atoms: C_12  and  O_39
REMARK    9  A    between atoms: C_14  and  N_15
REMARK   10  A    between atoms: N_18  and  C_21
REMARK   11  A    between atoms: C_21  and  C_22
REMARK   12  A    between atoms: C_22  and  C_24
REMARK   13  A    between atoms: C_22  and  O_38
REMARK   14  A    between atoms: C_24  and  O_25
REMARK   15  A    between atoms: O_25  and  N_26
REMARK   16  A    between atoms: C_33  and  C_37
REMARK   17  A    between atoms: C_34  and  C_35
REMARK   18  A    between atoms: C_34  and  C_36
REMARK                            x       y       z     vdW  Elec       q    Type
REMARK                         _______ _______ _______ _____ _____    ______ ____
ROOT
ATOM      1  N   UNL     1      -2.863   8.288  -0.024  0.00  0.00    -0.297 NA
ATOM      2  C   UNL     1      -2.041   8.530   1.170  0.00  0.00    +0.100 C 
ATOM      3  C   UNL     1      -1.558   9.982   1.168  0.00  0.00    +0.100 C 
ATOM      4  N   UNL     1      -2.719  10.882   1.139  0.00  0.00    -0.297 NA
ATOM      5  C   UNL     1      -3.541  10.640  -0.055  0.00  0.00    +0.100 C 
ATOM      6  C   UNL     1      -4.024   9.188  -0.052  0.00  0.00    +0.100 C 
ENDROOT
BRANCH   1   7
ATOM      7  C   UNL     1      -3.284   6.882  -0.097  0.00  0.00    +0.119 C 
BRANCH   7   8
ATOM      8  C   UNL     1      -2.058   5.993  -0.316  0.00  0.00    +0.166 C 
BRANCH   8   9
ATOM      9  O   UNL     1      -1.414   6.362  -1.537  0.00  0.00    -0.387 OA
ATOM     10  H   UNL     1      -1.029   7.383  -1.670  0.00  0.00    +0.210 HD
ENDBRANCH   8   9
BRANCH   8  11
ATOM     11  C   UNL     1      -2.496   4.529  -0.392  0.00  0.00    +0.260 C 
BRANCH  11  12
ATOM     12  O   UNL     1      -1.343   3.691  -0.479  0.00  0.00    -0.497 OA
BRANCH  12  20
ATOM     13  C   UNL     1       0.639   0.043   1.530  0.00  0.00    +0.012 C 
ATOM     14  C   UNL     1       0.712  -0.391   0.065  0.00  0.00    -0.023 C 
ATOM     15  C   UNL     1       1.683   0.516  -0.772  0.00  0.00    -0.000 C 
ATOM     16  C   UNL     1       1.371   0.016  -2.216  0.00  0.00    +0.005 C 
ATOM     17  C   UNL     1      -0.137  -0.325  -2.189  0.00  0.00    +0.012 C 
ATOM     18  C   UNL     1      -0.586  -0.006  -0.730  0.00  0.00    -0.003 C 
ATOM     19  C   UNL     1      -0.537   1.526  -0.637  0.00  0.00    -0.029 C 
ATOM     20  C   UNL     1      -1.558   2.353  -0.555  0.00  0.00    +0.187 C 
ATOM     21  C   UNL     1       0.941   1.884  -0.669  0.00  0.00    +0.038 C 
ATOM     22  C   UNL     1      -1.891  -0.661  -0.275  0.00  0.00    +0.016 C 
ATOM     23  C   UNL     1       1.051  -1.877  -0.072  0.00  0.00    +0.012 C 
ENDBRANCH  12  20
ENDBRANCH  11  12
ENDBRANCH   8  11
ENDBRANCH   7   8
ENDBRANCH   1   7
BRANCH   4  24
ATOM     24  C   UNL     1      -2.298  12.288   1.212  0.00  0.00    +0.119 C 
BRANCH  24  25
ATOM     25  C   UNL     1      -1.169  12.535   0.210  0.00  0.00    +0.168 C 
BRANCH  25  26
ATOM     26  O   UNL     1      -1.671  12.382  -1.120  0.00  0.00    -0.387 OA
ATOM     27  H   UNL     1      -1.000  12.522  -1.980  0.00  0.00    +0.210 HD
ENDBRANCH  25  26
BRANCH  25  28
ATOM     28  C   UNL     1      -0.628  13.954   0.390  0.00  0.00    +0.295 C 
BRANCH  28  29
ATOM     29  O   UNL     1       0.501  14.146  -0.464  0.00  0.00    -0.391 OA
BRANCH  29  30
ATOM     30  N   UNL     1       1.080  15.435  -0.373  0.00  0.00    -0.093 NA
ATOM     31  C   UNL     1       2.099  15.731  -1.089  0.00  0.00    +0.064 C 
ATOM     32  C   UNL     1       2.822  14.832  -2.081  0.00  0.00    +0.059 C 
ATOM     33  C   UNL     1       3.986  15.706  -2.639  0.00  0.00    +0.001 C 
ATOM     34  C   UNL     1       4.974  15.864  -1.442  0.00  0.00    +0.005 C 
ATOM     35  C   UNL     1       4.220  16.762  -0.434  0.00  0.00    +0.013 C 
ATOM     36  C   UNL     1       2.855  17.066  -1.125  0.00  0.00    +0.015 C 
ATOM     37  C   UNL     1       3.277  17.126  -2.635  0.00  0.00    -0.021 C 
ATOM     38  C   UNL     1       2.066  17.191  -3.568  0.00  0.00    +0.012 C 
ATOM     39  C   UNL     1       4.269  18.258  -2.911  0.00  0.00    +0.012 C 
ATOM     40  C   UNL     1       2.092  18.279  -0.589  0.00  0.00    +0.018 C 
ENDBRANCH  29  30
ENDBRANCH  28  29
ENDBRANCH  25  28
ENDBRANCH  24  25
ENDBRANCH   4  24
TORSDOF 12
