REMARK  Name = ZINC54689198
REMARK  4 active torsions:
REMARK  status: ('A' for Active; 'I' for Inactive)
REMARK    1  A    between atoms: C_1  and  C_2
REMARK    2  A    between atoms: C_7  and  S_10
REMARK    3  A    between atoms: S_10  and  C_11
REMARK    4  A    between atoms: C_16  and  N_17
REMARK                            x       y       z     vdW  Elec       q    Type
REMARK                         _______ _______ _______ _____ _____    ______ ____
ROOT
ATOM      1  C   UNL     1       1.327  -4.376   2.707  0.00  0.00    +0.031 A 
ATOM      2  C   UNL     1       0.645  -4.960   1.649  0.00  0.00    +0.043 A 
ATOM      3  C   UNL     1       0.401  -6.324   1.656  0.00  0.00    +0.077 A 
ATOM      4  C   UNL     1       0.838  -7.108   2.721  0.00  0.00    +0.144 A 
ATOM      5  C   UNL     1       1.519  -6.526   3.777  0.00  0.00    +0.071 A 
ATOM      6  C   UNL     1       1.770  -5.162   3.770  0.00  0.00    +0.042 A 
ATOM      7  O   UNL     1       0.588  -8.446   2.714  0.00  0.00    -0.481 OA
ATOM      8  C   UNL     1      -0.629  -8.869   2.093  0.00  0.00    +0.325 C 
ATOM      9  C   UNL     1      -0.786  -8.176   0.763  0.00  0.00    +0.255 C 
ATOM     10  O   UNL     1      -1.359  -8.733  -0.150  0.00  0.00    -0.272 OA
ATOM     11  N   UNL     1      -0.288  -6.932   0.593  0.00  0.00    -0.280 N 
ATOM     12  H   UNL     1      -0.403  -6.466  -0.250  0.00  0.00    +0.155 HD
ENDROOT
BRANCH   6  13
ATOM     13  N   UNL     1       2.464  -4.572   4.836  0.00  0.00    -0.357 N 
ATOM     14  H   UNL     1       2.636  -3.617   4.833  0.00  0.00    +0.142 HD
ATOM     15  H   UNL     1       2.772  -5.118   5.576  0.00  0.00    +0.142 HD
ENDBRANCH   6  13
BRANCH   1  16
ATOM     16  S   UNL     1       1.640  -2.642   2.703  0.00  0.00    -0.120 S 
BRANCH  16  22
ATOM     17  C   UNL     1       0.563   1.422  -0.411  0.00  0.00    +0.007 C 
ATOM     18  C   UNL     1       0.574  -0.107  -0.359  0.00  0.00    -0.013 C 
ATOM     19  C   UNL     1       1.516  -0.647  -1.436  0.00  0.00    +0.003 C 
ATOM     20  C   UNL     1       1.526  -2.176  -1.384  0.00  0.00    +0.001 C 
ATOM     21  C   UNL     1       2.010  -2.636  -0.007  0.00  0.00    +0.014 C 
ATOM     22  C   UNL     1       1.067  -2.096   1.070  0.00  0.00    +0.052 C 
ATOM     23  C   UNL     1       1.057  -0.567   1.018  0.00  0.00    +0.017 C 
ENDBRANCH  16  22
ENDBRANCH   1  16
TORSDOF 3
