REMARK  Name = ZINC02962100
REMARK  5 active torsions:
REMARK  status: ('A' for Active; 'I' for Inactive)
REMARK    1  A    between atoms: C_4  and  C_29
REMARK    2  A    between atoms: C_5  and  C_7
REMARK    3  A    between atoms: C_7  and  S_8
REMARK    4  A    between atoms: S_8  and  C_9
REMARK    5  A    between atoms: N_22  and  C_23
REMARK                            x       y       z     vdW  Elec       q    Type
REMARK                         _______ _______ _______ _____ _____    ______ ____
ROOT
ATOM      1  C   UNL     1      -0.739   7.551   0.046  0.00  0.00    +0.173 A 
ATOM      2  N   UNL     1      -0.968   6.263   0.043  0.00  0.00    -0.222 NA
ATOM      3  C   UNL     1       0.043   5.351   0.029  0.00  0.00    +0.094 A 
ATOM      4  C   UNL     1      -0.078   3.882   0.023  0.00  0.00    +0.015 A 
ATOM      5  C   UNL     1      -1.268   3.118   0.029  0.00  0.00    +0.011 A 
ATOM      6  C   UNL     1      -1.221   1.759   0.017  0.00  0.00    +0.001 A 
ATOM      7  C   UNL     1      -0.013   1.076   0.008  0.00  0.00    +0.001 A 
ATOM      8  C   UNL     1       1.170   1.787   0.001  0.00  0.00    +0.016 A 
ATOM      9  C   UNL     1       1.133   3.168   0.008  0.00  0.00    +0.022 A 
ATOM     10  S   UNL     1       2.385   4.426   0.002  0.00  0.00    -0.081 S 
ATOM     11  C   UNL     1       1.341   5.859   0.019  0.00  0.00    +0.103 A 
ATOM     12  C   UNL     1       1.585   7.236   0.024  0.00  0.00    +0.269 A 
ATOM     13  O   UNL     1       2.725   7.670   0.016  0.00  0.00    -0.266 OA
ATOM     14  N   UNL     1       0.522   8.074   0.038  0.00  0.00    -0.284 N 
ENDROOT
BRANCH  14  15
ATOM     15  C   UNL     1       0.722   9.525   0.043  0.00  0.00    +0.093 C 
ATOM     16  C   UNL     1       1.495   9.938  -1.211  0.00  0.00    +0.025 C 
ATOM     17  C   UNL     1       1.704  11.454  -1.205  0.00  0.00    +0.002 C 
ATOM     18  C   UNL     1       2.499  11.854   0.039  0.00  0.00    +0.000 C 
ATOM     19  C   UNL     1       1.726  11.441   1.293  0.00  0.00    +0.002 C 
ATOM     20  C   UNL     1       1.517   9.926   1.287  0.00  0.00    +0.025 C 
ENDBRANCH  14  15
BRANCH   1  21
ATOM     21  S   UNL     1      -2.112   8.654   0.064  0.00  0.00    -0.083 S 
BRANCH  21  22
ATOM     22  C   UNL     1      -3.474   7.461   0.071  0.00  0.00    +0.113 C 
BRANCH  22  27
ATOM     23  C   UNL     1      -6.587   9.207   1.304  0.00  0.00    +0.000 A 
ATOM     24  C   UNL     1      -7.208   9.556   0.117  0.00  0.00    +0.001 A 
ATOM     25  C   UNL     1      -6.627   9.230  -1.090  0.00  0.00    +0.019 A 
ATOM     26  C   UNL     1      -5.409   8.547  -1.114  0.00  0.00    +0.056 A 
ATOM     27  C   UNL     1      -4.788   8.199   0.087  0.00  0.00    -0.020 A 
ATOM     28  C   UNL     1      -5.382   8.527   1.288  0.00  0.00    +0.006 A 
BRANCH  26  29
ATOM     29  C   UNL     1      -4.800   8.205  -2.364  0.00  0.00    +0.099 C 
ATOM     30  N   UNL     1      -4.317   7.933  -3.356  0.00  0.00    -0.191 NA
ENDBRANCH  26  29
ENDBRANCH  22  27
ENDBRANCH  21  22
ENDBRANCH   1  21
TORSDOF 5
