REMARK  Name = ZINC16026634
REMARK  7 active torsions:
REMARK  status: ('A' for Active; 'I' for Inactive)
REMARK    1  A    between atoms: C_1  and  C_2
REMARK    2  A    between atoms: C_2  and  C_4
REMARK    3  A    between atoms: C_2  and  O_31
REMARK    4  A    between atoms: C_7  and  C_19
REMARK    5  A    between atoms: N_21  and  C_22
REMARK    6  A    between atoms: C_27  and  O_28
REMARK    7  A    between atoms: O_28  and  C_29
REMARK                            x       y       z     vdW  Elec       q    Type
REMARK                         _______ _______ _______ _____ _____    ______ ____
ROOT
ATOM      1  C   UNL     1       1.495   1.878   0.012  0.00  0.00    -0.040 C 
ATOM      2  C   UNL     1      -0.021   1.554  -0.001  0.00  0.00    -0.001 C 
ATOM      3  C   UNL     1      -0.012   0.001  -0.001  0.00  0.00    +0.076 C 
ATOM      4  C   UNL     1       1.209  -0.333   0.871  0.00  0.00    +0.049 C 
ATOM      5  C   UNL     1       1.914  -1.560   0.357  0.00  0.00    -0.028 A 
ATOM      6  C   UNL     1       2.528  -1.866  -0.837  0.00  0.00    +0.004 A 
ATOM      7  C   UNL     1       3.103  -3.111  -1.019  0.00  0.00    +0.000 A 
ATOM      8  C   UNL     1       3.061  -4.045  -0.000  0.00  0.00    +0.002 A 
ATOM      9  C   UNL     1       2.446  -3.742   1.197  0.00  0.00    +0.023 A 
ATOM     10  C   UNL     1       1.865  -2.491   1.389  0.00  0.00    +0.036 A 
ATOM     11  N   UNL     1       1.196  -1.955   2.492  0.00  0.00    -0.286 N 
ATOM     12  C   UNL     1       0.780  -0.694   2.270  0.00  0.00    +0.211 C 
ATOM     13  O   UNL     1       0.177   0.015   3.047  0.00  0.00    -0.277 OA
ATOM     14  H   UNL     1       1.049  -2.436   3.321  0.00  0.00    +0.155 HD
ATOM     15  N   UNL     1       2.091   0.834   0.868  0.00  0.00    +0.395 N 
ATOM     16  H   UNL     1       2.194   1.190   1.825  0.00  0.00    -0.083 HD
ATOM     17  H   UNL     1       3.012   0.570   0.499  0.00  0.00    -0.083 HD
ENDROOT
BRANCH   3  18
ATOM     18  C   UNL     1       0.170  -0.531  -1.399  0.00  0.00    +0.220 C 
ATOM     19  O   UNL     1       0.723   0.147  -2.239  0.00  0.00    -0.275 OA
ATOM     20  N   UNL     1      -0.283  -1.760  -1.716  0.00  0.00    -0.282 N 
ATOM     21  H   UNL     1      -0.777  -2.279  -1.062  0.00  0.00    +0.155 HD
BRANCH  20  22
ATOM     22  C   UNL     1      -0.041  -2.289  -2.991  0.00  0.00    +0.077 A 
ATOM     23  C   UNL     1       0.167  -1.439  -4.068  0.00  0.00    +0.047 A 
ATOM     24  C   UNL     1       0.411  -1.963  -5.324  0.00  0.00    +0.043 A 
ATOM     25  C   UNL     1       0.436  -3.334  -5.513  0.00  0.00    +0.024 A 
ATOM     26  C   UNL     1       0.224  -4.186  -4.445  0.00  0.00    +0.049 A 
ATOM     27  C   UNL     1      -0.015  -3.668  -3.182  0.00  0.00    +0.141 A 
ATOM     28 CL   UNL     1       0.679  -0.899  -6.670  0.00  0.00    -0.083 Cl
BRANCH  27  29
ATOM     29  O   UNL     1      -0.223  -4.505  -2.131  0.00  0.00    -0.493 OA
ATOM     30  C   UNL     1      -0.182  -5.908  -2.400  0.00  0.00    +0.277 C 
ENDBRANCH  27  29
ENDBRANCH  20  22
ENDBRANCH   3  18
BRANCH   1  32
ATOM     31  C   UNL     1       3.238   3.564   0.611  0.00  0.00    +0.036 C 
ATOM     32  C   UNL     1       1.738   3.266   0.608  0.00  0.00    +0.098 C 
BRANCH  32  33
ATOM     33  O   UNL     1       1.058   4.247  -0.177  0.00  0.00    -0.394 OA
ATOM     34  H   UNL     1       1.344   4.279  -1.100  0.00  0.00    +0.210 HD
ENDBRANCH  32  33
ENDBRANCH   1  32
TORSDOF 5
