REMARK  Name = ZINC22048617
REMARK  14 active torsions:
REMARK  status: ('A' for Active; 'I' for Inactive)
REMARK    1  A    between atoms: C_1  and  C_2
REMARK    2  A    between atoms: C_5  and  S_8
REMARK    3  A    between atoms: S_8  and  C_9
REMARK    4  A    between atoms: N_16  and  C_19
REMARK    5  A    between atoms: C_21  and  O_37
REMARK    6  A    between atoms: C_23  and  O_33
REMARK    7  A    between atoms: C_25  and  C_28
REMARK    8  A    between atoms: C_28  and  O_29
REMARK    9  A    between atoms: O_29  and  C_30
REMARK   10  A    between atoms: C_30  and  C_32
REMARK   11  A    between atoms: O_33  and  C_34
REMARK   12  A    between atoms: C_34  and  C_36
REMARK   13  A    between atoms: O_37  and  C_38
REMARK   14  A    between atoms: C_38  and  C_40
REMARK                            x       y       z     vdW  Elec       q    Type
REMARK                         _______ _______ _______ _____ _____    ______ ____
ROOT
ATOM      1  C   UNL     1      -3.530   1.543   0.032  0.00  0.00    +0.134 A 
ATOM      2  C   UNL     1      -3.569   2.949   0.037  0.00  0.00    +0.140 A 
ATOM      3  C   UNL     1      -2.351   3.648   0.039  0.00  0.00    +0.169 A 
ATOM      4  N   UNL     1      -1.211   2.964   0.040  0.00  0.00    -0.195 NA
ATOM      5  C   UNL     1      -1.220   1.641   0.030  0.00  0.00    +0.216 A 
ATOM      6  N   UNL     1      -2.346   0.940   0.028  0.00  0.00    -0.206 NA
ATOM      7  N   UNL     1      -0.011   0.965   0.027  0.00  0.00    -0.327 N 
ATOM      8  N   UNL     1      -2.680   4.980   0.045  0.00  0.00    -0.284 N 
ATOM      9  C   UNL     1      -4.042   5.066   0.046  0.00  0.00    +0.203 A 
ATOM     10  N   UNL     1      -4.561   3.873   0.042  0.00  0.00    -0.231 NA
ATOM     11  H   UNL     1       0.004  -0.135   0.018  0.00  0.00    +0.145 HD
ATOM     12  H   UNL     1       0.934   1.527   0.033  0.00  0.00    +0.145 HD
ENDROOT
BRANCH   8  13
ATOM     13  C   UNL     1      -1.741   6.105   0.048  0.00  0.00    +0.267 C 
ATOM     14  C   UNL     1      -1.362   6.494  -1.399  0.00  0.00    +0.269 C 
ATOM     15  C   UNL     1      -1.258   8.034  -1.358  0.00  0.00    +0.253 C 
ATOM     16  C   UNL     1      -1.585   8.395   0.108  0.00  0.00    +0.203 C 
ATOM     17  O   UNL     1      -2.370   7.284   0.594  0.00  0.00    -0.342 OA
BRANCH  16  18
ATOM     18  C   UNL     1      -2.397   9.690   0.172  0.00  0.00    +0.267 C 
BRANCH  18  19
ATOM     19  O   UNL     1      -2.654  10.031   1.560  0.00  0.00    -0.462 OA
BRANCH  19  20
ATOM     20  C   UNL     1      -3.361  11.149   1.791  0.00  0.00    +0.304 C 
ATOM     21  O   UNL     1      -3.751  11.820   0.865  0.00  0.00    -0.251 OA
ATOM     22  C   UNL     1      -3.667  11.568   3.207  0.00  0.00    +0.136 C 
ENDBRANCH  19  20
ENDBRANCH  18  19
ENDBRANCH  16  18
BRANCH  15  23
ATOM     23  O   UNL     1      -2.225   8.637  -2.258  0.00  0.00    -0.455 OA
BRANCH  23  24
ATOM     24  C   UNL     1      -1.929   9.852  -2.745  0.00  0.00    +0.304 C 
ATOM     25  O   UNL     1      -0.896  10.395  -2.430  0.00  0.00    -0.251 OA
ATOM     26  C   UNL     1      -2.885  10.540  -3.686  0.00  0.00    +0.136 C 
ENDBRANCH  23  24
ENDBRANCH  15  23
BRANCH  14  27
ATOM     27  O   UNL     1      -0.086   5.906  -1.766  0.00  0.00    -0.453 OA
BRANCH  27  28
ATOM     28  C   UNL     1      -0.117   4.701  -2.356  0.00  0.00    +0.304 C 
ATOM     29  O   UNL     1      -1.176   4.155  -2.559  0.00  0.00    -0.251 OA
ATOM     30  C   UNL     1       1.168   4.029  -2.766  0.00  0.00    +0.136 C 
ENDBRANCH  27  28
ENDBRANCH  14  27
ENDBRANCH   8  13
BRANCH   1  31
ATOM     31  S   UNL     1      -5.020   0.602   0.030  0.00  0.00    -0.068 S 
BRANCH  31  36
ATOM     32  C   UNL     1      -2.743  -4.960  -0.530  0.00  0.00    +0.044 C 
ATOM     33  C   UNL     1      -3.312  -3.572  -0.390  0.00  0.00    -0.050 A 
ATOM     34  C   UNL     1      -3.607  -3.070   0.865  0.00  0.00    +0.004 A 
ATOM     35  C   UNL     1      -4.128  -1.798   0.996  0.00  0.00    +0.015 A 
ATOM     36  C   UNL     1      -4.355  -1.022  -0.133  0.00  0.00    +0.014 A 
ATOM     37  C   UNL     1      -4.063  -1.531  -1.393  0.00  0.00    +0.015 A 
ATOM     38  C   UNL     1      -3.537  -2.802  -1.517  0.00  0.00    +0.004 A 
ENDBRANCH  31  36
ENDBRANCH   1  31
TORSDOF 10
