REMARK  Name = ZINC27534351
REMARK  3 active torsions:
REMARK  status: ('A' for Active; 'I' for Inactive)
REMARK    1  A    between atoms: C_1  and  C_2
REMARK    2  A    between atoms: C_4  and  C_29
REMARK    3  A    between atoms: C_6  and  N_8
REMARK                            x       y       z     vdW  Elec       q    Type
REMARK                         _______ _______ _______ _____ _____    ______ ____
ROOT
ATOM      1  N   UNL     1      -2.429   1.040   0.019  0.00  0.00    -0.229 N 
ATOM      2  C   UNL     1      -3.598   1.703   0.130  0.00  0.00    +0.265 A 
ATOM      3  O   UNL     1      -3.608   2.917   0.231  0.00  0.00    -0.267 OA
ATOM      4  C   UNL     1      -4.806   0.979   0.129  0.00  0.00    +0.048 A 
ATOM      5  C   UNL     1      -4.762  -0.382   0.022  0.00  0.00    +0.060 A 
ATOM      6  N   UNL     1      -3.548  -1.017  -0.091  0.00  0.00    -0.306 N 
ATOM      7  H   UNL     1      -3.507  -2.113  -0.177  0.00  0.00    +0.170 HD
ATOM      8  C   UNL     1      -2.408  -0.301  -0.097  0.00  0.00    +0.334 A 
ATOM      9  O   UNL     1      -1.341  -0.875  -0.203  0.00  0.00    -0.246 OA
ATOM     10  C   UNL     1      -6.025  -1.145   0.030  0.00  0.00    +0.002 A 
ATOM     11  C   UNL     1      -6.042  -2.503   0.339  0.00  0.00    +0.010 A 
ATOM     12  C   UNL     1      -7.240  -3.189   0.335  0.00  0.00    +0.001 A 
ATOM     13  C   UNL     1      -8.417  -2.531   0.026  0.00  0.00    +0.000 A 
ATOM     14  C   UNL     1      -8.406  -1.181  -0.281  0.00  0.00    +0.004 A 
ATOM     15  C   UNL     1      -7.217  -0.483  -0.279  0.00  0.00    -0.037 A 
ATOM     16  C   UNL     1      -7.189   0.987  -0.607  0.00  0.00    +0.047 C 
ATOM     17  C   UNL     1      -6.126   1.687   0.237  0.00  0.00    +0.007 C 
ATOM     18  C   UNL     1      -5.972   3.146  -0.234  0.00  0.00    +0.012 C 
ATOM     19  C   UNL     1      -6.887   3.951   0.723  0.00  0.00    +0.001 C 
ATOM     20  C   UNL     1      -6.681   3.233   2.080  0.00  0.00    +0.001 C 
ATOM     21  C   UNL     1      -6.576   1.740   1.705  0.00  0.00    +0.012 C 
ENDROOT
BRANCH   1  27
ATOM     22  C   UNL     1       1.090   3.401  -2.476  0.00  0.00    +0.044 C 
ATOM     23  C   UNL     1       0.504   2.911  -1.178  0.00  0.00    -0.048 A 
ATOM     24  C   UNL     1       1.159   3.160   0.014  0.00  0.00    +0.006 A 
ATOM     25  C   UNL     1       0.625   2.711   1.208  0.00  0.00    -0.048 A 
ATOM     26  C   UNL     1      -0.566   2.011   1.213  0.00  0.00    +0.029 A 
ATOM     27  C   UNL     1      -1.224   1.754   0.017  0.00  0.00    +0.055 A 
ATOM     28  C   UNL     1      -0.688   2.212  -1.179  0.00  0.00    +0.029 A 
ATOM     29  C   UNL     1       1.342   2.986   2.504  0.00  0.00    +0.044 C 
ENDBRANCH   1  27
TORSDOF 1
