REMARK  Name = ZINC18199482
REMARK  4 active torsions:
REMARK  status: ('A' for Active; 'I' for Inactive)
REMARK    1  A    between atoms: C_1  and  C_2
REMARK    2  A    between atoms: C_2  and  C_3
REMARK    3  A    between atoms: C_2  and  C_4
REMARK    4  A    between atoms: C_7  and  C_10
REMARK                            x       y       z     vdW  Elec       q    Type
REMARK                         _______ _______ _______ _____ _____    ______ ____
ROOT
ATOM      1  C   UNL     1       2.412   3.830  -0.013  0.00  0.00    +0.092 C 
ATOM      2  C   UNL     1       1.127   3.056   0.006  0.00  0.00    +0.067 A 
ATOM      3  C   UNL     1      -0.075   3.697   0.026  0.00  0.00    +0.113 A 
ATOM      4  N   UNL     1      -1.236   2.962   0.032  0.00  0.00    -0.295 N 
ATOM      5  H   UNL     1      -2.121   3.428   0.048  0.00  0.00    +0.172 HD
ATOM      6  C   UNL     1      -1.189   1.617   0.017  0.00  0.00    +0.328 A 
ATOM      7  O   UNL     1      -2.225   0.981   0.016  0.00  0.00    -0.247 OA
ATOM      8  N   UNL     1      -0.011   0.966   0.007  0.00  0.00    -0.275 N 
ATOM      9  H   UNL     1       0.003  -0.034   0.006  0.00  0.00    +0.173 HD
ATOM     10  C   UNL     1       1.150   1.649  -0.000  0.00  0.00    +0.260 A 
ATOM     11  O   UNL     1       2.213   1.054  -0.012  0.00  0.00    -0.267 OA
ATOM     12  N   UNL     1      -0.125   5.068   0.039  0.00  0.00    -0.303 N 
ATOM     13  C   UNL     1       0.963   5.803   0.427  0.00  0.00    +0.017 C 
ATOM     14  C   UNL     1       2.197   5.257   0.423  0.00  0.00    +0.024 C 
ATOM     15  C   UNL     1       3.321   6.004   0.819  0.00  0.00    +0.162 C 
ATOM     16  O   UNL     1       4.416   5.477   0.824  0.00  0.00    -0.292 OA
ATOM     17  C   UNL     1       3.193   7.443   1.238  0.00  0.00    +0.080 C 
ATOM     18  C   UNL     1       1.986   8.064   0.526  0.00  0.00    +0.014 C 
ATOM     19  C   UNL     1       0.746   7.232   0.861  0.00  0.00    +0.051 C 
ATOM     20  H   UNL     1      -0.940   5.522  -0.228  0.00  0.00    +0.153 HD
ENDROOT
BRANCH   1  24
ATOM     21  C   UNL     1       4.005   3.799  -3.976  0.00  0.00    -0.045 A 
ATOM     22  C   UNL     1       4.738   3.265  -2.933  0.00  0.00    +0.004 A 
ATOM     23  C   UNL     1       4.223   3.275  -1.650  0.00  0.00    +0.005 A 
ATOM     24  C   UNL     1       2.974   3.819  -1.411  0.00  0.00    -0.035 A 
ATOM     25  C   UNL     1       2.239   4.348  -2.455  0.00  0.00    +0.005 A 
ATOM     26  C   UNL     1       2.757   4.343  -3.737  0.00  0.00    +0.004 A 
BRANCH  21  28
ATOM     27  C   UNL     1       3.635   2.992  -6.292  0.00  0.00    +0.012 C 
ATOM     28  C   UNL     1       4.567   3.787  -5.375  0.00  0.00    +0.013 C 
ATOM     29  C   UNL     1       4.685   5.223  -5.888  0.00  0.00    +0.012 C 
ENDBRANCH  21  28
ENDBRANCH   1  24
TORSDOF 2
