REMARK  Name = ZINC20583448
REMARK  14 active torsions:
REMARK  status: ('A' for Active; 'I' for Inactive)
REMARK    1  A    between atoms: C_1  and  C_2
REMARK    2  A    between atoms: C_2  and  C_3
REMARK    3  A    between atoms: C_3  and  C_4
REMARK    4  A    between atoms: C_4  and  O_5
REMARK    5  A    between atoms: O_5  and  C_6
REMARK    6  A    between atoms: C_6  and  C_8
REMARK    7  A    between atoms: C_9  and  N_38
REMARK    8  A    between atoms: C_11  and  C_12
REMARK    9  A    between atoms: C_15  and  C_18
REMARK   10  A    between atoms: C_20  and  C_34
REMARK   11  A    between atoms: C_22  and  C_27
REMARK   12  A    between atoms: C_30  and  C_33
REMARK   13  A    between atoms: C_34  and  O_36
REMARK   14  A    between atoms: O_36  and  C_37
REMARK                            x       y       z     vdW  Elec       q    Type
REMARK                         _______ _______ _______ _____ _____    ______ ____
ROOT
ATOM      1  C   UNL     1      -0.666   2.540   3.629  0.00  0.00    +0.155 A 
ATOM      2  C   UNL     1      -1.873   3.115   3.960  0.00  0.00    +0.065 A 
ATOM      3  C   UNL     1      -2.193   2.692   5.335  0.00  0.00    +0.024 A 
ATOM      4  C   UNL     1      -3.333   2.984   6.057  0.00  0.00    +0.019 C 
ATOM      5  C   UNL     1      -1.042   1.894   5.773  0.00  0.00    +0.079 A 
ATOM      6  C   UNL     1      -0.828   1.360   7.030  0.00  0.00    +0.118 C 
ATOM      7  S   UNL     1       0.695   0.508   7.316  0.00  0.00    -0.099 S 
ATOM      8  C   UNL     1       1.134  -0.112   5.666  0.00  0.00    +0.170 C 
ATOM      9  C   UNL     1       0.900   0.966   4.642  0.00  0.00    +0.250 C 
ATOM     10  O   UNL     1       1.714   1.130   3.758  0.00  0.00    -0.271 OA
ATOM     11  N   UNL     1      -0.196   1.749   4.683  0.00  0.00    -0.270 N 
ENDROOT
BRANCH   4  12
ATOM     12  C   UNL     1      -4.473   3.627   5.398  0.00  0.00    -0.024 A 
ATOM     13  C   UNL     1      -5.162   4.667   6.037  0.00  0.00    +0.008 A 
ATOM     14  C   UNL     1      -6.230   5.269   5.408  0.00  0.00    +0.004 A 
ATOM     15  C   UNL     1      -6.629   4.843   4.152  0.00  0.00    -0.050 A 
ATOM     16  C   UNL     1      -5.958   3.812   3.516  0.00  0.00    +0.004 A 
ATOM     17  C   UNL     1      -4.885   3.202   4.128  0.00  0.00    +0.008 A 
ATOM     18  C   UNL     1      -7.801   5.504   3.475  0.00  0.00    +0.044 C 
ENDBRANCH   4  12
BRANCH   8  19
ATOM     19  C   UNL     1       0.280  -1.309   5.337  0.00  0.00    -0.025 A 
ATOM     20  C   UNL     1      -1.097  -1.187   5.298  0.00  0.00    +0.005 A 
ATOM     21  C   UNL     1      -1.879  -2.285   4.992  0.00  0.00    +0.003 A 
ATOM     22  C   UNL     1      -1.286  -3.506   4.733  0.00  0.00    -0.050 A 
ATOM     23  C   UNL     1       0.090  -3.629   4.777  0.00  0.00    +0.003 A 
ATOM     24  C   UNL     1       0.873  -2.531   5.079  0.00  0.00    +0.005 A 
ATOM     25  C   UNL     1      -2.140  -4.704   4.404  0.00  0.00    +0.044 C 
ENDBRANCH   8  19
BRANCH   2  26
ATOM     26  N   UNL     1      -2.639   3.937   3.155  0.00  0.00    -0.356 N 
ATOM     27  H   UNL     1      -3.591   4.340   3.529  0.00  0.00    +0.142 HD
ATOM     28  H   UNL     1      -2.297   4.186   2.139  0.00  0.00    +0.142 HD
ENDBRANCH   2  26
BRANCH   1  29
ATOM     29  C   UNL     1      -0.000   2.719   2.397  0.00  0.00    +0.358 C 
ATOM     30  O   UNL     1       0.567   1.779   1.870  0.00  0.00    -0.243 OA
BRANCH  29  31
ATOM     31  O   UNL     1       0.007   3.931   1.803  0.00  0.00    -0.460 OA
BRANCH  31  32
ATOM     32  C   UNL     1       0.701   4.040   0.558  0.00  0.00    +0.232 C 
BRANCH  32  33
ATOM     33  C   UNL     1       0.601   5.476   0.042  0.00  0.00    +0.041 C 
BRANCH  33  35
ATOM     34  C   UNL     1       1.243   7.029  -1.807  0.00  0.00    +0.004 C 
ATOM     35  C   UNL     1       1.343   5.592  -1.291  0.00  0.00    -0.000 C 
ENDBRANCH  33  35
ENDBRANCH  32  33
ENDBRANCH  31  32
ENDBRANCH  29  31
ENDBRANCH   1  29
BRANCH   6  36
ATOM     36  C   UNL     1      -1.796   1.491   8.054  0.00  0.00    +0.347 C 
ATOM     37  O   UNL     1      -1.693   2.382   8.879  0.00  0.00    -0.244 OA
BRANCH  36  38
ATOM     38  O   UNL     1      -2.833   0.629   8.118  0.00  0.00    -0.464 OA
ATOM     39  C   UNL     1      -3.772   0.820   9.178  0.00  0.00    +0.280 C 
ENDBRANCH  36  38
ENDBRANCH   6  36
TORSDOF 10
