REMARK  Name = ZINC63956382
REMARK  6 active torsions:
REMARK  status: ('A' for Active; 'I' for Inactive)
REMARK    1  A    between atoms: C_1  and  C_2
REMARK    2  A    between atoms: C_2  and  O_3
REMARK    3  A    between atoms: O_3  and  C_4
REMARK    4  A    between atoms: C_11  and  N_14
REMARK    5  A    between atoms: N_17  and  C_18
REMARK    6  A    between atoms: C_18  and  C_19
REMARK                            x       y       z     vdW  Elec       q    Type
REMARK                         _______ _______ _______ _____ _____    ______ ____
ROOT
ATOM      1  N   UNL     1      -3.794  -7.225   1.197  0.00  0.00    -0.272 N 
ATOM      2  C   UNL     1      -4.985  -7.848   1.309  0.00  0.00    +0.302 C 
ATOM      3  O   UNL     1      -5.800  -7.767   0.410  0.00  0.00    -0.253 OA
ATOM      4  N   UNL     1      -5.272  -8.559   2.417  0.00  0.00    -0.297 N 
ATOM      5  H   UNL     1      -3.144  -7.290   1.914  0.00  0.00    +0.153 HD
ATOM      6  H   UNL     1      -4.622  -8.623   3.134  0.00  0.00    +0.150 HD
ENDROOT
BRANCH   1  14
ATOM      7  C   UNL     1      -1.498  -1.849   0.006  0.00  0.00    +0.122 A 
ATOM      8  C   UNL     1      -0.395  -2.690  -0.003  0.00  0.00    +0.047 A 
ATOM      9  C   UNL     1      -0.546  -4.057  -0.009  0.00  0.00    +0.027 A 
ATOM     10  C   UNL     1      -1.821  -4.651  -0.006  0.00  0.00    +0.043 A 
ATOM     11  C   UNL     1      -2.913  -3.779   0.004  0.00  0.00    +0.035 A 
ATOM     12  C   UNL     1      -2.769  -2.410   0.016  0.00  0.00    +0.062 A 
ATOM     13  S   UNL     1      -4.348  -4.831   0.005  0.00  0.00    -0.082 S 
ATOM     14  C   UNL     1      -3.482  -6.452  -0.007  0.00  0.00    +0.225 C 
ATOM     15  N   UNL     1      -2.077  -6.024  -0.011  0.00  0.00    -0.316 N 
ATOM     16  H   UNL     1      -1.354  -6.671  -0.018  0.00  0.00    +0.149 HD
BRANCH   7  17
ATOM     17  O   UNL     1      -1.339  -0.499   0.012  0.00  0.00    -0.492 OA
BRANCH  17  19
ATOM     18  C   UNL     1      -0.019   1.526   0.010  0.00  0.00    +0.048 C 
ATOM     19  C   UNL     1       0.002  -0.004   0.002  0.00  0.00    +0.225 C 
ENDBRANCH  17  19
ENDBRANCH   7  17
ENDBRANCH   1  14
BRANCH   4  20
ATOM     20  C   UNL     1      -6.566  -9.235   2.538  0.00  0.00    +0.134 C 
BRANCH  20  21
ATOM     21  C   UNL     1      -6.636  -9.966   3.880  0.00  0.00    +0.120 C 
ATOM     22  C   UNL     1      -8.027 -10.516   4.102  0.00  0.00    +0.009 C 
ATOM     23  C   UNL     1      -8.490  -9.922   5.225  0.00  0.00    -0.004 A 
ATOM     24  C   UNL     1      -9.758 -10.030   5.957  0.00  0.00    +0.010 A 
ATOM     25  C   UNL     1      -9.935  -9.291   7.076  0.00  0.00    +0.001 A 
ATOM     26  C   UNL     1      -8.941  -8.426   7.553  0.00  0.00    +0.002 A 
ATOM     27  C   UNL     1      -7.750  -8.273   6.935  0.00  0.00    +0.026 A 
ATOM     28  C   UNL     1      -7.456  -9.001   5.750  0.00  0.00    +0.043 A 
ATOM     29  N   UNL     1      -6.393  -9.026   4.981  0.00  0.00    -0.376 N 
ATOM     30  H   UNL     1      -5.583  -8.510   5.116  0.00  0.00    +0.160 HD
ENDBRANCH  20  21
ENDBRANCH   4  20
TORSDOF 5
