REMARK  Name = ZINC12711594
REMARK  8 active torsions:
REMARK  status: ('A' for Active; 'I' for Inactive)
REMARK    1  A    between atoms: C_1  and  N_2
REMARK    2  A    between atoms: N_2  and  C_3
REMARK    3  A    between atoms: C_3  and  C_4
REMARK    4  A    between atoms: C_10  and  C_12
REMARK    5  A    between atoms: C_12  and  C_13
REMARK    6  A    between atoms: N_20  and  C_21
REMARK    7  A    between atoms: C_21  and  C_22
REMARK    8  A    between atoms: C_25  and  C_28
REMARK                            x       y       z     vdW  Elec       q    Type
REMARK                         _______ _______ _______ _____ _____    ______ ____
ROOT
ATOM      1  C   UNL     1      -0.146  -0.886  -3.749  0.00  0.00    +0.028 C 
ATOM      2  C   UNL     1      -0.230  -0.052  -4.996  0.00  0.00    +0.200 C 
ATOM      3  O   UNL     1      -0.995   0.889  -5.016  0.00  0.00    -0.278 OA
ATOM      4  N   UNL     1       0.506  -0.304  -6.084  0.00  0.00    -0.318 N 
ATOM      5  C   UNL     1       1.474  -1.396  -6.144  0.00  0.00    +0.085 C 
ATOM      6  C   UNL     1       1.196  -2.400  -5.024  0.00  0.00    -0.058 C 
ATOM      7  N   UNL     1       1.095  -1.670  -3.751  0.00  0.00    +0.391 N 
ATOM      8  H   UNL     1       0.392   0.261  -6.864  0.00  0.00    +0.149 HD
ATOM      9  H   UNL     1       1.885  -1.051  -3.651  0.00  0.00    -0.080 HD
ENDROOT
BRANCH   1  10
ATOM     10  C   UNL     1      -0.166   0.029  -2.524  0.00  0.00    +0.090 C 
BRANCH  10  13
ATOM     11  C   UNL     1       0.334   1.863  -0.422  0.00  0.00    +0.132 C 
ATOM     12  N   UNL     1       1.187   1.889  -1.613  0.00  0.00    -0.304 N 
ATOM     13  C   UNL     1       0.962   1.024  -2.621  0.00  0.00    +0.214 C 
ATOM     14  O   UNL     1       1.668   1.045  -3.607  0.00  0.00    -0.276 OA
BRANCH  12  15
ATOM     15  C   UNL     1       2.284   2.855  -1.707  0.00  0.00    +0.111 C 
BRANCH  15  16
ATOM     16  C   UNL     1       3.557   2.240  -1.123  0.00  0.00    +0.011 C 
ATOM     17  C   UNL     1       3.369   2.003   0.379  0.00  0.00    +0.033 C 
ATOM     18  C   UNL     1       4.673   1.462   0.969  0.00  0.00    +0.160 C 
ATOM     19  O   UNL     1       5.731   2.387   0.712  0.00  0.00    -0.380 OA
ATOM     20  C   UNL     1       5.984   2.612  -0.677  0.00  0.00    +0.160 C 
ATOM     21  C   UNL     1       4.733   3.200  -1.333  0.00  0.00    +0.033 C 
ENDBRANCH  15  16
ENDBRANCH  12  15
ENDBRANCH  10  13
ENDBRANCH   1  10
BRANCH   7  22
ATOM     22  C   UNL     1       1.073  -2.628  -2.638  0.00  0.00    -0.042 C 
BRANCH  22  23
ATOM     23  C   UNL     1       2.406  -3.326  -2.550  0.00  0.00    -0.064 A 
ATOM     24  C   UNL     1       2.620  -4.496  -3.257  0.00  0.00    +0.002 A 
ATOM     25  C   UNL     1       3.839  -5.138  -3.179  0.00  0.00    +0.009 A 
ATOM     26  C   UNL     1       4.855  -4.607  -2.388  0.00  0.00    -0.018 A 
ATOM     27  C   UNL     1       4.634  -3.429  -1.678  0.00  0.00    +0.009 A 
ATOM     28  C   UNL     1       3.413  -2.791  -1.767  0.00  0.00    +0.002 A 
BRANCH  26  29
ATOM     29  C   UNL     1       6.168  -5.294  -2.300  0.00  0.00    -0.018 A 
ATOM     30  C   UNL     1       6.390  -6.470  -3.014  0.00  0.00    +0.008 A 
ATOM     31  C   UNL     1       7.613  -7.104  -2.930  0.00  0.00    +0.001 A 
ATOM     32  C   UNL     1       8.616  -6.576  -2.138  0.00  0.00    +0.000 A 
ATOM     33  C   UNL     1       8.400  -5.409  -1.427  0.00  0.00    +0.001 A 
ATOM     34  C   UNL     1       7.184  -4.763  -1.509  0.00  0.00    +0.008 A 
ENDBRANCH  26  29
ENDBRANCH  22  23
ENDBRANCH   7  22
TORSDOF 7
