REMARK  Name = ZINC15144214
REMARK  9 active torsions:
REMARK  status: ('A' for Active; 'I' for Inactive)
REMARK    1  A    between atoms: C_1  and  C_2
REMARK    2  A    between atoms: C_5  and  N_9
REMARK    3  A    between atoms: C_10  and  C_12
REMARK    4  A    between atoms: C_12  and  C_14
REMARK    5  A    between atoms: C_12  and  N_47
REMARK    6  A    between atoms: C_15  and  N_47
REMARK    7  A    between atoms: C_16  and  C_17
REMARK    8  A    between atoms: C_16  and  N_47
REMARK    9  A    between atoms: N_19  and  C_20
REMARK                            x       y       z     vdW  Elec       q    Type
REMARK                         _______ _______ _______ _____ _____    ______ ____
ROOT
ATOM      1  C   UNL     1      -0.578   2.990   1.524  0.00  0.00    -0.094 C 
ATOM      2  N   UNL     1      -0.689   1.519   1.439  0.00  0.00    +0.391 N 
ATOM      3  H   UNL     1      -1.676   1.266   1.309  0.00  0.00    -0.080 HD
ENDROOT
BRANCH   2   4
ATOM      4  C   UNL     1      -0.196   0.901   2.688  0.00  0.00    +0.017 C 
ATOM      5  C   UNL     1       1.206   1.414   3.022  0.00  0.00    -0.004 C 
BRANCH   4   7
ATOM      6  N   UNL     1      -0.911   0.787   5.053  0.00  0.00    -0.286 N 
ATOM      7  C   UNL     1      -1.140   1.252   3.809  0.00  0.00    +0.203 C 
ATOM      8  O   UNL     1      -2.105   1.953   3.592  0.00  0.00    -0.277 OA
ATOM      9  H   UNL     1      -0.103   0.284   5.242  0.00  0.00    +0.155 HD
BRANCH   6  14
ATOM     10  C   UNL     1      -4.673   1.769   9.186  0.00  0.00    +0.044 C 
ATOM     11  C   UNL     1      -3.673   1.508   8.088  0.00  0.00    -0.049 A 
ATOM     12  C   UNL     1      -3.459   2.461   7.109  0.00  0.00    +0.005 A 
ATOM     13  C   UNL     1      -2.545   2.224   6.102  0.00  0.00    +0.024 A 
ATOM     14  C   UNL     1      -1.839   1.029   6.073  0.00  0.00    +0.047 A 
ATOM     15  C   UNL     1      -2.060   0.071   7.055  0.00  0.00    +0.039 A 
ATOM     16  C   UNL     1      -2.973   0.316   8.063  0.00  0.00    +0.020 A 
ATOM     17 BR   UNL     1      -1.108  -1.562   7.016  0.00  0.00    -0.048 Br
ENDBRANCH   6  14
ENDBRANCH   4   7
ENDBRANCH   2   4
BRANCH   2  18
ATOM     18  C   UNL     1       0.090   1.019   0.287  0.00  0.00    +0.020 C 
BRANCH  18  19
ATOM     19  C   UNL     1      -0.568   1.488  -0.985  0.00  0.00    +0.201 C 
ATOM     20  O   UNL     1      -1.566   2.176  -0.934  0.00  0.00    -0.278 OA
ATOM     21  N   UNL     1      -0.048   1.142  -2.180  0.00  0.00    -0.286 N 
ATOM     22  H   UNL     1       0.793   0.661  -2.222  0.00  0.00    +0.155 HD
BRANCH  21  23
ATOM     23  C   UNL     1      -0.723   1.478  -3.360  0.00  0.00    +0.047 A 
ATOM     24  C   UNL     1      -2.096   1.680  -3.343  0.00  0.00    +0.024 A 
ATOM     25  C   UNL     1      -2.758   2.015  -4.508  0.00  0.00    +0.002 A 
ATOM     26  C   UNL     1      -2.056   2.140  -5.693  0.00  0.00    +0.001 A 
ATOM     27  C   UNL     1      -0.689   1.934  -5.715  0.00  0.00    +0.017 A 
ATOM     28  C   UNL     1      -0.020   1.603  -4.552  0.00  0.00    +0.039 A 
ATOM     29 BR   UNL     1       1.850   1.321  -4.583  0.00  0.00    -0.048 Br
ENDBRANCH  21  23
ENDBRANCH  18  19
ENDBRANCH   2  18
TORSDOF 6
