REMARK  Name = ZINC39606646
REMARK  8 active torsions:
REMARK  status: ('A' for Active; 'I' for Inactive)
REMARK    1  A    between atoms: C_1  and  C_2
REMARK    2  A    between atoms: C_2  and  C_3
REMARK    3  A    between atoms: C_3  and  C_5
REMARK    4  A    between atoms: C_3  and  C_6
REMARK    5  A    between atoms: C_6  and  N_7
REMARK    6  A    between atoms: C_8  and  C_10
REMARK    7  A    between atoms: C_21  and  C_23
REMARK    8  A    between atoms: C_26  and  C_28
REMARK                            x       y       z     vdW  Elec       q    Type
REMARK                         _______ _______ _______ _____ _____    ______ ____
ROOT
ATOM      1  C   UNL     1       2.697  -4.272  -3.689  0.00  0.00    +0.100 C 
ATOM      2  C   UNL     1       4.091  -3.605  -3.686  0.00  0.00    +0.121 C 
ATOM      3  N   UNL     1       4.972  -4.581  -3.003  0.00  0.00    -0.294 N 
ATOM      4  C   UNL     1       4.516  -5.901  -3.502  0.00  0.00    +0.115 C 
ATOM      5  C   UNL     1       2.981  -5.779  -3.572  0.00  0.00    -0.004 C 
ATOM      6  C   UNL     1       2.350  -6.338  -2.300  0.00  0.00    -0.010 C 
ATOM      7  C   UNL     1       2.597  -7.848  -2.234  0.00  0.00    -0.082 C 
ATOM      8  N   UNL     1       2.015  -8.492  -3.417  0.00  0.00    +0.379 N 
ATOM      9  C   UNL     1       2.691  -8.018  -4.630  0.00  0.00    -0.082 C 
ATOM     10  C   UNL     1       2.448  -6.515  -4.797  0.00  0.00    -0.010 C 
ATOM     11  C   UNL     1       5.964  -4.327  -2.127  0.00  0.00    +0.282 C 
ATOM     12  O   UNL     1       6.604  -5.245  -1.649  0.00  0.00    -0.267 OA
ATOM     13  H   UNL     1       2.125  -9.493  -3.342  0.00  0.00    -0.086 HD
ATOM     14  H   UNL     1       1.032  -8.268  -3.471  0.00  0.00    -0.086 HD
ENDROOT
BRANCH  11  15
ATOM     15  C   UNL     1       6.272  -2.945  -1.750  0.00  0.00    +0.190 A 
ATOM     16  C   UNL     1       7.258  -2.546  -0.875  0.00  0.00    +0.055 A 
ATOM     17  C   UNL     1       7.200  -1.151  -0.810  0.00  0.00    +0.051 A 
ATOM     18  C   UNL     1       6.192  -0.752  -1.640  0.00  0.00    +0.139 A 
ATOM     19  O   UNL     1       5.643  -1.841  -2.205  0.00  0.00    -0.450 OA
BRANCH  18  20
ATOM     20  C   UNL     1       5.777   0.644  -1.881  0.00  0.00    +0.052 A 
ATOM     21  C   UNL     1       5.534   1.500  -0.805  0.00  0.00    +0.014 A 
ATOM     22  C   UNL     1       5.146   2.803  -1.037  0.00  0.00    +0.001 A 
ATOM     23  C   UNL     1       4.997   3.265  -2.333  0.00  0.00    +0.003 A 
ATOM     24  C   UNL     1       5.235   2.425  -3.406  0.00  0.00    +0.039 A 
ATOM     25  C   UNL     1       5.630   1.118  -3.189  0.00  0.00    +0.134 A 
ATOM     26  F   UNL     1       5.868   0.299  -4.237  0.00  0.00    -0.205 F 
ENDBRANCH  18  20
ENDBRANCH  11  15
BRANCH   1  28
ATOM     27  N   UNL     1       0.540  -3.763  -2.591  0.00  0.00    -0.315 N 
ATOM     28  C   UNL     1       1.885  -3.797  -2.512  0.00  0.00    +0.218 C 
ATOM     29  O   UNL     1       2.442  -3.446  -1.493  0.00  0.00    -0.275 OA
ATOM     30  H   UNL     1       0.095  -4.044  -3.405  0.00  0.00    +0.149 HD
BRANCH  27  31
ATOM     31  C   UNL     1      -0.249  -3.302  -1.446  0.00  0.00    +0.107 C 
BRANCH  31  32
ATOM     32  C   UNL     1      -1.737  -3.361  -1.796  0.00  0.00    +0.003 C 
ATOM     33  C   UNL     1      -2.153  -4.817  -2.013  0.00  0.00    +0.009 C 
BRANCH  32  35
ATOM     34  C   UNL     1      -4.030  -2.708  -1.049  0.00  0.00    +0.004 C 
ATOM     35  C   UNL     1      -2.555  -2.763  -0.649  0.00  0.00    +0.001 C 
ENDBRANCH  32  35
ENDBRANCH  31  32
ENDBRANCH  27  31
ENDBRANCH   1  28
TORSDOF 6
