REMARK  Name = ZINC02721707
REMARK  8 active torsions:
REMARK  status: ('A' for Active; 'I' for Inactive)
REMARK    1  A    between atoms: C_1  and  C_2
REMARK    2  A    between atoms: C_5  and  C_8
REMARK    3  A    between atoms: C_10  and  S_17
REMARK    4  A    between atoms: C_11  and  S_13
REMARK    5  A    between atoms: S_13  and  C_14
REMARK    6  A    between atoms: C_14  and  C_15
REMARK    7  A    between atoms: C_14  and  C_16
REMARK    8  A    between atoms: S_17  and  C_20
REMARK                            x       y       z     vdW  Elec       q    Type
REMARK                         _______ _______ _______ _____ _____    ______ ____
ROOT
ATOM      1  C   UNL     1       0.002  -0.004   0.002  0.00  0.00    +0.230 A 
ATOM      2  N   UNL     1       1.250  -0.408  -0.012  0.00  0.00    -0.189 NA
ATOM      3  C   UNL     1       2.051   0.667  -0.014  0.00  0.00    +0.234 A 
ATOM      4  C   UNL     1       1.263   1.770  -0.001  0.00  0.00    +0.208 A 
ATOM      5  O   UNL     1      -0.016   1.343   0.009  0.00  0.00    -0.427 OA
ENDROOT
BRANCH   1  10
ATOM      6  C   UNL     1      -4.628  -3.420   0.028  0.00  0.00    +0.044 C 
ATOM      7  C   UNL     1      -3.415  -2.525   0.022  0.00  0.00    -0.050 A 
ATOM      8  C   UNL     1      -3.573  -1.150   0.031  0.00  0.00    +0.004 A 
ATOM      9  C   UNL     1      -2.468  -0.326   0.024  0.00  0.00    +0.013 A 
ATOM     10  C   UNL     1      -1.186  -0.881   0.009  0.00  0.00    +0.037 A 
ATOM     11  C   UNL     1      -1.034  -2.269  -0.005  0.00  0.00    +0.013 A 
ATOM     12  C   UNL     1      -2.148  -3.082   0.007  0.00  0.00    +0.004 A 
ENDBRANCH   1  10
BRANCH   3  13
ATOM     13  S   UNL     1       3.813   0.649  -0.031  0.00  0.00    +0.046 S 
ATOM     14  O   UNL     1       4.237   1.887   0.522  0.00  0.00    -0.163 OA
ATOM     15  O   UNL     1       4.212  -0.604   0.509  0.00  0.00    -0.163 OA
BRANCH  13  16
ATOM     16  C   UNL     1       4.318   0.652  -1.720  0.00  0.00    +0.095 A 
ATOM     17  C   UNL     1       4.509  -0.544  -2.386  0.00  0.00    +0.029 A 
ATOM     18  C   UNL     1       4.899  -0.542  -3.712  0.00  0.00    +0.022 A 
ATOM     19  C   UNL     1       5.109   0.657  -4.369  0.00  0.00    +0.041 A 
ATOM     20  C   UNL     1       4.923   1.854  -3.700  0.00  0.00    +0.022 A 
ATOM     21  C   UNL     1       4.527   1.851  -2.376  0.00  0.00    +0.029 A 
ATOM     22 CL   UNL     1       5.605   0.661  -6.033  0.00  0.00    -0.084 Cl
ENDBRANCH  13  16
ENDBRANCH   3  13
BRANCH   4  23
ATOM     23  S   UNL     1       1.807   3.446   0.003  0.00  0.00    -0.082 S 
BRANCH  23  24
ATOM     24  C   UNL     1       0.269   4.407   0.024  0.00  0.00    +0.048 C 
ATOM     25  C   UNL     1      -0.473   4.153   1.337  0.00  0.00    +0.019 C 
ATOM     26  C   UNL     1       0.597   5.897  -0.097  0.00  0.00    +0.019 C 
ENDBRANCH  23  24
ENDBRANCH   4  23
TORSDOF 5
