REMARK  Name = ZINC32286227
REMARK  6 active torsions:
REMARK  status: ('A' for Active; 'I' for Inactive)
REMARK    1  A    between atoms: C_1  and  C_2
REMARK    2  A    between atoms: C_2  and  C_3
REMARK    3  A    between atoms: C_2  and  O_4
REMARK    4  A    between atoms: O_4  and  C_5
REMARK    5  A    between atoms: C_10  and  N_11
REMARK    6  A    between atoms: C_12  and  C_14
REMARK                            x       y       z     vdW  Elec       q    Type
REMARK                         _______ _______ _______ _____ _____    ______ ____
ROOT
ATOM      1  N   UNL     1       3.596  -2.100  -0.051  0.00  0.00    -0.277 N 
ATOM      2  C   UNL     1       3.560  -0.883   0.527  0.00  0.00    +0.265 C 
ATOM      3  O   UNL     1       4.558  -0.430   1.055  0.00  0.00    -0.268 OA
ATOM      4  H   UNL     1       2.673  -2.549  -0.446  0.00  0.00    +0.155 HD
ENDROOT
BRANCH   2   5
ATOM      5  C   UNL     1       2.310  -0.101   0.521  0.00  0.00    +0.105 A 
ATOM      6  C   UNL     1       2.297   1.121   1.109  0.00  0.00    +0.039 A 
ATOM      7  C   UNL     1       1.062   1.905   1.108  0.00  0.00    -0.011 A 
ATOM      8  C   UNL     1       0.992   3.168   1.700  0.00  0.00    +0.009 A 
ATOM      9  C   UNL     1      -0.196   3.866   1.672  0.00  0.00    +0.001 A 
ATOM     10  C   UNL     1      -1.321   3.327   1.062  0.00  0.00    +0.001 A 
ATOM     11  C   UNL     1      -1.276   2.079   0.477  0.00  0.00    +0.014 A 
ATOM     12  C   UNL     1      -0.085   1.357   0.488  0.00  0.00    +0.046 A 
ATOM     13  C   UNL     1       0.018   0.025  -0.126  0.00  0.00    +0.257 A 
ATOM     14  O   UNL     1      -0.949  -0.477  -0.668  0.00  0.00    -0.267 OA
ATOM     15  N   UNL     1       1.192  -0.634  -0.083  0.00  0.00    -0.318 N 
ATOM     16  H   UNL     1       1.241  -1.629  -0.550  0.00  0.00    +0.169 HD
ENDBRANCH   2   5
BRANCH   1  22
ATOM     17  C   UNL     1       4.815  -4.181  -0.254  0.00  0.00    +0.142 A 
ATOM     18  C   UNL     1       6.018  -4.860  -0.352  0.00  0.00    +0.047 A 
ATOM     19  C   UNL     1       7.210  -4.160  -0.345  0.00  0.00    +0.004 A 
ATOM     20  C   UNL     1       7.206  -2.781  -0.242  0.00  0.00    +0.002 A 
ATOM     21  C   UNL     1       6.010  -2.095  -0.150  0.00  0.00    +0.027 A 
ATOM     22  C   UNL     1       4.809  -2.792  -0.150  0.00  0.00    +0.076 A 
BRANCH  17  23
ATOM     23  O   UNL     1       3.642  -4.868  -0.261  0.00  0.00    -0.488 OA
BRANCH  23  25
ATOM     24  C   UNL     1       3.882  -6.800   1.171  0.00  0.00    +0.051 C 
ATOM     25  C   UNL     1       3.725  -6.295  -0.265  0.00  0.00    +0.167 C 
ATOM     26  C   UNL     1       2.450  -6.879  -0.874  0.00  0.00    +0.051 C 
ENDBRANCH  23  25
ENDBRANCH  17  23
ENDBRANCH   1  22
TORSDOF 4
