REMARK  Name = ZINC38684969
REMARK  11 active torsions:
REMARK  status: ('A' for Active; 'I' for Inactive)
REMARK    1  A    between atoms: C_1  and  C_2
REMARK    2  A    between atoms: C_5  and  N_9
REMARK    3  A    between atoms: C_6  and  C_8
REMARK    4  A    between atoms: N_12  and  C_15
REMARK    5  A    between atoms: C_15  and  C_16
REMARK    6  A    between atoms: N_18  and  C_19
REMARK    7  A    between atoms: C_23  and  C_25
REMARK    8  A    between atoms: C_25  and  O_27
REMARK    9  A    between atoms: O_27  and  C_28
REMARK   10  A    between atoms: C_32  and  O_33
REMARK   11  A    between atoms: O_33  and  C_34
REMARK                            x       y       z     vdW  Elec       q    Type
REMARK                         _______ _______ _______ _____ _____    ______ ____
ROOT
ATOM      1  C   UNL     1       1.018  -9.111   1.579  0.00  0.00    +0.231 C 
ATOM      2  O   UNL     1       1.521  -8.949   0.488  0.00  0.00    -0.274 OA
ATOM      3  N   UNL     1       1.376 -10.166   2.337  0.00  0.00    -0.285 N 
ATOM      4  H   UNL     1       0.914 -10.343   3.171  0.00  0.00    +0.155 HD
ENDROOT
BRANCH   3   5
ATOM      5  C   UNL     1       2.386 -10.985   1.930  0.00  0.00    +0.056 C 
ATOM      6  C   UNL     1       2.764 -12.186   2.496  0.00  0.00    +0.059 A 
ATOM      7  C   UNL     1       3.903 -12.734   1.737  0.00  0.00    +0.048 A 
ATOM      8  N   UNL     1       4.225 -11.925   0.747  0.00  0.00    -0.367 N 
ATOM      9  C   UNL     1       3.322 -10.770   0.761  0.00  0.00    +0.234 C 
ATOM     10  C   UNL     1       4.449 -13.971   2.156  0.00  0.00    +0.026 A 
ATOM     11  C   UNL     1       3.932 -14.626   3.225  0.00  0.00    +0.006 A 
ATOM     12  C   UNL     1       2.858 -14.132   3.960  0.00  0.00    +0.046 A 
ATOM     13  C   UNL     1       2.259 -12.947   3.640  0.00  0.00    +0.131 A 
ATOM     14  H   UNL     1       4.942 -12.072   0.111  0.00  0.00    +0.161 HD
BRANCH   9  15
ATOM     15  C   UNL     1       4.110  -9.500   0.954  0.00  0.00    +0.335 C 
ATOM     16  O   UNL     1       5.247  -9.551   1.358  0.00  0.00    -0.248 OA
BRANCH  15  17
ATOM     17  O   UNL     1       3.548  -8.312   0.677  0.00  0.00    -0.466 OA
ATOM     18  C   UNL     1       4.354  -7.150   0.883  0.00  0.00    +0.280 C 
ENDBRANCH  15  17
ENDBRANCH   9  15
BRANCH  13  19
ATOM     19  O   UNL     1       1.214 -12.485   4.368  0.00  0.00    -0.494 OA
ATOM     20  C   UNL     1       0.853 -13.231   5.532  0.00  0.00    +0.277 C 
ENDBRANCH  13  19
ENDBRANCH   3   5
BRANCH   1  21
ATOM     21  C   UNL     1      -0.007  -8.131   2.088  0.00  0.00    +0.180 C 
BRANCH  21  25
ATOM     22  N   UNL     1      -0.799  -4.694  -0.187  0.00  0.00    -0.327 N 
ATOM     23  C   UNL     1      -1.941  -5.568   0.122  0.00  0.00    +0.120 C 
ATOM     24  C   UNL     1      -1.570  -6.448   1.321  0.00  0.00    +0.104 C 
ATOM     25  N   UNL     1      -0.310  -7.148   1.039  0.00  0.00    -0.291 NA
ATOM     26  C   UNL     1       0.800  -6.201   0.870  0.00  0.00    +0.104 C 
ATOM     27  C   UNL     1       0.525  -5.312  -0.354  0.00  0.00    +0.120 C 
BRANCH  22  32
ATOM     28  C   UNL     1      -1.490   0.907  -0.743  0.00  0.00    +0.044 C 
ATOM     29  C   UNL     1      -1.307  -0.582  -0.596  0.00  0.00    -0.050 A 
ATOM     30  C   UNL     1      -1.436  -1.406  -1.699  0.00  0.00    +0.005 A 
ATOM     31  C   UNL     1      -1.268  -2.770  -1.567  0.00  0.00    +0.023 A 
ATOM     32  C   UNL     1      -0.969  -3.315  -0.324  0.00  0.00    +0.033 A 
ATOM     33  C   UNL     1      -0.840  -2.484   0.782  0.00  0.00    -0.029 A 
ATOM     34  C   UNL     1      -1.003  -1.120   0.641  0.00  0.00    +0.008 A 
ATOM     35  C   UNL     1      -0.516  -3.070   2.132  0.00  0.00    +0.045 C 
ENDBRANCH  22  32
ENDBRANCH  21  25
ENDBRANCH   1  21
TORSDOF 7
