REMARK  Name = ZINC39837584
REMARK  13 active torsions:
REMARK  status: ('A' for Active; 'I' for Inactive)
REMARK    1  A    between atoms: C_1  and  C_2
REMARK    2  A    between atoms: C_2  and  C_3
REMARK    3  A    between atoms: C_3  and  N_4
REMARK    4  A    between atoms: C_14  and  C_24
REMARK    5  A    between atoms: N_18  and  C_19
REMARK    6  A    between atoms: C_19  and  C_20
REMARK    7  A    between atoms: C_20  and  O_21
REMARK    8  A    between atoms: O_21  and  C_22
REMARK    9  A    between atoms: C_24  and  C_26
REMARK   10  A    between atoms: C_29  and  S_32
REMARK   11  A    between atoms: S_32  and  N_35
REMARK   12  A    between atoms: N_35  and  C_36
REMARK   13  A    between atoms: N_35  and  C_37
REMARK                            x       y       z     vdW  Elec       q    Type
REMARK                         _______ _______ _______ _____ _____    ______ ____
ROOT
ATOM      1  N   UNL     1       0.742  -2.087   1.183  0.00  0.00    -0.269 N 
ATOM      2  C   UNL     1      -0.166  -3.046   1.635  0.00  0.00    +0.042 A 
ATOM      3  C   UNL     1      -1.397  -2.905   2.273  0.00  0.00    +0.024 A 
ATOM      4  C   UNL     1      -2.124  -4.021   2.630  0.00  0.00    +0.002 A 
ATOM      5  C   UNL     1      -1.639  -5.288   2.359  0.00  0.00    +0.000 A 
ATOM      6  C   UNL     1      -0.418  -5.436   1.726  0.00  0.00    +0.008 A 
ATOM      7  C   UNL     1       0.311  -4.324   1.368  0.00  0.00    +0.011 A 
ATOM      8  C   UNL     1       1.640  -4.137   0.686  0.00  0.00    +0.174 C 
ATOM      9  C   UNL     1       1.824  -2.643   0.608  0.00  0.00    +0.253 C 
ATOM     10  O   UNL     1       2.768  -2.055   0.123  0.00  0.00    -0.272 OA
ATOM     11  C   UNL     1       1.641  -4.753  -0.687  0.00  0.00    +0.089 C 
ATOM     12  C   UNL     1       2.646  -5.663  -0.700  0.00  0.00    +0.250 C 
ATOM     13  C   UNL     1       3.311  -5.669   0.622  0.00  0.00    +0.288 C 
ATOM     14  O   UNL     1       4.250  -6.376   0.927  0.00  0.00    -0.266 OA
ATOM     15  N   UNL     1       2.720  -4.772   1.437  0.00  0.00    -0.271 N 
ATOM     16  O   UNL     1       2.986  -6.441  -1.752  0.00  0.00    -0.282 OA
ENDROOT
BRANCH  11  17
ATOM     17  C   UNL     1       0.734  -4.432  -1.793  0.00  0.00    +0.196 C 
ATOM     18  O   UNL     1      -0.408  -4.851  -1.784  0.00  0.00    -0.287 OA
BRANCH  17  19
ATOM     19  C   UNL     1       1.206  -3.598  -2.919  0.00  0.00    +0.022 A 
ATOM     20  C   UNL     1       2.548  -3.219  -2.996  0.00  0.00    +0.013 A 
ATOM     21  C   UNL     1       2.983  -2.442  -4.049  0.00  0.00    +0.029 A 
ATOM     22  C   UNL     1       2.092  -2.038  -5.029  0.00  0.00    +0.105 A 
ATOM     23  C   UNL     1       0.761  -2.410  -4.959  0.00  0.00    +0.029 A 
ATOM     24  C   UNL     1       0.315  -3.192  -3.914  0.00  0.00    +0.013 A 
BRANCH  22  25
ATOM     25  S   UNL     1       2.656  -1.044  -6.370  0.00  0.00    +0.060 S 
ATOM     26  O   UNL     1       1.548  -0.256  -6.785  0.00  0.00    -0.153 OA
ATOM     27  O   UNL     1       3.889  -0.469  -5.960  0.00  0.00    -0.153 OA
BRANCH  25  28
ATOM     28  N   UNL     1       3.005  -2.067  -7.624  0.00  0.00    -0.183 NA
ATOM     29  C   UNL     1       2.001  -2.328  -8.659  0.00  0.00    +0.131 C 
ATOM     30  C   UNL     1       4.319  -2.712  -7.699  0.00  0.00    +0.131 C 
ENDBRANCH  25  28
ENDBRANCH  22  25
ENDBRANCH  17  19
ENDBRANCH  11  17
BRANCH   1  31
ATOM     31  C   UNL     1       0.538  -0.642   1.313  0.00  0.00    +0.113 C 
BRANCH  31  33
ATOM     32  C   UNL     1      -0.415   1.386   0.207  0.00  0.00    +0.005 C 
ATOM     33  C   UNL     1      -0.305  -0.139   0.139  0.00  0.00    +0.016 C 
ENDBRANCH  31  33
ENDBRANCH   1  31
BRANCH  15  34
ATOM     34  C   UNL     1       3.094  -4.486   2.824  0.00  0.00    +0.138 C 
BRANCH  34  35
ATOM     35  C   UNL     1       2.309  -5.403   3.764  0.00  0.00    +0.178 C 
BRANCH  35  36
ATOM     36  O   UNL     1       2.698  -6.760   3.539  0.00  0.00    -0.381 OA
ATOM     37  C   UNL     1       2.020  -7.704   4.371  0.00  0.00    +0.194 C 
ENDBRANCH  35  36
ENDBRANCH  34  35
ENDBRANCH  15  34
TORSDOF 9
