REMARK  Name = ZINC13565774
REMARK  11 active torsions:
REMARK  status: ('A' for Active; 'I' for Inactive)
REMARK    1  A    between atoms: C_1  and  C_2
REMARK    2  A    between atoms: C_3  and  C_18
REMARK    3  A    between atoms: C_8  and  C_10
REMARK    4  A    between atoms: C_10  and  N_72
REMARK    5  A    between atoms: C_11  and  N_72
REMARK    6  A    between atoms: C_12  and  N_72
REMARK    7  A    between atoms: C_27  and  C_29
REMARK    8  A    between atoms: C_29  and  C_30
REMARK    9  A    between atoms: C_30  and  C_31
REMARK   10  A    between atoms: C_30  and  C_32
REMARK   11  A    between atoms: C_30  and  C_33
REMARK                            x       y       z     vdW  Elec       q    Type
REMARK                         _______ _______ _______ _____ _____    ______ ____
ROOT
ATOM      1  C   UNL     1      -6.767   3.841   0.777  0.00  0.00    +0.054 C 
ATOM      2  C   UNL     1      -6.282   4.498  -0.490  0.00  0.00    +0.016 A 
ATOM      3  C   UNL     1      -5.040   4.482  -1.061  0.00  0.00    +0.083 A 
ATOM      4  N   UNL     1      -4.838   5.135  -2.195  0.00  0.00    -0.224 NA
ATOM      5  C   UNL     1      -5.811   5.807  -2.782  0.00  0.00    +0.165 A 
ATOM      6  S   UNL     1      -7.171   5.518  -1.659  0.00  0.00    -0.057 S 
ATOM      7  N   UNL     1      -5.785   6.542  -3.961  0.00  0.00    -0.266 N 
ATOM      8  C   UNL     1      -6.902   7.161  -4.394  0.00  0.00    +0.202 C 
ATOM      9  O   UNL     1      -7.929   7.075  -3.755  0.00  0.00    -0.277 OA
ATOM     10  H   UNL     1      -4.964   6.611  -4.472  0.00  0.00    +0.157 HD
ENDROOT
BRANCH   3  11
ATOM     11  C   UNL     1      -3.932   3.733  -0.420  0.00  0.00    +0.002 A 
ATOM     12  C   UNL     1      -3.838   3.671   0.969  0.00  0.00    +0.012 A 
ATOM     13  C   UNL     1      -2.808   2.976   1.561  0.00  0.00    +0.024 A 
ATOM     14  C   UNL     1      -1.850   2.328   0.778  0.00  0.00    +0.040 A 
ATOM     15  C   UNL     1      -1.947   2.393  -0.604  0.00  0.00    -0.024 A 
ATOM     16  C   UNL     1      -2.976   3.089  -1.203  0.00  0.00    +0.015 A 
ATOM     17  C   UNL     1      -0.797   1.615  -1.204  0.00  0.00    +0.056 C 
ATOM     18  C   UNL     1      -0.013   1.086   0.008  0.00  0.00    +0.118 C 
ATOM     19  N   UNL     1      -0.738   1.578   1.182  0.00  0.00    -0.271 N 
ATOM     20  C   UNL     1      -0.386   1.342   2.462  0.00  0.00    +0.220 C 
ATOM     21  O   UNL     1       0.598   0.677   2.708  0.00  0.00    -0.275 OA
BRANCH  20  22
ATOM     22  C   UNL     1      -1.216   1.905   3.587  0.00  0.00    +0.102 C 
BRANCH  22  23
ATOM     23  C   UNL     1      -0.603   1.493   4.928  0.00  0.00    -0.029 C 
ATOM     24  C   UNL     1       0.824   2.036   5.025  0.00  0.00    +0.011 C 
ATOM     25  C   UNL     1      -1.445   2.064   6.070  0.00  0.00    +0.011 C 
ATOM     26  C   UNL     1      -0.576  -0.034   5.028  0.00  0.00    +0.011 C 
ENDBRANCH  22  23
ENDBRANCH  20  22
ENDBRANCH   3  11
BRANCH   8  27
ATOM     27  C   UNL     1      -6.873   7.959  -5.672  0.00  0.00    +0.019 C 
BRANCH  27  29
ATOM     28  C   UNL     1      -9.187   7.472  -6.192  0.00  0.00    -0.095 C 
ATOM     29  N   UNL     1      -8.212   8.543  -5.899  0.00  0.00    +0.385 N 
ATOM     30  H   UNL     1      -8.508   9.040  -5.050  0.00  0.00    -0.081 HD
BRANCH  29  31
ATOM     31  C   UNL     1      -8.161   9.501  -7.023  0.00  0.00    -0.068 C 
ATOM     32  C   UNL     1      -7.201  10.637  -6.663  0.00  0.00    -0.015 C 
ATOM     33  C   UNL     1      -7.156  11.650  -7.809  0.00  0.00    -0.002 C 
ATOM     34  C   UNL     1      -8.557  12.220  -8.040  0.00  0.00    -0.000 C 
ATOM     35  C   UNL     1      -9.517  11.085  -8.400  0.00  0.00    -0.002 C 
ATOM     36  C   UNL     1      -9.562  10.072  -7.254  0.00  0.00    -0.015 C 
ENDBRANCH  29  31
ENDBRANCH  27  29
ENDBRANCH   8  27
TORSDOF 6
