REMARK  Name = ZINC09951777
REMARK  11 active torsions:
REMARK  status: ('A' for Active; 'I' for Inactive)
REMARK    1  A    between atoms: C_1  and  C_2
REMARK    2  A    between atoms: C_2  and  C_3
REMARK    3  A    between atoms: C_3  and  C_4
REMARK    4  A    between atoms: C_4  and  N_5
REMARK    5  A    between atoms: C_6  and  N_35
REMARK    6  A    between atoms: C_7  and  N_14
REMARK    7  A    between atoms: N_14  and  C_15
REMARK    8  A    between atoms: C_20  and  C_22
REMARK    9  A    between atoms: C_22  and  N_71
REMARK   10  A    between atoms: C_23  and  N_71
REMARK   11  A    between atoms: C_24  and  N_71
REMARK                            x       y       z     vdW  Elec       q    Type
REMARK                         _______ _______ _______ _____ _____    ______ ____
ROOT
ATOM      1  N   UNL     1      -2.313   1.450   0.420  0.00  0.00    -0.263 N 
ATOM      2  C   UNL     1      -3.471   2.143   0.393  0.00  0.00    +0.204 C 
ATOM      3  O   UNL     1      -3.464   3.326   0.126  0.00  0.00    -0.277 OA
ENDROOT
BRANCH   1   6
ATOM      4  N   UNL     1       0.556   3.674   0.989  0.00  0.00    -0.280 N 
ATOM      5  C   UNL     1      -0.643   3.030   1.188  0.00  0.00    +0.127 A 
ATOM      6  C   UNL     1      -1.085   2.122   0.247  0.00  0.00    +0.140 A 
ATOM      7  C   UNL     1      -0.286   1.875  -0.885  0.00  0.00    +0.277 A 
ATOM      8  O   UNL     1      -0.649   1.074  -1.729  0.00  0.00    -0.266 OA
ATOM      9  N   UNL     1       0.881   2.533  -1.032  0.00  0.00    -0.273 N 
ATOM     10  H   UNL     1       1.447   2.361  -1.838  0.00  0.00    +0.173 HD
ATOM     11  C   UNL     1       1.292   3.418  -0.108  0.00  0.00    +0.331 A 
ATOM     12  O   UNL     1       2.349   3.998  -0.265  0.00  0.00    -0.246 OA
BRANCH   5  13
ATOM     13  N   UNL     1      -1.395   3.292   2.308  0.00  0.00    -0.343 N 
ATOM     14  H   UNL     1      -1.052   3.884   2.995  0.00  0.00    +0.144 HD
ATOM     15  H   UNL     1      -2.269   2.884   2.411  0.00  0.00    +0.144 HD
ENDBRANCH   5  13
BRANCH   4  16
ATOM     16  C   UNL     1       1.034   4.645   1.977  0.00  0.00    +0.128 C 
BRANCH  16  17
ATOM     17  C   UNL     1       0.516   6.038   1.614  0.00  0.00    +0.021 C 
BRANCH  17  19
ATOM     18  C   UNL     1       0.498   8.445   2.284  0.00  0.00    +0.004 C 
ATOM     19  C   UNL     1       1.015   7.052   2.646  0.00  0.00    -0.002 C 
ENDBRANCH  17  19
ENDBRANCH  16  17
ENDBRANCH   4  16
ENDBRANCH   1   6
BRANCH   1  20
ATOM     20  C   UNL     1      -2.331   0.000   0.628  0.00  0.00    +0.082 C 
ATOM     21  C   UNL     1      -3.150  -0.684  -0.486  0.00  0.00    +0.023 C 
ATOM     22  C   UNL     1      -3.886  -1.839   0.237  0.00  0.00    +0.002 C 
ATOM     23  C   UNL     1      -4.254  -1.207   1.603  0.00  0.00    +0.002 C 
ATOM     24  C   UNL     1      -3.033  -0.333   1.956  0.00  0.00    +0.023 C 
ENDBRANCH   1  20
BRANCH   2  25
ATOM     25  C   UNL     1      -4.773   1.446   0.694  0.00  0.00    +0.020 C 
BRANCH  25  27
ATOM     26  C   UNL     1      -6.146   2.530  -0.979  0.00  0.00    -0.095 C 
ATOM     27  N   UNL     1      -5.882   2.397   0.469  0.00  0.00    +0.388 N 
ATOM     28  H   UNL     1      -5.616   3.314   0.846  0.00  0.00    -0.081 HD
BRANCH  27  29
ATOM     29  C   UNL     1      -7.099   1.927   1.164  0.00  0.00    -0.037 C 
ATOM     30  C   UNL     1      -7.609   0.637   0.525  0.00  0.00    -0.010 C 
ATOM     31  C   UNL     1      -8.980   0.309   1.127  0.00  0.00    +0.003 C 
ATOM     32  C   UNL     1      -9.988   1.338   0.620  0.00  0.00    +0.035 C 
ATOM     33  C   UNL     1      -9.473   2.736   0.838  0.00  0.00    -0.046 A 
ATOM     34  C   UNL     1      -8.145   3.007   1.084  0.00  0.00    -0.058 A 
ATOM     35  C   UNL     1      -7.734   4.321   1.269  0.00  0.00    +0.002 A 
ATOM     36  C   UNL     1      -8.646   5.355   1.212  0.00  0.00    +0.000 A 
ATOM     37  C   UNL     1      -9.979   5.083   0.970  0.00  0.00    +0.000 A 
ATOM     38  C   UNL     1     -10.389   3.779   0.783  0.00  0.00    +0.004 A 
ENDBRANCH  27  29
ENDBRANCH  25  27
ENDBRANCH   2  25
TORSDOF 9
