REMARK  Name = ZINC20646299
REMARK  4 active torsions:
REMARK  status: ('A' for Active; 'I' for Inactive)
REMARK    1  A    between atoms: C_4  and  C_7
REMARK    2  A    between atoms: C_7  and  N_8
REMARK    3  A    between atoms: C_11  and  N_14
REMARK    4  A    between atoms: C_15  and  C_17
REMARK                            x       y       z     vdW  Elec       q    Type
REMARK                         _______ _______ _______ _____ _____    ______ ____
ROOT
ATOM      1  N   UNL     1       2.383   5.287  -0.095  0.00  0.00    -0.309 N 
ATOM      2  C   UNL     1       2.422   3.943  -0.001  0.00  0.00    +0.248 C 
ATOM      3  O   UNL     1       3.492   3.370   0.079  0.00  0.00    -0.270 OA
ATOM      4  H   UNL     1       1.416   5.811  -0.083  0.00  0.00    +0.149 HD
ENDROOT
BRANCH   2   5
ATOM      5  C   UNL     1       1.170   3.169   0.005  0.00  0.00    +0.080 A 
ATOM      6  C   UNL     1      -0.062   3.811   0.026  0.00  0.00    +0.018 A 
ATOM      7  C   UNL     1      -1.231   3.047   0.032  0.00  0.00    +0.019 A 
ATOM      8  C   UNL     1      -1.180   1.697   0.023  0.00  0.00    +0.096 A 
ATOM      9  N   UNL     1       0.003   1.020  -0.003  0.00  0.00    -0.267 N 
ATOM     10  C   UNL     1       1.195   1.700  -0.010  0.00  0.00    +0.153 A 
ATOM     11  N   UNL     1       2.362   1.083  -0.030  0.00  0.00    -0.228 NA
ATOM     12  C   UNL     1       2.458  -0.256  -0.045  0.00  0.00    +0.079 A 
ATOM     13  C   UNL     1       3.699  -0.904  -0.066  0.00  0.00    +0.029 A 
ATOM     14  C   UNL     1       3.750  -2.268  -0.080  0.00  0.00    +0.017 A 
ATOM     15  C   UNL     1       2.585  -3.028  -0.073  0.00  0.00    +0.019 A 
ATOM     16  C   UNL     1       1.357  -2.426  -0.053  0.00  0.00    +0.030 A 
ATOM     17  C   UNL     1       1.274  -1.033  -0.039  0.00  0.00    +0.066 A 
ATOM     18  C   UNL     1      -0.013  -0.334  -0.016  0.00  0.00    +0.266 A 
ATOM     19  O   UNL     1      -1.063  -0.949  -0.010  0.00  0.00    -0.267 OA
ATOM     20 BR   UNL     1       2.700  -4.915  -0.093  0.00  0.00    -0.050 Br
ENDBRANCH   2   5
BRANCH   1  24
ATOM     21  N   UNL     1       5.143   8.433   0.385  0.00  0.00    +0.382 N 
ATOM     22  C   UNL     1       4.638   8.202  -0.974  0.00  0.00    -0.077 C 
ATOM     23  C   UNL     1       3.346   7.385  -0.908  0.00  0.00    +0.004 C 
ATOM     24  C   UNL     1       3.628   6.049  -0.214  0.00  0.00    +0.070 C 
ATOM     25  C   UNL     1       4.198   6.318   1.181  0.00  0.00    +0.004 C 
ATOM     26  C   UNL     1       5.466   7.167   1.054  0.00  0.00    -0.077 C 
ATOM     27  H   UNL     1       4.344   8.923   0.961  0.00  0.00    -0.081 HD
BRANCH  21  28
ATOM     28  C   UNL     1       6.306   9.331   0.369  0.00  0.00    -0.043 C 
BRANCH  28  32
ATOM     29  C   UNL     1       7.264  10.491   4.367  0.00  0.00    +0.000 A 
ATOM     30  C   UNL     1       7.839   9.360   3.819  0.00  0.00    +0.000 A 
ATOM     31  C   UNL     1       7.529   8.984   2.526  0.00  0.00    +0.002 A 
ATOM     32  C   UNL     1       6.644   9.740   1.780  0.00  0.00    -0.064 A 
ATOM     33  C   UNL     1       6.073  10.875   2.326  0.00  0.00    +0.002 A 
ATOM     34  C   UNL     1       6.379  11.247   3.621  0.00  0.00    +0.000 A 
ENDBRANCH  28  32
ENDBRANCH  21  28
ENDBRANCH   1  24
TORSDOF 4
