REMARK  Name = ZINC40385547
REMARK  7 active torsions:
REMARK  status: ('A' for Active; 'I' for Inactive)
REMARK    1  A    between atoms: C_1  and  C_2
REMARK    2  A    between atoms: C_2  and  C_3
REMARK    3  A    between atoms: C_6  and  N_9
REMARK    4  A    between atoms: N_9  and  C_10
REMARK    5  A    between atoms: C_10  and  C_12
REMARK    6  A    between atoms: C_13  and  N_27
REMARK    7  A    between atoms: C_23  and  C_26
REMARK                            x       y       z     vdW  Elec       q    Type
REMARK                         _______ _______ _______ _____ _____    ______ ____
ROOT
ATOM      1  C   UNL     1       4.855  -2.525  -5.735  0.00  0.00    +0.107 A 
ATOM      2  C   UNL     1       6.238  -2.766  -5.620  0.00  0.00    +0.135 A 
ATOM      3  N   UNL     1       6.920  -3.195  -6.683  0.00  0.00    -0.200 NA
ATOM      4  C   UNL     1       6.328  -3.401  -7.842  0.00  0.00    +0.200 A 
ATOM      5  N   UNL     1       4.995  -3.186  -8.016  0.00  0.00    -0.294 N 
ATOM      6  H   UNL     1       4.590  -3.346  -8.883  0.00  0.00    +0.172 HD
ATOM      7  C   UNL     1       4.234  -2.757  -6.988  0.00  0.00    +0.264 A 
ATOM      8  O   UNL     1       3.039  -2.567  -7.135  0.00  0.00    -0.267 OA
ATOM      9  N   UNL     1       7.073  -3.841  -8.899  0.00  0.00    -0.301 N 
ATOM     10  C   UNL     1       6.478  -3.959 -10.238  0.00  0.00    +0.108 C 
ATOM     11  C   UNL     1       6.717  -5.379 -10.760  0.00  0.00    +0.022 C 
ATOM     12  C   UNL     1       8.214  -5.692 -10.708  0.00  0.00    -0.011 C 
ATOM     13  C   UNL     1       8.701  -5.622  -9.259  0.00  0.00    +0.022 C 
ATOM     14  C   UNL     1       8.487  -4.200  -8.721  0.00  0.00    +0.108 C 
ATOM     15  C   UNL     1       8.460  -7.098 -11.261  0.00  0.00    +0.007 C 
ENDROOT
BRANCH   2  16
ATOM     16  N   UNL     1       6.880  -2.559  -4.423  0.00  0.00    -0.342 N 
ATOM     17  H   UNL     1       6.397  -2.177  -3.674  0.00  0.00    +0.144 HD
ATOM     18  H   UNL     1       7.815  -2.796  -4.327  0.00  0.00    +0.144 HD
ENDBRANCH   2  16
BRANCH   1  19
ATOM     19  C   UNL     1       4.078  -2.054  -4.588  0.00  0.00    +0.092 C 
ATOM     20  S   UNL     1       3.175  -3.167  -3.651  0.00  0.00    -0.034 S 
BRANCH  19  21
ATOM     21  N   UNL     1       4.072  -0.745  -4.270  0.00  0.00    -0.308 N 
ATOM     22  H   UNL     1       4.535  -0.106  -4.835  0.00  0.00    +0.153 HD
BRANCH  21  26
ATOM     23  C   UNL     1       2.070   0.562  -0.860  0.00  0.00    -0.048 A 
ATOM     24  C   UNL     1       3.341   1.031  -1.136  0.00  0.00    +0.005 A 
ATOM     25  C   UNL     1       4.008   0.600  -2.265  0.00  0.00    +0.023 A 
ATOM     26  C   UNL     1       3.400  -0.306  -3.125  0.00  0.00    +0.032 A 
ATOM     27  C   UNL     1       2.123  -0.776  -2.845  0.00  0.00    +0.023 A 
ATOM     28  C   UNL     1       1.464  -0.345  -1.710  0.00  0.00    +0.005 A 
BRANCH  23  30
ATOM     29  C   UNL     1       1.672   0.105   1.545  0.00  0.00    +0.009 C 
ATOM     30  C   UNL     1       1.345   1.034   0.374  0.00  0.00    +0.032 C 
ENDBRANCH  23  30
ENDBRANCH  21  26
ENDBRANCH  19  21
ENDBRANCH   1  19
TORSDOF 5
