REMARK  Name = ZINC12814471
REMARK  5 active torsions:
REMARK  status: ('A' for Active; 'I' for Inactive)
REMARK    1  A    between atoms: C_1  and  C_2
REMARK    2  A    between atoms: C_2  and  C_26
REMARK    3  A    between atoms: N_5  and  C_9
REMARK    4  A    between atoms: C_9  and  C_10
REMARK    5  A    between atoms: N_15  and  C_16
REMARK                            x       y       z     vdW  Elec       q    Type
REMARK                         _______ _______ _______ _____ _____    ______ ____
ROOT
ATOM      1  C   UNL     1      -1.330   1.944   0.019  0.00  0.00    +0.214 C 
ENDROOT
BRANCH   1   6
ATOM      2  C   UNL     1      -3.805  -1.891  -1.102  0.00  0.00    +0.047 C 
ATOM      3  C   UNL     1      -4.082  -0.468  -0.615  0.00  0.00    +0.136 C 
ATOM      4  C   UNL     1      -3.008   0.487  -1.096  0.00  0.00    +0.251 C 
ATOM      5  O   UNL     1      -2.725   0.754  -2.244  0.00  0.00    -0.272 OA
ATOM      6  N   UNL     1      -2.430   0.977   0.019  0.00  0.00    -0.215 N 
ATOM      7  C   UNL     1      -2.990   0.475   1.126  0.00  0.00    +0.310 C 
ATOM      8  O   UNL     1      -2.642   0.770   2.252  0.00  0.00    -0.252 OA
ATOM      9  N   UNL     1      -3.981  -0.393   0.852  0.00  0.00    -0.281 N 
ATOM     10  H   UNL     1      -4.523  -0.875   1.496  0.00  0.00    +0.152 HD
BRANCH   3  11
ATOM     11  C   UNL     1      -5.441  -0.006  -1.077  0.00  0.00    +0.003 A 
ATOM     12  C   UNL     1      -6.393   0.374  -0.150  0.00  0.00    +0.009 A 
ATOM     13  C   UNL     1      -7.637   0.803  -0.574  0.00  0.00    +0.020 A 
ATOM     14  C   UNL     1      -7.934   0.840  -1.925  0.00  0.00    +0.042 A 
ATOM     15  C   UNL     1      -6.983   0.454  -2.852  0.00  0.00    +0.040 A 
ATOM     16  C   UNL     1      -5.736   0.031  -2.428  0.00  0.00    +0.048 A 
ATOM     17 CL   UNL     1      -4.542  -0.454  -3.591  0.00  0.00    -0.083 Cl
ATOM     18 CL   UNL     1      -9.498   1.373  -2.456  0.00  0.00    -0.083 Cl
ENDBRANCH   3  11
ENDBRANCH   1   6
BRANCH   1  19
ATOM     19  C   UNL     1      -0.014   1.208   0.009  0.00  0.00    +0.238 C 
ATOM     20  O   UNL     1       0.002  -0.004   0.002  0.00  0.00    -0.274 OA
ATOM     21  N   UNL     1       1.143   1.898   0.001  0.00  0.00    -0.239 N 
ATOM     22  C   UNL     1       2.320   1.240  -0.013  0.00  0.00    +0.306 C 
ATOM     23  O   UNL     1       2.336   0.025  -0.020  0.00  0.00    -0.252 OA
ATOM     24  N   UNL     1       3.478   1.930  -0.021  0.00  0.00    -0.294 N 
ATOM     25  H   UNL     1       1.130   2.868   0.007  0.00  0.00    +0.159 HD
ATOM     26  H   UNL     1       3.465   2.900  -0.015  0.00  0.00    +0.151 HD
BRANCH  24  27
ATOM     27  C   UNL     1       4.756   1.214  -0.037  0.00  0.00    +0.037 C 
ATOM     28  C   UNL     1       4.837   0.343  -1.292  0.00  0.00    +0.029 C 
ATOM     29  C   UNL     1       6.172  -0.404  -1.308  0.00  0.00    -0.008 C 
ATOM     30  C   UNL     1       7.322   0.606  -1.314  0.00  0.00    +0.007 C 
ATOM     31  C   UNL     1       7.241   1.478  -0.059  0.00  0.00    -0.008 C 
ATOM     32  C   UNL     1       5.905   2.224  -0.042  0.00  0.00    +0.029 C 
ATOM     33  C   UNL     1       7.346   0.592   1.184  0.00  0.00    +0.007 C 
ATOM     34  C   UNL     1       6.196  -0.417   1.190  0.00  0.00    -0.008 C 
ATOM     35  C   UNL     1       6.277  -1.289  -0.065  0.00  0.00    +0.007 C 
ATOM     36  C   UNL     1       4.861   0.329   1.207  0.00  0.00    +0.029 C 
ENDBRANCH  24  27
ENDBRANCH   1  19
TORSDOF 4
