REMARK  Name = ZINC35642321
REMARK  12 active torsions:
REMARK  status: ('A' for Active; 'I' for Inactive)
REMARK    1  A    between atoms: C_1  and  C_2
REMARK    2  A    between atoms: C_2  and  N_3
REMARK    3  A    between atoms: C_4  and  C_24
REMARK    4  A    between atoms: C_5  and  C_19
REMARK    5  A    between atoms: C_6  and  C_11
REMARK    6  A    between atoms: C_16  and  O_17
REMARK    7  A    between atoms: O_17  and  C_18
REMARK    8  A    between atoms: C_19  and  O_21
REMARK    9  A    between atoms: O_21  and  C_22
REMARK   10  A    between atoms: C_22  and  C_23
REMARK   11  A    between atoms: C_24  and  N_25
REMARK   12  A    between atoms: C_32  and  C_34
REMARK                            x       y       z     vdW  Elec       q    Type
REMARK                         _______ _______ _______ _____ _____    ______ ____
ROOT
ATOM      1  N   UNL     1       0.638  -0.545  -0.959  0.00  0.00    -0.261 N 
ATOM      2  C   UNL     1      -0.143  -1.197  -1.870  0.00  0.00    +0.010 C 
ATOM      3  C   UNL     1       0.389  -2.094  -2.729  0.00  0.00    +0.077 C 
ATOM      4  C   UNL     1       1.880  -2.350  -2.647  0.00  0.00    +0.147 C 
ATOM      5  N   UNL     1       2.632  -1.595  -1.631  0.00  0.00    -0.288 N 
ATOM      6  C   UNL     1       1.959  -0.729  -0.847  0.00  0.00    +0.307 C 
ATOM      7  O   UNL     1       2.572  -0.098  -0.008  0.00  0.00    -0.252 OA
ATOM      8  H   UNL     1       3.589  -1.716  -1.530  0.00  0.00    +0.151 HD
ENDROOT
BRANCH   4   9
ATOM      9  C   UNL     1       2.479  -2.039  -3.994  0.00  0.00    +0.019 A 
ATOM     10  C   UNL     1       2.997  -0.783  -4.247  0.00  0.00    +0.009 A 
ATOM     11  C   UNL     1       3.547  -0.497  -5.482  0.00  0.00    +0.001 A 
ATOM     12  C   UNL     1       3.580  -1.466  -6.468  0.00  0.00    +0.004 A 
ATOM     13  C   UNL     1       3.064  -2.723  -6.221  0.00  0.00    +0.046 A 
ATOM     14  C   UNL     1       2.516  -3.014  -4.980  0.00  0.00    +0.125 A 
BRANCH  14  15
ATOM     15  O   UNL     1       2.013  -4.252  -4.732  0.00  0.00    -0.495 OA
ATOM     16  C   UNL     1       2.180  -5.237  -5.753  0.00  0.00    +0.277 C 
ENDBRANCH  14  15
ENDBRANCH   4   9
BRANCH   1  18
ATOM     17  C   UNL     1       0.035   1.810  -0.686  0.00  0.00    +0.025 C 
ATOM     18  C   UNL     1      -0.006   0.415  -0.059  0.00  0.00    +0.111 C 
ENDBRANCH   1  18
BRANCH   3  19
ATOM     19  C   UNL     1      -0.419  -2.771  -3.672  0.00  0.00    +0.339 C 
ATOM     20  O   UNL     1      -0.835  -3.888  -3.426  0.00  0.00    -0.245 OA
BRANCH  19  21
ATOM     21  O   UNL     1      -0.729  -2.179  -4.844  0.00  0.00    -0.462 OA
BRANCH  21  22
ATOM     22  C   UNL     1      -1.638  -2.872  -5.702  0.00  0.00    +0.229 C 
ATOM     23  C   UNL     1      -1.771  -2.114  -7.024  0.00  0.00    +0.048 C 
ENDBRANCH  21  22
ENDBRANCH  19  21
ENDBRANCH   3  19
BRANCH   2  24
ATOM     24  C   UNL     1      -1.622  -0.912  -1.917  0.00  0.00    -0.026 C 
BRANCH  24  25
ATOM     25  N   UNL     1      -2.345  -1.949  -1.168  0.00  0.00    +0.384 N 
ATOM     26  C   UNL     1      -3.777  -1.770  -1.398  0.00  0.00    -0.077 C 
ATOM     27  C   UNL     1      -4.470  -3.111  -1.295  0.00  0.00    +0.000 C 
ATOM     28  C   UNL     1      -4.983  -3.313   0.142  0.00  0.00    +0.106 C 
ATOM     29  N   UNL     1      -4.004  -2.817   1.131  0.00  0.00    -0.299 N 
ATOM     30  C   UNL     1      -2.580  -3.038   0.990  0.00  0.00    +0.089 C 
ATOM     31  C   UNL     1      -1.946  -1.880   0.185  0.00  0.00    -0.059 C 
ATOM     32  C   UNL     1      -4.452  -2.133   2.202  0.00  0.00    +0.253 C 
ATOM     33  O   UNL     1      -5.649  -2.029   2.401  0.00  0.00    -0.269 OA
ATOM     34  H   UNL     1      -2.076  -2.850  -1.533  0.00  0.00    -0.081 HD
BRANCH  32  35
ATOM     35  C   UNL     1      -3.499  -1.514   3.128  0.00  0.00    +0.074 A 
ATOM     36  C   UNL     1      -3.748  -0.782   4.279  0.00  0.00    +0.021 A 
ATOM     37  C   UNL     1      -2.638  -0.325   4.948  0.00  0.00    +0.008 A 
ATOM     38  C   UNL     1      -1.407  -0.611   4.455  0.00  0.00    +0.046 A 
ATOM     39  S   UNL     1      -1.717  -1.515   3.073  0.00  0.00    -0.092 S 
ENDBRANCH  32  35
ENDBRANCH  24  25
ENDBRANCH   2  24
TORSDOF 9
