REMARK  Name = ZINC22283648
REMARK  5 active torsions:
REMARK  status: ('A' for Active; 'I' for Inactive)
REMARK    1  A    between atoms: C_4  and  C_7
REMARK    2  A    between atoms: C_7  and  N_8
REMARK    3  A    between atoms: N_16  and  C_17
REMARK    4  A    between atoms: C_17  and  C_19
REMARK    5  A    between atoms: C_24  and  C_25
REMARK                            x       y       z     vdW  Elec       q    Type
REMARK                         _______ _______ _______ _____ _____    ______ ____
ROOT
ATOM      1  N   UNL     1       4.184  -0.599   1.498  0.00  0.00    +0.386 N 
ATOM      2  C   UNL     1       5.392  -1.427   1.381  0.00  0.00    -0.072 C 
ATOM      3  C   UNL     1       6.091  -1.538   2.739  0.00  0.00    +0.035 C 
ATOM      4  C   UNL     1       5.059  -1.996   3.763  0.00  0.00    +0.024 A 
ATOM      5  C   UNL     1       3.750  -1.889   3.483  0.00  0.00    -0.004 A 
ATOM      6  S   UNL     1       2.960  -2.532   4.929  0.00  0.00    -0.059 S 
ATOM      7  C   UNL     1       4.341  -2.901   5.818  0.00  0.00    +0.164 A 
ATOM      8  N   UNL     1       5.353  -2.526   4.989  0.00  0.00    -0.339 N 
ATOM      9  N   UNL     1       4.423  -3.430   7.037  0.00  0.00    -0.152 NA
ATOM     10  C   UNL     1       3.145  -1.347   2.230  0.00  0.00    -0.033 C 
ATOM     11  H   UNL     1       4.404   0.249   1.999  0.00  0.00    -0.081 HD
ATOM     12  H   UNL     1       6.277  -2.633   5.266  0.00  0.00    +0.167 HD
ENDROOT
BRANCH   9  13
ATOM     13  C   UNL     1       5.620  -3.654   7.589  0.00  0.00    +0.273 C 
ATOM     14  O   UNL     1       6.636  -3.373   6.976  0.00  0.00    -0.268 OA
BRANCH  13  15
ATOM     15  C   UNL     1       5.711  -4.242   8.941  0.00  0.00    +0.084 A 
ATOM     16  C   UNL     1       4.673  -4.705   9.703  0.00  0.00    +0.118 A 
ATOM     17  N   UNL     1       5.178  -5.158  10.862  0.00  0.00    -0.283 N 
ATOM     18  H   UNL     1       4.658  -5.542  11.586  0.00  0.00    +0.188 HD
ATOM     19  N   UNL     1       6.566  -4.992  10.865  0.00  0.00    -0.173 NA
ATOM     20  C   UNL     1       6.930  -4.448   9.725  0.00  0.00    +0.105 A 
BRANCH  20  21
ATOM     21  C   UNL     1       8.313  -4.105   9.314  0.00  0.00    +0.003 A 
ATOM     22  C   UNL     1       8.577  -2.881   8.701  0.00  0.00    +0.013 A 
ATOM     23  C   UNL     1       9.865  -2.566   8.320  0.00  0.00    +0.039 A 
ATOM     24  C   UNL     1      10.895  -3.465   8.545  0.00  0.00    +0.123 A 
ATOM     25  C   UNL     1      10.638  -4.683   9.153  0.00  0.00    +0.039 A 
ATOM     26  C   UNL     1       9.354  -5.004   9.543  0.00  0.00    +0.013 A 
ATOM     27  F   UNL     1      12.155  -3.152   8.170  0.00  0.00    -0.205 F 
ENDBRANCH  20  21
ENDBRANCH  13  15
ENDBRANCH   9  13
BRANCH   1  28
ATOM     28  C   UNL     1       3.690  -0.261   0.156  0.00  0.00    -0.043 C 
BRANCH  28  32
ATOM     29  C   UNL     1       0.387   2.428   0.488  0.00  0.00    +0.000 A 
ATOM     30  C   UNL     1       1.674   2.922   0.393  0.00  0.00    +0.000 A 
ATOM     31  C   UNL     1       2.743   2.053   0.286  0.00  0.00    +0.002 A 
ATOM     32  C   UNL     1       2.525   0.688   0.274  0.00  0.00    -0.064 A 
ATOM     33  C   UNL     1       1.238   0.193   0.370  0.00  0.00    +0.002 A 
ATOM     34  C   UNL     1       0.169   1.062   0.476  0.00  0.00    +0.000 A 
ENDBRANCH  28  32
ENDBRANCH   1  28
TORSDOF 5
