REMARK  Name = ZINC25442140
REMARK  5 active torsions:
REMARK  status: ('A' for Active; 'I' for Inactive)
REMARK    1  A    between atoms: C_3  and  S_23
REMARK    2  A    between atoms: C_6  and  C_7
REMARK    3  A    between atoms: N_9  and  C_10
REMARK    4  A    between atoms: C_10  and  C_11
REMARK    5  A    between atoms: S_23  and  N_26
REMARK                            x       y       z     vdW  Elec       q    Type
REMARK                         _______ _______ _______ _____ _____    ______ ____
ROOT
ATOM      1  C   UNL     1       1.250  -2.160  -0.022  0.00  0.00    +0.244 C 
ATOM      2  O   UNL     1       0.208  -2.788  -0.016  0.00  0.00    -0.270 OA
ATOM      3  N   UNL     1       2.429  -2.812  -0.037  0.00  0.00    -0.307 N 
ATOM      4  H   UNL     1       3.371  -2.245  -0.042  0.00  0.00    +0.149 HD
ENDROOT
BRANCH   1  10
ATOM      5  C   UNL     1       0.002  -0.004   0.002  0.00  0.00    +0.015 A 
ATOM      6  C   UNL     1      -0.017   1.375   0.010  0.00  0.00    +0.029 A 
ATOM      7  C   UNL     1       1.170   2.086   0.002  0.00  0.00    +0.106 A 
ATOM      8  C   UNL     1       2.383   1.420  -0.013  0.00  0.00    +0.029 A 
ATOM      9  C   UNL     1       2.416   0.041  -0.021  0.00  0.00    +0.015 A 
ATOM     10  C   UNL     1       1.222  -0.682  -0.013  0.00  0.00    +0.037 A 
BRANCH   7  11
ATOM     11  S   UNL     1       1.137   3.848   0.011  0.00  0.00    +0.061 S 
ATOM     12  O   UNL     1       2.370   4.280  -0.549  0.00  0.00    -0.153 OA
ATOM     13  O   UNL     1      -0.120   4.234  -0.526  0.00  0.00    -0.153 OA
BRANCH  11  14
ATOM     14  N   UNL     1       1.143   4.330   1.596  0.00  0.00    -0.177 NA
ATOM     15  C   UNL     1      -0.123   4.513   2.269  0.00  0.00    +0.109 C 
ATOM     16  C   UNL     1      -0.617   5.962   2.074  0.00  0.00    +0.017 C 
ATOM     17  C   UNL     1       0.211   6.893   2.856  0.00  0.00    +0.001 C 
ATOM     18  C   UNL     1       1.678   6.932   2.437  0.00  0.00    +0.001 C 
ATOM     19  C   UNL     1       2.427   5.825   3.137  0.00  0.00    +0.017 C 
ATOM     20  C   UNL     1       2.441   4.559   2.261  0.00  0.00    +0.109 C 
ENDBRANCH  11  14
ENDBRANCH   7  11
ENDBRANCH   1  10
BRANCH   3  21
ATOM     21  C   UNL     1       2.456  -4.277  -0.045  0.00  0.00    +0.141 C 
BRANCH  21  22
ATOM     22  C   UNL     1       3.886  -4.753  -0.062  0.00  0.00    -0.014 A 
ATOM     23  C   UNL     1       4.563  -4.981   1.129  0.00  0.00    +0.010 A 
ATOM     24  C   UNL     1       5.874  -5.417   1.071  0.00  0.00    +0.042 A 
ATOM     25  C   UNL     1       6.467  -5.611  -0.173  0.00  0.00    +0.099 A 
ATOM     26  N   UNL     1       5.788  -5.383  -1.286  0.00  0.00    -0.349 N 
ATOM     27  C   UNL     1       4.535  -4.971  -1.260  0.00  0.00    +0.089 A 
ATOM     28  N   UNL     1       7.784  -6.049  -0.247  0.00  0.00    -0.312 N 
ATOM     29  C   UNL     1       8.682  -5.145   0.487  0.00  0.00    +0.134 C 
ATOM     30  C   UNL     1      10.110  -5.696   0.430  0.00  0.00    +0.178 C 
ATOM     31  O   UNL     1      10.500  -5.854  -0.937  0.00  0.00    -0.377 OA
ATOM     32  C   UNL     1       9.648  -6.729  -1.681  0.00  0.00    +0.178 C 
ATOM     33  C   UNL     1       8.215  -6.189  -1.646  0.00  0.00    +0.134 C 
ATOM     34  H   UNL     1       6.268  -5.536  -2.264  0.00  0.00    +0.167 HD
ENDBRANCH  21  22
ENDBRANCH   3  21
TORSDOF 5
