REMARK  Name = ZINC52909463
REMARK  11 active torsions:
REMARK  status: ('A' for Active; 'I' for Inactive)
REMARK    1  A    between atoms: C_1  and  C_2
REMARK    2  A    between atoms: C_2  and  C_4
REMARK    3  A    between atoms: C_2  and  N_14
REMARK    4  A    between atoms: C_15  and  C_17
REMARK    5  A    between atoms: C_17  and  N_18
REMARK    6  A    between atoms: C_21  and  N_24
REMARK    7  A    between atoms: C_25  and  O_27
REMARK    8  A    between atoms: O_27  and  C_28
REMARK    9  A    between atoms: C_28  and  C_29
REMARK   10  A    between atoms: C_28  and  C_30
REMARK   11  A    between atoms: C_28  and  C_31
REMARK                            x       y       z     vdW  Elec       q    Type
REMARK                         _______ _______ _______ _____ _____    ______ ____
ROOT
ATOM      1  C   UNL     1       0.493  -1.276  -3.575  0.00  0.00    +0.019 C 
ENDROOT
BRANCH   1   2
ATOM      2  N   UNL     1      -0.467  -1.203  -4.684  0.00  0.00    +0.385 N 
ATOM      3  C   UNL     1      -1.644  -2.020  -4.365  0.00  0.00    -0.076 C 
ATOM      4  C   UNL     1      -2.682  -1.882  -5.481  0.00  0.00    +0.004 C 
ATOM      5  C   UNL     1      -2.071  -2.358  -6.802  0.00  0.00    +0.073 C 
ATOM      6  C   UNL     1      -0.802  -1.549  -7.087  0.00  0.00    +0.004 C 
ATOM      7  C   UNL     1       0.167  -1.699  -5.912  0.00  0.00    -0.076 C 
ATOM      8  H   UNL     1      -0.752  -0.244  -4.818  0.00  0.00    -0.081 HD
BRANCH   5   9
ATOM      9  N   UNL     1      -3.033  -2.159  -7.888  0.00  0.00    -0.278 N 
ATOM     10  C   UNL     1      -2.963  -2.919  -8.998  0.00  0.00    +0.401 C 
ATOM     11  O   UNL     1      -2.102  -3.769  -9.099  0.00  0.00    -0.226 OA
ATOM     12  H   UNL     1      -3.721  -1.479  -7.807  0.00  0.00    +0.152 HD
BRANCH  10  13
ATOM     13  O   UNL     1      -3.848  -2.735  -9.996  0.00  0.00    -0.445 OA
BRANCH  13  14
ATOM     14  C   UNL     1      -3.715  -3.576 -11.144  0.00  0.00    +0.107 C 
ATOM     15  C   UNL     1      -3.867  -5.039 -10.725  0.00  0.00    +0.055 C 
ATOM     16  C   UNL     1      -4.800  -3.222 -12.164  0.00  0.00    +0.055 C 
ATOM     17  C   UNL     1      -2.337  -3.365 -11.774  0.00  0.00    +0.055 C 
ENDBRANCH  13  14
ENDBRANCH  10  13
ENDBRANCH   5   9
ENDBRANCH   1   2
BRANCH   1  19
ATOM     18  N   UNL     1       0.592  -0.609  -1.195  0.00  0.00    -0.310 N 
ATOM     19  C   UNL     1      -0.113  -0.654  -2.343  0.00  0.00    +0.197 C 
ATOM     20  O   UNL     1      -1.234  -0.195  -2.386  0.00  0.00    -0.278 OA
ATOM     21  H   UNL     1       1.489  -0.976  -1.161  0.00  0.00    +0.149 HD
BRANCH  18  23
ATOM     22  C   UNL     1       0.268   1.503  -0.004  0.00  0.00    +0.033 C 
ATOM     23  C   UNL     1       0.002  -0.004   0.002  0.00  0.00    +0.101 C 
BRANCH  23  24
ATOM     24  C   UNL     1       0.620  -0.619   1.231  0.00  0.00    -0.020 A 
ATOM     25  C   UNL     1       1.876  -1.141   1.178  0.00  0.00    +0.006 A 
ATOM     26  C   UNL     1       2.464  -1.714   2.304  0.00  0.00    +0.001 A 
ATOM     27  C   UNL     1       1.799  -1.768   3.490  0.00  0.00    +0.008 A 
ATOM     28  C   UNL     1       0.501  -1.239   3.584  0.00  0.00    -0.018 A 
ATOM     29  C   UNL     1      -0.095  -0.651   2.440  0.00  0.00    -0.013 A 
ATOM     30  C   UNL     1      -1.391  -0.117   2.536  0.00  0.00    +0.009 A 
ATOM     31  C   UNL     1      -2.054  -0.165   3.724  0.00  0.00    +0.001 A 
ATOM     32  C   UNL     1      -1.466  -0.738   4.851  0.00  0.00    +0.001 A 
ATOM     33  C   UNL     1      -0.217  -1.277   4.792  0.00  0.00    +0.008 A 
ENDBRANCH  23  24
ENDBRANCH  18  23
ENDBRANCH   1  19
TORSDOF 7
