REMARK  Name = ZINC27841427
REMARK  9 active torsions:
REMARK  status: ('A' for Active; 'I' for Inactive)
REMARK    1  A    between atoms: C_3  and  S_10
REMARK    2  A    between atoms: C_6  and  N_7
REMARK    3  A    between atoms: S_10  and  N_13
REMARK    4  A    between atoms: C_14  and  C_16
REMARK    5  A    between atoms: C_16  and  C_17
REMARK    6  A    between atoms: C_17  and  C_18
REMARK    7  A    between atoms: N_20  and  S_21
REMARK    8  A    between atoms: S_21  and  C_24
REMARK    9  A    between atoms: C_27  and  N_30
REMARK                            x       y       z     vdW  Elec       q    Type
REMARK                         _______ _______ _______ _____ _____    ______ ____
ROOT
ATOM      1  C   UNL     1       5.808   3.420   3.270  0.00  0.00    +0.111 C 
ENDROOT
BRANCH   1   3
ATOM      2  N   UNL     1       4.327   2.556   1.555  0.00  0.00    -0.091 NA
ATOM      3  C   UNL     1       5.411   3.198   1.833  0.00  0.00    +0.265 C 
ATOM      4  O   UNL     1       6.189   3.672   0.838  0.00  0.00    -0.269 OA
BRANCH   2   5
ATOM      5  S   UNL     1       3.891   2.312  -0.024  0.00  0.00    +0.102 S 
ATOM      6  O   UNL     1       4.872   1.453  -0.588  0.00  0.00    -0.146 OA
ATOM      7  O   UNL     1       3.597   3.593  -0.566  0.00  0.00    -0.146 OA
BRANCH   5  10
ATOM      8  C   UNL     1      -0.017   1.378   0.010  0.00  0.00    +0.034 A 
ATOM      9  C   UNL     1       1.171   2.086   0.002  0.00  0.00    +0.031 A 
ATOM     10  C   UNL     1       2.377   1.411  -0.013  0.00  0.00    +0.113 A 
ATOM     11  C   UNL     1       2.396   0.029  -0.020  0.00  0.00    +0.031 A 
ATOM     12  C   UNL     1       1.208  -0.679  -0.012  0.00  0.00    +0.034 A 
ATOM     13  C   UNL     1       0.002  -0.004   0.002  0.00  0.00    +0.126 A 
BRANCH  13  14
ATOM     14  N   UNL     1      -1.270  -0.761   0.011  0.00  0.00    +0.056 N 
ATOM     15  O   UNL     1      -2.325  -0.171   0.024  0.00  0.00    -0.126 OA
ATOM     16  O   UNL     1      -1.253  -1.970   0.004  0.00  0.00    -0.126 OA
ENDBRANCH  13  14
ENDBRANCH   5  10
ENDBRANCH   2   5
ENDBRANCH   1   3
BRANCH   1  17
ATOM     17  C   UNL     1       4.763   2.787   4.191  0.00  0.00    +0.111 C 
BRANCH  17  18
ATOM     18  C   UNL     1       5.160   3.009   5.628  0.00  0.00    +0.265 C 
ATOM     19  O   UNL     1       4.382   2.535   6.623  0.00  0.00    -0.269 OA
ATOM     20  N   UNL     1       6.244   3.651   5.906  0.00  0.00    -0.091 NA
BRANCH  20  21
ATOM     21  S   UNL     1       6.680   3.894   7.485  0.00  0.00    +0.102 S 
ATOM     22  O   UNL     1       5.700   4.754   8.050  0.00  0.00    -0.146 OA
ATOM     23  O   UNL     1       6.974   2.614   8.027  0.00  0.00    -0.146 OA
BRANCH  21  24
ATOM     24  C   UNL     1       8.194   4.796   7.474  0.00  0.00    +0.113 A 
ATOM     25  C   UNL     1       9.400   4.121   7.454  0.00  0.00    +0.031 A 
ATOM     26  C   UNL     1      10.588   4.829   7.445  0.00  0.00    +0.034 A 
ATOM     27  C   UNL     1      10.569   6.211   7.457  0.00  0.00    +0.126 A 
ATOM     28  C   UNL     1       9.363   6.886   7.477  0.00  0.00    +0.034 A 
ATOM     29  C   UNL     1       8.175   6.178   7.481  0.00  0.00    +0.031 A 
BRANCH  27  30
ATOM     30  N   UNL     1      11.841   6.968   7.449  0.00  0.00    +0.056 N 
ATOM     31  O   UNL     1      12.896   6.378   7.432  0.00  0.00    -0.126 OA
ATOM     32  O   UNL     1      11.825   8.177   7.459  0.00  0.00    -0.126 OA
ENDBRANCH  27  30
ENDBRANCH  21  24
ENDBRANCH  20  21
ENDBRANCH  17  18
ENDBRANCH   1  17
TORSDOF 9
