REMARK  Name = ZINC33408372
REMARK  13 active torsions:
REMARK  status: ('A' for Active; 'I' for Inactive)
REMARK    1  A    between atoms: C_1  and  C_2
REMARK    2  A    between atoms: C_2  and  C_3
REMARK    3  A    between atoms: C_3  and  C_5
REMARK    4  A    between atoms: C_3  and  C_6
REMARK    5  A    between atoms: C_6  and  N_7
REMARK    6  A    between atoms: N_7  and  C_8
REMARK    7  A    between atoms: C_8  and  C_9
REMARK    8  A    between atoms: N_11  and  C_12
REMARK    9  A    between atoms: N_11  and  C_22
REMARK   10  A    between atoms: C_12  and  C_13
REMARK   11  A    between atoms: C_22  and  C_23
REMARK   12  A    between atoms: C_24  and  C_28
REMARK   13  A    between atoms: N_31  and  C_32
REMARK                            x       y       z     vdW  Elec       q    Type
REMARK                         _______ _______ _______ _____ _____    ______ ____
ROOT
ATOM      1  C   UNL     1      -0.698  -0.409   4.784  0.00  0.00    +0.234 C 
ATOM      2  O   UNL     1       0.490  -0.185   4.886  0.00  0.00    -0.274 OA
ATOM      3  N   UNL     1      -1.221  -1.528   5.321  0.00  0.00    -0.291 N 
ENDROOT
BRANCH   1   4
ATOM      4  C   UNL     1      -1.588   0.565   4.055  0.00  0.00    +0.205 C 
BRANCH   4   5
ATOM      5  N   UNL     1      -0.785   1.690   3.568  0.00  0.00    -0.276 N 
ATOM      6  C   UNL     1      -0.610   2.778   4.344  0.00  0.00    +0.307 C 
ATOM      7  O   UNL     1      -1.117   2.826   5.448  0.00  0.00    -0.252 OA
ATOM      8  N   UNL     1       0.128   3.813   3.896  0.00  0.00    -0.269 N 
ATOM      9  H   UNL     1       0.525   3.802   2.870  0.00  0.00    +0.156 HD
BRANCH   8  10
ATOM     10  C   UNL     1       0.390   4.901   4.736  0.00  0.00    +0.035 A 
ATOM     11  C   UNL     1       1.621   5.541   4.682  0.00  0.00    +0.023 A 
ATOM     12  C   UNL     1       1.874   6.618   5.509  0.00  0.00    +0.002 A 
ATOM     13  C   UNL     1       0.907   7.053   6.397  0.00  0.00    +0.000 A 
ATOM     14  C   UNL     1      -0.318   6.414   6.456  0.00  0.00    +0.002 A 
ATOM     15  C   UNL     1      -0.580   5.340   5.628  0.00  0.00    +0.023 A 
ENDBRANCH   8  10
BRANCH   5  16
ATOM     16  C   UNL     1      -0.174   1.632   2.238  0.00  0.00    +0.113 C 
BRANCH  16  17
ATOM     17  C   UNL     1      -1.144   2.208   1.205  0.00  0.00    +0.003 C 
ATOM     18  C   UNL     1      -1.363   3.697   1.486  0.00  0.00    +0.009 C 
BRANCH  17  20
ATOM     19  C   UNL     1      -1.581   2.497  -1.238  0.00  0.00    +0.004 C 
ATOM     20  C   UNL     1      -0.558   2.034  -0.197  0.00  0.00    +0.001 C 
ENDBRANCH  17  20
ENDBRANCH  16  17
ENDBRANCH   5  16
ENDBRANCH   4   5
ENDBRANCH   1   4
BRANCH   3  21
ATOM     21  C   UNL     1      -0.356  -2.475   6.029  0.00  0.00    +0.143 C 
BRANCH  21  22
ATOM     22  C   UNL     1      -0.396  -2.183   7.507  0.00  0.00    -0.026 A 
ATOM     23  C   UNL     1       0.514  -1.302   8.061  0.00  0.00    +0.009 A 
ATOM     24  C   UNL     1       0.478  -1.026   9.415  0.00  0.00    +0.050 A 
ATOM     25  C   UNL     1      -0.463  -1.644  10.223  0.00  0.00    +0.166 A 
ATOM     26  C   UNL     1      -1.376  -2.536   9.666  0.00  0.00    +0.167 A 
ATOM     27  C   UNL     1      -1.338  -2.802   8.307  0.00  0.00    +0.054 A 
ATOM     28  O   UNL     1      -2.189  -3.004  10.658  0.00  0.00    -0.453 OA
ATOM     29  C   UNL     1      -1.505  -2.704  11.889  0.00  0.00    +0.466 C 
ATOM     30  O   UNL     1      -0.704  -1.553  11.564  0.00  0.00    -0.453 OA
ENDBRANCH  21  22
ENDBRANCH   3  21
BRANCH   3  31
ATOM     31  C   UNL     1      -2.656  -1.799   5.198  0.00  0.00    +0.150 C 
BRANCH  31  32
ATOM     32  C   UNL     1      -2.909  -2.612   3.955  0.00  0.00    +0.010 A 
ATOM     33  C   UNL     1      -3.042  -3.954   3.825  0.00  0.00    -0.039 A 
ATOM     34  C   UNL     1      -3.276  -4.487   2.571  0.00  0.00    +0.011 A 
ATOM     35  C   UNL     1      -3.356  -3.652   1.507  0.00  0.00    +0.046 A 
ATOM     36  S   UNL     1      -3.103  -2.057   2.269  0.00  0.00    -0.100 S 
ATOM     37  C   UNL     1      -2.940  -4.853   5.031  0.00  0.00    +0.044 C 
ENDBRANCH  31  32
ENDBRANCH   3  31
TORSDOF 10
