REMARK  Name = ZINC15610185
REMARK  7 active torsions:
REMARK  status: ('A' for Active; 'I' for Inactive)
REMARK    1  A    between atoms: C_1  and  O_2
REMARK    2  A    between atoms: O_2  and  C_3
REMARK    3  A    between atoms: C_5  and  C_11
REMARK    4  A    between atoms: C_7  and  O_9
REMARK    5  A    between atoms: O_9  and  C_10
REMARK    6  A    between atoms: C_12  and  C_13
REMARK    7  A    between atoms: N_15  and  C_16
REMARK                            x       y       z     vdW  Elec       q    Type
REMARK                         _______ _______ _______ _____ _____    ______ ____
ROOT
ATOM      1  C   UNL     1       0.002  -0.004   0.007  0.00  0.00    +0.241 C 
ATOM      2  O   UNL     1       1.064  -0.599  -0.010  0.00  0.00    -0.270 OA
ATOM      3  N   UNL     1      -1.156  -0.694   0.009  0.00  0.00    -0.281 N 
ATOM      4  H   UNL     1      -2.000  -0.223   0.089  0.00  0.00    +0.155 HD
ENDROOT
BRANCH   3   5
ATOM      5  C   UNL     1      -1.140  -2.089  -0.104  0.00  0.00    +0.051 A 
ATOM      6  C   UNL     1      -0.112  -2.822   0.474  0.00  0.00    +0.073 A 
ATOM      7  C   UNL     1      -0.099  -4.203   0.365  0.00  0.00    +0.164 A 
ATOM      8  C   UNL     1      -1.112  -4.854  -0.330  0.00  0.00    +0.163 A 
ATOM      9  C   UNL     1      -2.135  -4.119  -0.911  0.00  0.00    +0.066 A 
ATOM     10  C   UNL     1      -2.150  -2.741  -0.799  0.00  0.00    +0.043 A 
ATOM     11 BR   UNL     1      -3.546  -1.744  -1.595  0.00  0.00    -0.048 Br
ATOM     12  O   UNL     1      -1.116  -6.211  -0.448  0.00  0.00    -0.485 OA
ATOM     13  C   UNL     1       0.118  -6.884  -0.174  0.00  0.00    +0.270 C 
ATOM     14  C   UNL     1       0.700  -6.310   1.125  0.00  0.00    +0.270 C 
ATOM     15  O   UNL     1       0.916  -4.907   0.938  0.00  0.00    -0.485 OA
ENDBRANCH   3   5
BRANCH   1  17
ATOM     16  C   UNL     1       1.142   2.149   0.024  0.00  0.00    +0.013 C 
ATOM     17  C   UNL     1      -0.017   1.459   0.026  0.00  0.00    +0.068 C 
BRANCH  16  20
ATOM     18  C   UNL     1       2.298   5.722   0.059  0.00  0.00    +0.124 A 
ATOM     19  C   UNL     1       2.322   4.338   0.041  0.00  0.00    +0.053 A 
ATOM     20  C   UNL     1       1.122   3.621   0.043  0.00  0.00    -0.018 A 
ATOM     21  C   UNL     1      -0.096   4.306   0.058  0.00  0.00    +0.053 A 
ATOM     22  C   UNL     1      -0.108   5.690   0.082  0.00  0.00    +0.124 A 
ATOM     23  C   UNL     1       1.086   6.397   0.080  0.00  0.00    +0.091 A 
BRANCH  18  25
ATOM     24  C   UNL     1       3.366   7.846   0.077  0.00  0.00    +0.277 C 
ATOM     25  O   UNL     1       3.464   6.421   0.058  0.00  0.00    -0.495 OA
ENDBRANCH  18  25
BRANCH  22  26
ATOM     26  O   UNL     1      -1.292   6.358   0.102  0.00  0.00    -0.495 OA
ATOM     27  C   UNL     1      -1.232   7.785   0.120  0.00  0.00    +0.277 C 
ENDBRANCH  22  26
ENDBRANCH  16  20
ENDBRANCH   1  17
TORSDOF 5
