REMARK  Name = ZINC60355160
REMARK  7 active torsions:
REMARK  status: ('A' for Active; 'I' for Inactive)
REMARK    1  A    between atoms: C_1  and  C_2
REMARK    2  A    between atoms: C_5  and  C_7
REMARK    3  A    between atoms: C_7  and  C_9
REMARK    4  A    between atoms: C_7  and  N_27
REMARK    5  A    between atoms: C_9  and  N_10
REMARK    6  A    between atoms: C_11  and  C_13
REMARK    7  A    between atoms: C_13  and  C_14
REMARK                            x       y       z     vdW  Elec       q    Type
REMARK                         _______ _______ _______ _____ _____    ______ ____
ROOT
ATOM      1  N   UNL     1       3.248  -4.589   1.308  0.00  0.00    -0.316 N 
ATOM      2  C   UNL     1       3.862  -5.017   2.429  0.00  0.00    +0.215 C 
ATOM      3  O   UNL     1       3.660  -4.452   3.483  0.00  0.00    -0.276 OA
ATOM      4  H   UNL     1       3.410  -5.041   0.464  0.00  0.00    +0.149 HD
ENDROOT
BRANCH   1   5
ATOM      5  C   UNL     1       2.338  -3.443   1.362  0.00  0.00    +0.096 C 
BRANCH   5   6
ATOM      6  C   UNL     1       1.678  -3.250  -0.005  0.00  0.00    +0.016 C 
BRANCH   6  11
ATOM      7  C   UNL     1      -2.285  -6.370  -0.010  0.00  0.00    +0.086 C 
ATOM      8  C   UNL     1      -0.926  -5.791  -0.311  0.00  0.00    +0.102 A 
ATOM      9  C   UNL     1       0.007  -6.345  -1.105  0.00  0.00    +0.044 A 
ATOM     10  C   UNL     1       1.118  -5.471  -1.103  0.00  0.00    +0.043 A 
ATOM     11  C   UNL     1       0.797  -4.434  -0.309  0.00  0.00    +0.093 A 
ATOM     12  O   UNL     1      -0.445  -4.630   0.164  0.00  0.00    -0.466 OA
ENDBRANCH   6  11
BRANCH   6  13
ATOM     13  N   UNL     1       0.866  -2.026   0.011  0.00  0.00    +0.387 N 
ATOM     14  C   UNL     1       1.732  -0.840   0.232  0.00  0.00    -0.078 C 
ATOM     15  C   UNL     1       0.882   0.329  -0.327  0.00  0.00    -0.020 C 
ATOM     16  C   UNL     1       0.197  -0.301  -1.561  0.00  0.00    -0.020 C 
ATOM     17  C   UNL     1       0.228  -1.820  -1.307  0.00  0.00    -0.078 C 
ATOM     18  H   UNL     1       0.164  -2.084   0.733  0.00  0.00    -0.081 HD
ENDBRANCH   6  13
ENDBRANCH   5   6
ENDBRANCH   1   5
BRANCH   2  19
ATOM     19  C   UNL     1       4.798  -6.196   2.373  0.00  0.00    +0.119 C 
BRANCH  19  20
ATOM     20  C   UNL     1       5.355  -6.472   3.771  0.00  0.00    +0.146 C 
ATOM     21  C   UNL     1       6.203  -7.717   3.742  0.00  0.00    +0.231 C 
ATOM     22  O   UNL     1       5.707  -8.762   4.106  0.00  0.00    -0.274 OA
ATOM     23  N   UNL     1       7.469  -7.726   3.337  0.00  0.00    -0.284 N 
ATOM     24  C   UNL     1       8.240  -6.618   2.996  0.00  0.00    +0.048 A 
ATOM     25  C   UNL     1       9.413  -6.806   2.271  0.00  0.00    +0.044 A 
ATOM     26  C   UNL     1      10.191  -5.722   1.913  0.00  0.00    +0.043 A 
ATOM     27  C   UNL     1       9.813  -4.439   2.268  0.00  0.00    +0.021 A 
ATOM     28  C   UNL     1       8.651  -4.239   2.991  0.00  0.00    +0.018 A 
ATOM     29  C   UNL     1       7.870  -5.323   3.357  0.00  0.00    +0.030 A 
ATOM     30  S   UNL     1       6.393  -5.075   4.302  0.00  0.00    -0.110 S 
ATOM     31 CL   UNL     1      11.653  -5.970   1.010  0.00  0.00    -0.083 Cl
ATOM     32  H   UNL     1       7.899  -8.593   3.272  0.00  0.00    +0.155 HD
ENDBRANCH  19  20
ENDBRANCH   2  19
TORSDOF 6
