REMARK  Name = ZINC20059251
REMARK  12 active torsions:
REMARK  status: ('A' for Active; 'I' for Inactive)
REMARK    1  A    between atoms: C_1  and  C_2
REMARK    2  A    between atoms: C_5  and  N_9
REMARK    3  A    between atoms: C_7  and  C_8
REMARK    4  A    between atoms: N_9  and  C_10
REMARK    5  A    between atoms: N_9  and  S_32
REMARK    6  A    between atoms: C_10  and  C_11
REMARK    7  A    between atoms: C_14  and  C_17
REMARK    8  A    between atoms: N_19  and  N_20
REMARK    9  A    between atoms: C_21  and  C_22
REMARK   10  A    between atoms: C_21  and  C_23
REMARK   11  A    between atoms: C_26  and  N_29
REMARK   12  A    between atoms: S_32  and  C_35
REMARK                            x       y       z     vdW  Elec       q    Type
REMARK                         _______ _______ _______ _____ _____    ______ ____
ROOT
ATOM      1  C   UNL     1       0.331  -0.351   1.512  0.00  0.00    -0.028 A 
ATOM      2  C   UNL     1       1.643  -0.682   1.800  0.00  0.00    +0.006 A 
ATOM      3  C   UNL     1       2.008  -1.014   3.088  0.00  0.00    +0.013 A 
ATOM      4  C   UNL     1       1.047  -1.026   4.101  0.00  0.00    +0.038 A 
ATOM      5  C   UNL     1      -0.276  -0.696   3.803  0.00  0.00    +0.013 A 
ATOM      6  C   UNL     1      -0.626  -0.361   2.511  0.00  0.00    +0.006 A 
ENDROOT
BRANCH   4   7
ATOM      7  C   UNL     1       1.429  -1.386   5.482  0.00  0.00    +0.263 C 
ATOM      8  O   UNL     1       0.590  -1.396   6.362  0.00  0.00    -0.268 OA
ATOM      9  N   UNL     1       2.708  -1.704   5.766  0.00  0.00    -0.203 N 
ATOM     10  H   UNL     1       3.467  -1.695   4.970  0.00  0.00    +0.178 HD
BRANCH   9  11
ATOM     11  N   UNL     1       3.070  -2.046   7.076  0.00  0.00    -0.184 NA
ATOM     12  C   UNL     1       4.301  -2.352   7.350  0.00  0.00    +0.063 C 
ATOM     13  C   UNL     1       5.341  -2.340   6.259  0.00  0.00    +0.068 C 
BRANCH  12  14
ATOM     14  C   UNL     1       4.682  -2.711   8.728  0.00  0.00    -0.002 A 
ATOM     15  C   UNL     1       6.005  -3.047   9.026  0.00  0.00    +0.012 A 
ATOM     16  C   UNL     1       6.356  -3.376  10.318  0.00  0.00    +0.033 A 
ATOM     17  C   UNL     1       5.399  -3.386  11.317  0.00  0.00    +0.126 A 
ATOM     18  C   UNL     1       4.085  -3.061  11.029  0.00  0.00    +0.033 A 
ATOM     19  C   UNL     1       3.721  -2.724   9.742  0.00  0.00    +0.012 A 
BRANCH  17  20
ATOM     20  N   UNL     1       5.781  -3.746  12.701  0.00  0.00    +0.056 N 
ATOM     21  O   UNL     1       4.941  -3.756  13.583  0.00  0.00    -0.126 OA
ATOM     22  O   UNL     1       6.937  -4.033  12.958  0.00  0.00    -0.126 OA
ENDBRANCH  17  20
ENDBRANCH  12  14
ENDBRANCH   9  11
ENDBRANCH   4   7
BRANCH   1  23
ATOM     23  C   UNL     1      -0.059   0.016   0.103  0.00  0.00    +0.166 C 
BRANCH  23  24
ATOM     24  N   UNL     1       0.208   1.439  -0.122  0.00  0.00    -0.203 N 
BRANCH  24  29
ATOM     25  C   UNL     1       5.389   3.141  -1.676  0.00  0.00    +0.044 C 
ATOM     26  C   UNL     1       4.012   2.689  -1.263  0.00  0.00    -0.047 A 
ATOM     27  C   UNL     1       3.321   1.781  -2.045  0.00  0.00    +0.005 A 
ATOM     28  C   UNL     1       2.061   1.361  -1.666  0.00  0.00    +0.025 A 
ATOM     29  C   UNL     1       1.484   1.858  -0.505  0.00  0.00    +0.052 A 
ATOM     30  C   UNL     1       2.181   2.770   0.278  0.00  0.00    +0.028 A 
ATOM     31  C   UNL     1       3.443   3.182  -0.103  0.00  0.00    -0.046 A 
ATOM     32  C   UNL     1       4.200   4.171   0.745  0.00  0.00    +0.044 C 
ENDBRANCH  24  29
BRANCH  24  33
ATOM     33  S   UNL     1      -1.006   2.549   0.070  0.00  0.00    +0.043 S 
ATOM     34  O   UNL     1      -0.674   3.607  -0.819  0.00  0.00    -0.155 OA
ATOM     35  O   UNL     1      -2.206   1.808  -0.101  0.00  0.00    -0.155 OA
ATOM     36  C   UNL     1      -0.857   3.109   1.790  0.00  0.00    +0.218 C 
ENDBRANCH  24  33
ENDBRANCH  23  24
ENDBRANCH   1  23
TORSDOF 8
