REMARK  Name = ZINC13064522
REMARK  14 active torsions:
REMARK  status: ('A' for Active; 'I' for Inactive)
REMARK    1  A    between atoms: C_1  and  C_2
REMARK    2  A    between atoms: C_2  and  C_3
REMARK    3  A    between atoms: C_3  and  C_5
REMARK    4  A    between atoms: C_3  and  N_65
REMARK    5  A    between atoms: N_9  and  C_10
REMARK    6  A    between atoms: C_10  and  C_11
REMARK    7  A    between atoms: C_16  and  C_17
REMARK    8  A    between atoms: C_16  and  N_65
REMARK    9  A    between atoms: C_22  and  C_23
REMARK   10  A    between atoms: C_22  and  N_65
REMARK   11  A    between atoms: C_27  and  O_37
REMARK   12  A    between atoms: C_28  and  O_35
REMARK   13  A    between atoms: O_35  and  C_36
REMARK   14  A    between atoms: O_37  and  C_38
REMARK                            x       y       z     vdW  Elec       q    Type
REMARK                         _______ _______ _______ _____ _____    ______ ____
ROOT
ATOM      1  N   UNL     1      -0.544  -1.820   1.210  0.00  0.00    +0.392 N 
ATOM      2  H   UNL     1      -0.887  -0.887   1.468  0.00  0.00    -0.080 HD
ENDROOT
BRANCH   1   3
ATOM      3  C   UNL     1      -1.519  -2.833   1.667  0.00  0.00    +0.003 C 
BRANCH   3   4
ATOM      4  C   UNL     1      -1.211  -3.217   3.092  0.00  0.00    +0.139 A 
ATOM      5  N   UNL     1      -1.042  -2.401   4.103  0.00  0.00    -0.115 NA
ATOM      6  N   UNL     1      -0.797  -3.110   5.151  0.00  0.00    -0.023 NA
ATOM      7  N   UNL     1      -0.806  -4.358   4.833  0.00  0.00    -0.044 NA
ATOM      8  N   UNL     1      -1.063  -4.465   3.574  0.00  0.00    -0.223 N 
BRANCH   8   9
ATOM      9  C   UNL     1      -1.170  -5.711   2.810  0.00  0.00    +0.221 C 
BRANCH   9  10
ATOM     10  C   UNL     1       0.209  -6.198   2.447  0.00  0.00    +0.126 A 
ATOM     11  C   UNL     1       0.922  -7.116   3.123  0.00  0.00    +0.046 A 
ATOM     12  C   UNL     1       2.148  -7.271   2.436  0.00  0.00    +0.041 A 
ATOM     13  C   UNL     1       2.114  -6.431   1.386  0.00  0.00    +0.195 A 
ATOM     14  O   UNL     1       0.937  -5.784   1.398  0.00  0.00    -0.466 OA
ENDBRANCH   9  10
ENDBRANCH   8   9
ENDBRANCH   3   4
BRANCH   3  16
ATOM     15  C   UNL     1      -3.251  -1.877   0.141  0.00  0.00    +0.002 C 
ATOM     16  C   UNL     1      -2.922  -2.227   1.594  0.00  0.00    -0.011 C 
ENDBRANCH   3  16
ENDBRANCH   1   3
BRANCH   1  17
ATOM     17  C   UNL     1       0.763  -2.047   1.861  0.00  0.00    -0.034 C 
BRANCH  17  18
ATOM     18  C   UNL     1       1.579  -0.784   1.760  0.00  0.00    -0.027 A 
ATOM     19  C   UNL     1       1.703   0.226   2.656  0.00  0.00    +0.009 A 
ATOM     20  C   UNL     1       2.517   1.300   2.347  0.00  0.00    +0.008 A 
ATOM     21  C   UNL     1       3.168   1.311   1.158  0.00  0.00    +0.045 A 
ATOM     22  S   UNL     1       2.638  -0.233   0.433  0.00  0.00    -0.103 S 
ENDBRANCH  17  18
ENDBRANCH   1  17
BRANCH   1  23
ATOM     23  C   UNL     1      -0.396  -1.889  -0.259  0.00  0.00    -0.036 C 
BRANCH  23  24
ATOM     24  C   UNL     1      -0.011  -3.282  -0.686  0.00  0.00    +0.001 A 
ATOM     25  C   UNL     1      -0.973  -4.164  -1.058  0.00  0.00    +0.017 A 
ATOM     26  C   UNL     1      -0.568  -5.508  -1.468  0.00  0.00    +0.002 A 
ATOM     27  C   UNL     1      -1.517  -6.460  -1.862  0.00  0.00    +0.059 A 
ATOM     28  C   UNL     1      -1.104  -7.718  -2.243  0.00  0.00    +0.162 A 
ATOM     29  C   UNL     1       0.256  -8.045  -2.237  0.00  0.00    +0.163 A 
ATOM     30  C   UNL     1       1.201  -7.113  -1.850  0.00  0.00    +0.075 A 
ATOM     31  C   UNL     1       0.801  -5.840  -1.463  0.00  0.00    +0.053 A 
ATOM     32  N   UNL     1       1.729  -4.896  -1.073  0.00  0.00    -0.322 N 
ATOM     33  H   UNL     1       2.672  -5.125  -1.071  0.00  0.00    +0.169 HD
ATOM     34  C   UNL     1       1.346  -3.661  -0.704  0.00  0.00    +0.251 A 
ATOM     35  O   UNL     1       2.194  -2.850  -0.371  0.00  0.00    -0.268 OA
BRANCH  29  36
ATOM     36  O   UNL     1       0.651  -9.288  -2.615  0.00  0.00    -0.491 OA
ATOM     37  C   UNL     1       2.054  -9.559  -2.587  0.00  0.00    +0.277 C 
ENDBRANCH  29  36
BRANCH  28  38
ATOM     38  O   UNL     1      -2.022  -8.645  -2.626  0.00  0.00    -0.491 OA
ATOM     39  C   UNL     1      -3.394  -8.245  -2.608  0.00  0.00    +0.277 C 
ENDBRANCH  28  38
ENDBRANCH  23  24
ENDBRANCH   1  23
TORSDOF 11
