REMARK  Name = ZINC09245498
REMARK  6 active torsions:
REMARK  status: ('A' for Active; 'I' for Inactive)
REMARK    1  A    between atoms: C_1  and  C_2
REMARK    2  A    between atoms: C_15  and  C_17
REMARK    3  A    between atoms: C_17  and  S_18
REMARK    4  A    between atoms: S_18  and  C_19
REMARK    5  A    between atoms: C_22  and  C_29
REMARK    6  A    between atoms: N_23  and  C_24
REMARK                            x       y       z     vdW  Elec       q    Type
REMARK                         _______ _______ _______ _____ _____    ______ ____
ROOT
ATOM      1  S   UNL     1      -1.115   6.500   3.633  0.00  0.00    -0.077 S 
ENDROOT
BRANCH   1   2
ATOM      2  C   UNL     1      -1.574   5.420   4.948  0.00  0.00    +0.193 A 
ATOM      3  N   UNL     1      -1.701   4.114   4.875  0.00  0.00    -0.122 NA
ATOM      4  N   UNL     1      -2.048   3.640   6.018  0.00  0.00    -0.128 NA
ATOM      5  C   UNL     1      -2.163   4.614   6.891  0.00  0.00    +0.167 A 
ATOM      6  N   UNL     1      -1.857   5.783   6.233  0.00  0.00    -0.299 N 
BRANCH   5   7
ATOM      7  C   UNL     1      -2.544   4.479   8.313  0.00  0.00    +0.038 A 
ATOM      8  C   UNL     1      -3.522   5.311   8.858  0.00  0.00    +0.013 A 
ATOM      9  C   UNL     1      -3.873   5.180  10.186  0.00  0.00    +0.001 A 
ATOM     10  C   UNL     1      -3.258   4.225  10.977  0.00  0.00    +0.001 A 
ATOM     11  C   UNL     1      -2.288   3.396  10.443  0.00  0.00    +0.021 A 
ATOM     12  C   UNL     1      -1.930   3.514   9.114  0.00  0.00    +0.052 A 
ATOM     13 CL   UNL     1      -0.717   2.469   8.444  0.00  0.00    -0.083 Cl
ENDBRANCH   5   7
BRANCH   6  14
ATOM     14  C   UNL     1      -1.842   7.136   6.795  0.00  0.00    +0.091 C 
ATOM     15  C   UNL     1      -2.849   8.032   6.043  0.00  0.00    +0.025 C 
ATOM     16  C   UNL     1      -2.150   9.412   5.972  0.00  0.00    +0.002 C 
ATOM     17  C   UNL     1      -0.667   9.033   5.734  0.00  0.00    +0.002 C 
ATOM     18  C   UNL     1      -0.455   7.773   6.599  0.00  0.00    +0.025 C 
ENDBRANCH   6  14
ENDBRANCH   1   2
BRANCH   1  19
ATOM     19  C   UNL     1      -0.907   5.298   2.296  0.00  0.00    +0.173 C 
BRANCH  19  33
ATOM     20  C   UNL     1      -1.110   6.119  -2.257  0.00  0.00    +0.029 C 
ATOM     21  C   UNL     1       0.104   6.000  -1.332  0.00  0.00    +0.087 C 
ATOM     22  C   UNL     1       1.204   5.206  -2.037  0.00  0.00    +0.118 C 
ATOM     23  C   UNL     1       2.228   4.739  -1.037  0.00  0.00    +0.219 C 
ATOM     24  O   UNL     1       3.304   5.296  -0.971  0.00  0.00    -0.275 OA
ATOM     25  N   UNL     1       1.957   3.705  -0.211  0.00  0.00    -0.284 N 
ATOM     26  C   UNL     1       0.689   3.112  -0.207  0.00  0.00    +0.055 A 
ATOM     27  C   UNL     1       0.548   1.735  -0.267  0.00  0.00    +0.025 A 
ATOM     28  C   UNL     1      -0.714   1.171  -0.229  0.00  0.00    +0.002 A 
ATOM     29  C   UNL     1      -1.835   1.976  -0.130  0.00  0.00    +0.002 A 
ATOM     30  C   UNL     1      -1.701   3.351  -0.067  0.00  0.00    +0.025 A 
ATOM     31  C   UNL     1      -0.441   3.925  -0.118  0.00  0.00    +0.058 A 
ATOM     32  N   UNL     1      -0.290   5.317  -0.099  0.00  0.00    -0.266 N 
ATOM     33  C   UNL     1      -0.502   6.015   1.034  0.00  0.00    +0.230 C 
ATOM     34  O   UNL     1      -0.368   7.221   1.038  0.00  0.00    -0.274 OA
ATOM     35  H   UNL     1       2.646   3.371   0.385  0.00  0.00    +0.155 HD
ENDBRANCH  19  33
ENDBRANCH   1  19
TORSDOF 5
