REMARK  Name = ZINC09298603
REMARK  9 active torsions:
REMARK  status: ('A' for Active; 'I' for Inactive)
REMARK    1  A    between atoms: C_1  and  C_2
REMARK    2  A    between atoms: C_2  and  C_3
REMARK    3  A    between atoms: C_3  and  N_4
REMARK    4  A    between atoms: N_13  and  C_14
REMARK    5  A    between atoms: C_14  and  C_16
REMARK    6  A    between atoms: C_21  and  N_22
REMARK    7  A    between atoms: N_22  and  S_23
REMARK    8  A    between atoms: S_23  and  C_26
REMARK    9  A    between atoms: C_29  and  C_32
REMARK                            x       y       z     vdW  Elec       q    Type
REMARK                         _______ _______ _______ _____ _____    ______ ____
ROOT
ATOM      1  C   UNL     1      -3.396  -2.245   4.334  0.00  0.00    +0.061 A 
ATOM      2  C   UNL     1      -2.691  -2.851   3.292  0.00  0.00    +0.015 A 
ATOM      3  C   UNL     1      -3.067  -4.097   2.840  0.00  0.00    +0.001 A 
ATOM      4  C   UNL     1      -4.144  -4.754   3.414  0.00  0.00    +0.002 A 
ATOM      5  C   UNL     1      -4.851  -4.168   4.444  0.00  0.00    +0.025 A 
ATOM      6  C   UNL     1      -4.482  -2.914   4.916  0.00  0.00    +0.060 A 
ENDROOT
BRANCH   1   7
ATOM      7  C   UNL     1      -2.997  -0.909   4.823  0.00  0.00    +0.271 C 
ATOM      8  O   UNL     1      -3.616  -0.383   5.732  0.00  0.00    -0.268 OA
BRANCH   7  18
ATOM      9  N   UNL     1      -0.580   1.713   4.271  0.00  0.00    -0.321 N 
ATOM     10  C   UNL     1      -0.354   2.943   4.861  0.00  0.00    +0.058 A 
ATOM     11  C   UNL     1       0.634   3.891   4.549  0.00  0.00    +0.027 A 
ATOM     12  C   UNL     1       0.713   5.077   5.239  0.00  0.00    +0.002 A 
ATOM     13  C   UNL     1      -0.178   5.377   6.256  0.00  0.00    +0.001 A 
ATOM     14  C   UNL     1      -1.165   4.463   6.581  0.00  0.00    +0.017 A 
ATOM     15  C   UNL     1      -1.245   3.276   5.892  0.00  0.00    +0.039 A 
ATOM     16  S   UNL     1      -2.317   1.864   5.976  0.00  0.00    -0.052 S 
ATOM     17  C   UNL     1      -1.599   0.925   4.707  0.00  0.00    +0.167 A 
ATOM     18  N   UNL     1      -1.957  -0.276   4.268  0.00  0.00    -0.152 NA
BRANCH   9  19
ATOM     19  C   UNL     1       0.284   1.256   3.179  0.00  0.00    +0.124 C 
BRANCH  19  21
ATOM     20  C   UNL     1       0.600   1.236   0.701  0.00  0.00    +0.005 C 
ATOM     21  C   UNL     1      -0.301   1.713   1.841  0.00  0.00    +0.018 C 
ENDBRANCH  19  21
ENDBRANCH   9  19
ENDBRANCH   7  18
ENDBRANCH   1   7
BRANCH   6  22
ATOM     22  N   UNL     1      -5.189  -2.324   5.958  0.00  0.00    -0.216 N 
ATOM     23  H   UNL     1      -5.326  -1.364   5.968  0.00  0.00    +0.174 HD
BRANCH  22  24
ATOM     24  S   UNL     1      -5.798  -3.260   7.180  0.00  0.00    +0.072 S 
ATOM     25  O   UNL     1      -6.342  -2.368   8.143  0.00  0.00    -0.150 OA
ATOM     26  O   UNL     1      -6.572  -4.280   6.564  0.00  0.00    -0.150 OA
BRANCH  24  27
ATOM     27  C   UNL     1      -4.431  -4.062   7.952  0.00  0.00    +0.109 A 
ATOM     28  C   UNL     1      -4.010  -5.298   7.500  0.00  0.00    +0.029 A 
ATOM     29  C   UNL     1      -2.935  -5.925   8.102  0.00  0.00    +0.005 A 
ATOM     30  C   UNL     1      -2.288  -5.320   9.164  0.00  0.00    -0.050 A 
ATOM     31  C   UNL     1      -2.713  -4.086   9.620  0.00  0.00    +0.005 A 
ATOM     32  C   UNL     1      -3.785  -3.457   9.014  0.00  0.00    +0.029 A 
ATOM     33  C   UNL     1      -1.120  -6.006   9.825  0.00  0.00    +0.044 C 
ENDBRANCH  24  27
ENDBRANCH  22  24
ENDBRANCH   6  22
TORSDOF 7
