REMARK  Name = ZINC09088180
REMARK  9 active torsions:
REMARK  status: ('A' for Active; 'I' for Inactive)
REMARK    1  A    between atoms: C_1  and  C_2
REMARK    2  A    between atoms: C_2  and  C_3
REMARK    3  A    between atoms: C_2  and  C_4
REMARK    4  A    between atoms: C_2  and  C_5
REMARK    5  A    between atoms: C_5  and  C_7
REMARK    6  A    between atoms: C_9  and  C_32
REMARK    7  A    between atoms: C_32  and  C_34
REMARK    8  A    between atoms: C_37  and  O_40
REMARK    9  A    between atoms: O_40  and  C_41
REMARK                            x       y       z     vdW  Elec       q    Type
REMARK                         _______ _______ _______ _____ _____    ______ ____
ROOT
ATOM      1  C   UNL     1      -3.401  -0.766   0.696  0.00  0.00    +0.153 C 
ATOM      2  C   UNL     1      -3.073   0.707   1.076  0.00  0.00    +0.109 C 
ATOM      3  C   UNL     1      -2.834   1.412  -0.275  0.00  0.00    +0.108 C 
ATOM      4  C   UNL     1      -1.464   1.993  -0.362  0.00  0.00    -0.008 A 
ATOM      5  C   UNL     1      -0.213   1.419  -0.285  0.00  0.00    +0.006 A 
ATOM      6  C   UNL     1       0.881   2.268  -0.401  0.00  0.00    +0.000 A 
ATOM      7  C   UNL     1       0.720   3.628  -0.579  0.00  0.00    +0.002 A 
ATOM      8  C   UNL     1      -0.533   4.214  -0.652  0.00  0.00    +0.023 A 
ATOM      9  C   UNL     1      -1.641   3.372  -0.538  0.00  0.00    +0.038 A 
ATOM     10  N   UNL     1      -2.989   3.684  -0.576  0.00  0.00    -0.284 N 
ATOM     11  C   UNL     1      -3.766   2.588  -0.430  0.00  0.00    +0.231 C 
ATOM     12  O   UNL     1      -4.978   2.557  -0.424  0.00  0.00    -0.274 OA
ATOM     13  C   UNL     1      -3.089   0.345  -1.328  0.00  0.00    +0.117 C 
ATOM     14  N   UNL     1      -2.772  -0.926  -0.620  0.00  0.00    -0.311 N 
ATOM     15  C   UNL     1      -3.135  -1.992  -1.406  0.00  0.00    +0.038 A 
ATOM     16  C   UNL     1      -3.795  -3.107  -0.927  0.00  0.00    +0.024 A 
ATOM     17  C   UNL     1      -4.138  -4.130  -1.792  0.00  0.00    +0.002 A 
ATOM     18  C   UNL     1      -3.824  -4.048  -3.138  0.00  0.00    +0.001 A 
ATOM     19  C   UNL     1      -3.162  -2.942  -3.635  0.00  0.00    +0.010 A 
ATOM     20  C   UNL     1      -2.811  -1.908  -2.778  0.00  0.00    -0.004 A 
ATOM     21  C   UNL     1      -2.096  -0.704  -3.265  0.00  0.00    +0.007 C 
ATOM     22  C   UNL     1      -2.227   0.429  -2.551  0.00  0.00    -0.003 C 
ATOM     23  H   UNL     1      -3.335   4.583  -0.694  0.00  0.00    +0.155 HD
ENDROOT
BRANCH   1  24
ATOM     24  C   UNL     1      -4.891  -0.970   0.601  0.00  0.00    +0.160 C 
ATOM     25  O   UNL     1      -5.453  -0.831  -0.459  0.00  0.00    -0.295 OA
BRANCH  24  27
ATOM     26  C   UNL     1      -7.138  -1.602   1.440  0.00  0.00    +0.018 C 
ATOM     27  C   UNL     1      -5.680  -1.348   1.828  0.00  0.00    +0.022 C 
ATOM     28  C   UNL     1      -5.088  -2.618   2.443  0.00  0.00    +0.018 C 
ATOM     29  C   UNL     1      -5.614  -0.209   2.848  0.00  0.00    +0.018 C 
ENDBRANCH  24  27
ENDBRANCH   1  24
BRANCH   2  30
ATOM     30  C   UNL     1      -1.831   0.765   1.927  0.00  0.00    +0.170 C 
ATOM     31  O   UNL     1      -1.030  -0.144   1.895  0.00  0.00    -0.292 OA
BRANCH  30  32
ATOM     32  C   UNL     1      -1.591   1.925   2.796  0.00  0.00    +0.018 A 
ATOM     33  C   UNL     1      -2.554   2.935   2.902  0.00  0.00    +0.015 A 
ATOM     34  C   UNL     1      -2.328   4.012   3.720  0.00  0.00    +0.046 A 
ATOM     35  C   UNL     1      -1.138   4.108   4.434  0.00  0.00    +0.120 A 
ATOM     36  C   UNL     1      -0.175   3.110   4.328  0.00  0.00    +0.046 A 
ATOM     37  C   UNL     1      -0.395   2.026   3.518  0.00  0.00    +0.015 A 
BRANCH  35  38
ATOM     38  O   UNL     1      -0.916   5.179   5.237  0.00  0.00    -0.495 OA
ATOM     39  C   UNL     1      -1.946   6.167   5.300  0.00  0.00    +0.277 C 
ENDBRANCH  35  38
ENDBRANCH  30  32
ENDBRANCH   2  30
TORSDOF 5
