REMARK  Name = ZINC13120436
REMARK  5 active torsions:
REMARK  status: ('A' for Active; 'I' for Inactive)
REMARK    1  A    between atoms: C_1  and  C_2
REMARK    2  A    between atoms: C_9  and  C_11
REMARK    3  A    between atoms: C_11  and  N_13
REMARK    4  A    between atoms: N_14  and  C_15
REMARK    5  A    between atoms: C_24  and  O_25
REMARK                            x       y       z     vdW  Elec       q    Type
REMARK                         _______ _______ _______ _____ _____    ______ ____
ROOT
ATOM      1  N   UNL     1       1.540  -6.536   2.603  0.00  0.00    -0.075 NA
ATOM      2  N   UNL     1       2.171  -7.479   3.217  0.00  0.00    -0.151 NA
ENDROOT
BRANCH   2   3
ATOM      3  C   UNL     1       1.784  -8.750   3.066  0.00  0.00    +0.152 A 
ATOM      4  C   UNL     1       2.387  -9.943   3.696  0.00  0.00    +0.030 A 
ATOM      5  C   UNL     1       3.453 -10.133   4.569  0.00  0.00    +0.012 A 
ATOM      6  C   UNL     1       3.776 -11.408   4.985  0.00  0.00    +0.001 A 
ATOM      7  C   UNL     1       3.043 -12.495   4.536  0.00  0.00    +0.002 A 
ATOM      8  C   UNL     1       1.984 -12.319   3.670  0.00  0.00    +0.026 A 
ATOM      9  C   UNL     1       1.643 -11.042   3.240  0.00  0.00    +0.051 A 
ATOM     10  N   UNL     1       0.655 -10.568   2.393  0.00  0.00    -0.324 N 
ATOM     11  H   UNL     1       0.002 -11.126   1.942  0.00  0.00    +0.169 HD
ATOM     12  C   UNL     1       0.723  -9.219   2.286  0.00  0.00    +0.219 A 
BRANCH  12  13
ATOM     13  O   UNL     1      -0.100  -8.451   1.542  0.00  0.00    -0.492 OA
ATOM     14  H   UNL     1       0.205  -8.311   0.635  0.00  0.00    +0.294 HD
ENDBRANCH  12  13
ENDBRANCH   2   3
BRANCH   1  15
ATOM     15  C   UNL     1       1.930  -5.255   2.755  0.00  0.00    +0.291 C 
ATOM     16  O   UNL     1       2.879  -4.987   3.472  0.00  0.00    -0.266 OA
BRANCH  15  24
ATOM     17  C   UNL     1      -0.019   1.526   0.010  0.00  0.00    +0.008 C 
ATOM     18  C   UNL     1       0.002  -0.004   0.002  0.00  0.00    -0.009 C 
ATOM     19  C   UNL     1      -1.435  -0.532   0.009  0.00  0.00    +0.009 C 
ATOM     20  C   UNL     1      -1.408  -2.041  -0.272  0.00  0.00    +0.043 C 
ATOM     21  C   UNL     1      -0.377  -2.671   0.617  0.00  0.00    -0.006 A 
ATOM     22  C   UNL     1       0.604  -2.027   1.313  0.00  0.00    -0.036 A 
ATOM     23  C   UNL     1       1.448  -2.818   2.077  0.00  0.00    +0.024 A 
ATOM     24  C   UNL     1       1.213  -4.182   2.058  0.00  0.00    +0.078 A 
ATOM     25  S   UNL     1      -0.190  -4.294   0.962  0.00  0.00    -0.088 S 
ATOM     26  C   UNL     1       0.745  -0.509   1.239  0.00  0.00    +0.039 C 
ENDBRANCH  15  24
ENDBRANCH   1  15
TORSDOF 4
