REMARK  Name = ZINC09968585
REMARK  15 active torsions:
REMARK  status: ('A' for Active; 'I' for Inactive)
REMARK    1  A    between atoms: C_1  and  C_2
REMARK    2  A    between atoms: C_3  and  C_26
REMARK    3  A    between atoms: C_4  and  C_16
REMARK    4  A    between atoms: C_10  and  C_14
REMARK    5  A    between atoms: C_10  and  C_15
REMARK    6  A    between atoms: C_18  and  O_24
REMARK    7  A    between atoms: C_19  and  O_23
REMARK    8  A    between atoms: O_24  and  C_25
REMARK    9  A    between atoms: C_26  and  O_28
REMARK   10  A    between atoms: O_28  and  C_29
REMARK   11  A    between atoms: C_29  and  C_30
REMARK   12  A    between atoms: C_30  and  O_31
REMARK   13  A    between atoms: O_31  and  C_32
REMARK   14  A    between atoms: C_32  and  C_33
REMARK   15  A    between atoms: C_32  and  C_34
REMARK                            x       y       z     vdW  Elec       q    Type
REMARK                         _______ _______ _______ _____ _____    ______ ____
ROOT
ATOM      1  C   UNL     1      -2.380   2.494   0.531  0.00  0.00    +0.061 C 
ATOM      2  C   UNL     1      -1.137   1.679   0.777  0.00  0.00    +0.031 C 
ATOM      3  C   UNL     1      -1.212   0.338   0.807  0.00  0.00    +0.154 C 
ATOM      4  C   UNL     1       0.002  -0.506   1.054  0.00  0.00    +0.073 C 
ATOM      5  C   UNL     1       1.267   0.285   0.835  0.00  0.00    +0.025 C 
ATOM      6  C   UNL     1       1.240   1.635   0.802  0.00  0.00    +0.049 C 
ATOM      7  N   UNL     1       0.060   2.310   0.968  0.00  0.00    -0.260 NA
ATOM      8  C   UNL     1       2.502   2.433   0.589  0.00  0.00    +0.062 C 
ATOM      9  C   UNL     1       3.699   1.669   1.154  0.00  0.00    -0.023 C 
ATOM     10  C   UNL     1       3.775   0.302   0.465  0.00  0.00    +0.086 C 
ATOM     11  C   UNL     1       2.471  -0.420   0.664  0.00  0.00    +0.162 C 
ATOM     12  O   UNL     1       2.457  -1.635   0.678  0.00  0.00    -0.292 OA
ATOM     13  C   UNL     1       3.515   1.475   2.661  0.00  0.00    +0.011 C 
ATOM     14  C   UNL     1       4.986   2.451   0.889  0.00  0.00    +0.011 C 
ENDROOT
BRANCH   4  15
ATOM     15  C   UNL     1      -0.034  -0.998   2.478  0.00  0.00    -0.034 A 
ATOM     16  C   UNL     1      -0.113  -2.354   2.737  0.00  0.00    +0.053 A 
ATOM     17  C   UNL     1      -0.145  -2.808   4.046  0.00  0.00    +0.163 A 
ATOM     18  C   UNL     1      -0.098  -1.898   5.097  0.00  0.00    +0.173 A 
ATOM     19  C   UNL     1      -0.019  -0.540   4.830  0.00  0.00    +0.063 A 
ATOM     20  C   UNL     1       0.018  -0.093   3.522  0.00  0.00    +0.023 A 
ATOM     21 BR   UNL     1       0.046   0.701   6.256  0.00  0.00    -0.046 Br
BRANCH  18  22
ATOM     22  O   UNL     1      -0.130  -2.339   6.383  0.00  0.00    -0.503 OA
ATOM     23  H   UNL     1       0.742  -2.518   6.760  0.00  0.00    +0.292 HD
ENDBRANCH  18  22
BRANCH  17  24
ATOM     24  O   UNL     1      -0.224  -4.142   4.302  0.00  0.00    -0.491 OA
ATOM     25  C   UNL     1      -0.156  -5.023   3.179  0.00  0.00    +0.277 C 
ENDBRANCH  17  24
ENDBRANCH   4  15
BRANCH   3  26
ATOM     26  C   UNL     1      -2.462  -0.291   0.597  0.00  0.00    +0.317 C 
ATOM     27  O   UNL     1      -2.710  -0.807  -0.477  0.00  0.00    -0.250 OA
BRANCH  26  28
ATOM     28  O   UNL     1      -3.378  -0.319   1.587  0.00  0.00    -0.462 OA
BRANCH  28  29
ATOM     29  C   UNL     1      -4.566  -1.078   1.350  0.00  0.00    +0.260 C 
BRANCH  29  30
ATOM     30  C   UNL     1      -5.523  -0.910   2.532  0.00  0.00    +0.201 C 
BRANCH  30  31
ATOM     31  O   UNL     1      -5.957   0.450   2.604  0.00  0.00    -0.374 OA
BRANCH  31  32
ATOM     32  C   UNL     1      -6.772   0.740   3.741  0.00  0.00    +0.112 C 
ATOM     33  C   UNL     1      -5.885   1.183   4.906  0.00  0.00    +0.037 C 
ATOM     34  C   UNL     1      -7.753   1.861   3.392  0.00  0.00    +0.037 C 
ENDBRANCH  31  32
ENDBRANCH  30  31
ENDBRANCH  29  30
ENDBRANCH  28  29
ENDBRANCH  26  28
ENDBRANCH   3  26
TORSDOF 9
