REMARK  Name = ZINC36029015
REMARK  10 active torsions:
REMARK  status: ('A' for Active; 'I' for Inactive)
REMARK    1  A    between atoms: C_1  and  C_2
REMARK    2  A    between atoms: C_2  and  C_3
REMARK    3  A    between atoms: C_3  and  C_5
REMARK    4  A    between atoms: C_3  and  C_6
REMARK    5  A    between atoms: N_10  and  C_28
REMARK    6  A    between atoms: N_15  and  C_18
REMARK    7  A    between atoms: C_18  and  N_20
REMARK    8  A    between atoms: N_20  and  C_21
REMARK    9  A    between atoms: C_25  and  C_27
REMARK   10  A    between atoms: C_28  and  C_29
REMARK                            x       y       z     vdW  Elec       q    Type
REMARK                         _______ _______ _______ _____ _____    ______ ____
ROOT
ATOM      1  C   UNL     1      -0.899  -2.157  -0.256  0.00  0.00    +0.022 C 
ATOM      2  C   UNL     1      -0.275  -2.948   0.873  0.00  0.00    +0.201 C 
ATOM      3  O   UNL     1       0.894  -2.919   1.196  0.00  0.00    -0.277 OA
ATOM      4  N   UNL     1      -1.237  -3.689   1.460  0.00  0.00    -0.309 N 
ATOM      5  C   UNL     1      -2.515  -3.456   0.783  0.00  0.00    +0.006 C 
ATOM      6  N   UNL     1      -2.358  -2.206   0.007  0.00  0.00    +0.401 N 
ATOM      7  C   UNL     1      -3.634  -3.289   1.810  0.00  0.00    +0.025 C 
ATOM      8  C   UNL     1      -3.765  -4.576   2.632  0.00  0.00    +0.107 C 
ATOM      9  N   UNL     1      -3.940  -5.708   1.713  0.00  0.00    -0.312 N 
ATOM     10  C   UNL     1      -2.954  -5.910   0.642  0.00  0.00    +0.107 C 
ATOM     11  C   UNL     1      -2.831  -4.612  -0.164  0.00  0.00    +0.025 C 
ATOM     12  H   UNL     1      -2.648  -1.409   0.553  0.00  0.00    -0.082 HD
ATOM     13  H   UNL     1      -2.875  -2.254  -0.858  0.00  0.00    -0.082 HD
ENDROOT
BRANCH   1  14
ATOM     14  C   UNL     1      -0.402  -0.711  -0.233  0.00  0.00    -0.020 C 
ATOM     15  C   UNL     1      -0.603  -0.124   1.166  0.00  0.00    +0.006 C 
BRANCH  14  17
ATOM     16  C   UNL     1       1.554   0.776  -0.690  0.00  0.00    +0.004 C 
ATOM     17  C   UNL     1       1.085  -0.677  -0.591  0.00  0.00    -0.001 C 
ENDBRANCH  14  17
ENDBRANCH   1  14
BRANCH   9  18
ATOM     18  C   UNL     1      -4.986  -6.548   1.850  0.00  0.00    +0.137 C 
ATOM     19  S   UNL     1      -6.195  -6.226   3.018  0.00  0.00    -0.018 S 
BRANCH  18  20
ATOM     20  N   UNL     1      -5.079  -7.641   1.067  0.00  0.00    -0.297 N 
ATOM     21  H   UNL     1      -5.673  -7.639   0.300  0.00  0.00    +0.154 HD
BRANCH  20  22
ATOM     22  C   UNL     1      -4.319  -8.779   1.361  0.00  0.00    +0.033 A 
ATOM     23  C   UNL     1      -3.397  -8.751   2.400  0.00  0.00    +0.023 A 
ATOM     24  C   UNL     1      -2.650  -9.875   2.688  0.00  0.00    +0.002 A 
ATOM     25  C   UNL     1      -2.818 -11.029   1.943  0.00  0.00    +0.003 A 
ATOM     26  C   UNL     1      -3.735 -11.060   0.908  0.00  0.00    -0.049 A 
ATOM     27  C   UNL     1      -4.490  -9.940   0.619  0.00  0.00    +0.026 A 
ATOM     28  C   UNL     1      -3.914 -12.319   0.100  0.00  0.00    +0.044 C 
ENDBRANCH  20  22
ENDBRANCH  18  20
ENDBRANCH   9  18
BRANCH   4  29
ATOM     29  C   UNL     1      -1.035  -4.589   2.599  0.00  0.00    +0.141 C 
BRANCH  29  30
ATOM     30  C   UNL     1      -0.936  -3.780   3.866  0.00  0.00    -0.026 A 
ATOM     31  C   UNL     1       0.275  -3.227   4.239  0.00  0.00    +0.009 A 
ATOM     32  C   UNL     1       0.371  -2.484   5.401  0.00  0.00    +0.050 A 
ATOM     33  C   UNL     1      -0.748  -2.292   6.195  0.00  0.00    +0.166 A 
ATOM     34  C   UNL     1      -1.968  -2.849   5.820  0.00  0.00    +0.167 A 
ATOM     35  C   UNL     1      -2.058  -3.588   4.651  0.00  0.00    +0.054 A 
ATOM     36  O   UNL     1      -2.905  -2.521   6.757  0.00  0.00    -0.453 OA
ATOM     37  C   UNL     1      -2.159  -2.103   7.916  0.00  0.00    +0.466 C 
ATOM     38  O   UNL     1      -0.920  -1.615   7.368  0.00  0.00    -0.453 OA
ENDBRANCH  29  30
ENDBRANCH   4  29
TORSDOF 7
