REMARK  Name = ZINC02916674
REMARK  10 active torsions:
REMARK  status: ('A' for Active; 'I' for Inactive)
REMARK    1  A    between atoms: C_1  and  O_2
REMARK    2  A    between atoms: O_2  and  C_3
REMARK    3  A    between atoms: C_6  and  O_34
REMARK    4  A    between atoms: C_7  and  C_9
REMARK    5  A    between atoms: C_22  and  C_24
REMARK    6  A    between atoms: C_26  and  O_32
REMARK    7  A    between atoms: C_29  and  O_30
REMARK    8  A    between atoms: O_30  and  C_31
REMARK    9  A    between atoms: O_32  and  C_33
REMARK   10  A    between atoms: O_34  and  C_35
REMARK                            x       y       z     vdW  Elec       q    Type
REMARK                         _______ _______ _______ _____ _____    ______ ____
ROOT
ATOM      1  C   UNL     1      -3.269   3.908  -0.199  0.00  0.00    +0.017 C 
ATOM      2  C   UNL     1      -2.046   4.461  -0.166  0.00  0.00    -0.023 C 
ATOM      3  C   UNL     1      -1.868   5.964  -0.174  0.00  0.00    +0.037 C 
ATOM      4  C   UNL     1      -0.710   6.281  -1.131  0.00  0.00    +0.009 C 
ATOM      5  C   UNL     1       0.568   5.642  -0.592  0.00  0.00    +0.035 C 
ATOM      6  C   UNL     1       0.379   4.178  -0.330  0.00  0.00    -0.020 C 
ATOM      7  C   UNL     1      -0.828   3.619  -0.121  0.00  0.00    +0.046 C 
ATOM      8  N   UNL     1      -0.960   2.286   0.130  0.00  0.00    -0.326 N 
ATOM      9  C   UNL     1       0.036   1.437   0.194  0.00  0.00    +0.215 C 
ATOM     10  N   UNL     1       0.078   0.107   0.433  0.00  0.00    -0.206 NA
ATOM     11  C   UNL     1       1.309  -0.322   0.392  0.00  0.00    +0.203 C 
ATOM     12  N   UNL     1       2.144   0.719   0.121  0.00  0.00    -0.251 N 
ATOM     13  N   UNL     1       1.337   1.852  -0.006  0.00  0.00    -0.210 N 
ATOM     14  C   UNL     1       1.595   3.267  -0.286  0.00  0.00    +0.159 C 
ATOM     15  H   UNL     1       3.234   0.803  -0.002  0.00  0.00    +0.171 HD
ATOM     16  H   UNL     1      -1.992   1.936   0.283  0.00  0.00    +0.169 HD
ENDROOT
BRANCH   1  21
ATOM     17  C   UNL     1      -5.572   6.680   0.857  0.00  0.00    +0.121 A 
ATOM     18  C   UNL     1      -6.722   6.359   0.148  0.00  0.00    +0.049 A 
ATOM     19  C   UNL     1      -6.751   5.246  -0.670  0.00  0.00    +0.050 A 
ATOM     20  C   UNL     1      -5.629   4.444  -0.793  0.00  0.00    +0.127 A 
ATOM     21  C   UNL     1      -4.465   4.758  -0.077  0.00  0.00    +0.020 A 
ATOM     22  C   UNL     1      -4.445   5.885   0.748  0.00  0.00    +0.057 A 
BRANCH  17  24
ATOM     23  C   UNL     1      -6.751   8.553   1.725  0.00  0.00    +0.277 C 
ATOM     24  O   UNL     1      -5.553   7.777   1.659  0.00  0.00    -0.495 OA
ENDBRANCH  17  24
BRANCH  20  25
ATOM     25  O   UNL     1      -5.657   3.353  -1.603  0.00  0.00    -0.495 OA
ATOM     26  C   UNL     1      -6.876   3.095  -2.302  0.00  0.00    +0.277 C 
ENDBRANCH  20  25
ENDBRANCH   1  21
BRANCH  14  27
ATOM     27  C   UNL     1       2.297   3.361  -1.616  0.00  0.00    +0.024 A 
ATOM     28  C   UNL     1       2.142   2.357  -2.552  0.00  0.00    +0.055 A 
ATOM     29  C   UNL     1       2.785   2.445  -3.777  0.00  0.00    +0.121 A 
ATOM     30  C   UNL     1       3.593   3.537  -4.059  0.00  0.00    +0.049 A 
ATOM     31  C   UNL     1       3.752   4.539  -3.122  0.00  0.00    +0.049 A 
ATOM     32  C   UNL     1       3.105   4.453  -1.898  0.00  0.00    +0.126 A 
BRANCH  32  33
ATOM     33  O   UNL     1       3.263   5.438  -0.975  0.00  0.00    -0.495 OA
ATOM     34  C   UNL     1       4.109   6.533  -1.333  0.00  0.00    +0.277 C 
ENDBRANCH  32  33
BRANCH  29  35
ATOM     35  O   UNL     1       2.628   1.459  -4.700  0.00  0.00    -0.495 OA
ATOM     36  C   UNL     1       3.324   1.613  -5.939  0.00  0.00    +0.277 C 
ENDBRANCH  29  35
ENDBRANCH  14  27
TORSDOF 6
