REMARK  Name = ZINC43534897
REMARK  3 active torsions:
REMARK  status: ('A' for Active; 'I' for Inactive)
REMARK    1  A    between atoms: C_3  and  C_6
REMARK    2  A    between atoms: C_9  and  S_11
REMARK    3  A    between atoms: S_11  and  C_12
REMARK                            x       y       z     vdW  Elec       q    Type
REMARK                         _______ _______ _______ _____ _____    ______ ____
ROOT
ATOM      1  S   UNL     1       7.605   1.467  -0.073  0.00  0.00    -0.010 S 
ENDROOT
BRANCH   1   2
ATOM      2  C   UNL     1       8.441   3.018  -0.067  0.00  0.00    +0.112 A 
ATOM      3  C   UNL     1       9.836   3.070  -0.089  0.00  0.00    +0.075 A 
ATOM      4  C   UNL     1      10.449   4.310  -0.084  0.00  0.00    +0.135 A 
ATOM      5  N   UNL     1       9.700   5.404  -0.058  0.00  0.00    -0.203 NA
ATOM      6  C   UNL     1       8.378   5.323  -0.037  0.00  0.00    +0.215 A 
ATOM      7  N   UNL     1       7.752   4.155  -0.047  0.00  0.00    -0.208 NA
ATOM      8  N   UNL     1       7.631   6.488  -0.010  0.00  0.00    -0.327 N 
ATOM      9 CL   UNL     1      12.181   4.432  -0.110  0.00  0.00    -0.062 Cl
ATOM     10  H   UNL     1       8.076   7.349  -0.006  0.00  0.00    +0.145 HD
ATOM     11  H   UNL     1       6.662   6.442   0.005  0.00  0.00    +0.145 HD
ENDBRANCH   1   2
BRANCH   1  15
ATOM     12  C   UNL     1       3.740   1.808  -0.024  0.00  0.00    +0.256 A 
ATOM     13  N   UNL     1       4.123   3.065  -0.016  0.00  0.00    -0.106 NA
ATOM     14  N   UNL     1       5.408   3.119  -0.030  0.00  0.00    -0.100 NA
ATOM     15  C   UNL     1       5.898   1.903  -0.048  0.00  0.00    +0.284 A 
ATOM     16  O   UNL     1       4.857   1.047  -0.039  0.00  0.00    -0.410 OA
BRANCH  12  19
ATOM     17  C   UNL     1      -0.016   1.354   0.009  0.00  0.00    +0.008 A 
ATOM     18  C   UNL     1       1.175   2.043   0.002  0.00  0.00    +0.021 A 
ATOM     19  C   UNL     1       2.353   1.321  -0.013  0.00  0.00    +0.076 A 
ATOM     20  S   UNL     1       1.751  -0.360  -0.017  0.00  0.00    -0.092 S 
ATOM     21  C   UNL     1       0.002  -0.004   0.002  0.00  0.00    +0.046 A 
ENDBRANCH  12  19
ENDBRANCH   1  15
TORSDOF 3
