REMARK  Name = ZINC16000410
REMARK  1 active torsions:
REMARK  status: ('A' for Active; 'I' for Inactive)
REMARK    1  A    between atoms: C_6  and  N_7
REMARK                            x       y       z     vdW  Elec       q    Type
REMARK                         _______ _______ _______ _____ _____    ______ ____
ROOT
ATOM      1  N   UNL     1      -1.203  -0.723   0.010  0.00  0.00    -0.210 N 
ATOM      2  C   UNL     1      -2.435  -0.133   0.019  0.00  0.00    +0.232 C 
ATOM      3  O   UNL     1      -2.696   1.020  -0.251  0.00  0.00    -0.274 OA
ATOM      4  C   UNL     1      -3.401  -1.210   0.432  0.00  0.00    +0.107 C 
ATOM      5  C   UNL     1      -4.737  -1.338  -0.310  0.00  0.00    +0.071 C 
ATOM      6  C   UNL     1      -5.859  -0.698   0.523  0.00  0.00    +0.021 C 
ATOM      7  C   UNL     1      -6.751  -1.871   0.987  0.00  0.00    +0.017 C 
ATOM      8  C   UNL     1      -5.792  -3.085   0.912  0.00  0.00    +0.086 C 
ATOM      9  N   UNL     1      -4.969  -2.825  -0.317  0.00  0.00    -0.281 NA
ATOM     10  C   UNL     1      -3.635  -3.486  -0.241  0.00  0.00    +0.138 C 
ATOM     11  C   UNL     1      -2.649  -2.392  -0.303  0.00  0.00    +0.123 C 
ATOM     12  C   UNL     1      -1.270  -2.094   0.003  0.00  0.00    +0.233 C 
ATOM     13  O   UNL     1      -0.371  -2.881   0.210  0.00  0.00    -0.274 OA
ATOM     14  C   UNL     1      -3.506  -4.319   1.006  0.00  0.00    +0.006 A 
ATOM     15  C   UNL     1      -3.449  -4.017   2.350  0.00  0.00    +0.046 A 
ATOM     16  C   UNL     1      -3.329  -5.028   3.289  0.00  0.00    +0.124 A 
ATOM     17  C   UNL     1      -3.251  -6.347   2.874  0.00  0.00    +0.040 A 
ATOM     18  C   UNL     1      -3.284  -6.653   1.530  0.00  0.00    +0.026 A 
ATOM     19  C   UNL     1      -3.401  -5.640   0.581  0.00  0.00    +0.039 A 
ATOM     20  N   UNL     1      -3.420  -5.700  -0.815  0.00  0.00    -0.283 N 
ATOM     21  C   UNL     1      -3.533  -4.484  -1.374  0.00  0.00    +0.243 C 
ATOM     22  O   UNL     1      -3.550  -4.233  -2.561  0.00  0.00    -0.273 OA
ATOM     23  F   UNL     1      -3.286  -4.728   4.605  0.00  0.00    -0.205 F 
ATOM     24  H   UNL     1      -3.358  -6.526  -1.321  0.00  0.00    +0.155 HD
ENDROOT
BRANCH   1  30
ATOM     25  C   UNL     1      -0.017   1.384   0.010  0.00  0.00    +0.027 A 
ATOM     26  C   UNL     1       1.170   2.090   0.002  0.00  0.00    +0.041 A 
ATOM     27  C   UNL     1       2.379   1.415  -0.013  0.00  0.00    +0.142 A 
ATOM     28  C   UNL     1       2.400   0.029  -0.021  0.00  0.00    +0.078 A 
ATOM     29  C   UNL     1       1.214  -0.680  -0.013  0.00  0.00    +0.046 A 
ATOM     30  C   UNL     1       0.002  -0.004   0.002  0.00  0.00    +0.045 A 
ATOM     31 CL   UNL     1       3.917  -0.815  -0.040  0.00  0.00    -0.081 Cl
ATOM     32  F   UNL     1       3.539   2.108  -0.021  0.00  0.00    -0.204 F 
ENDBRANCH   1  30
TORSDOF 1
