REMARK  Name = ZINC66925080
REMARK  8 active torsions:
REMARK  status: ('A' for Active; 'I' for Inactive)
REMARK    1  A    between atoms: C_1  and  O_2
REMARK    2  A    between atoms: O_2  and  C_3
REMARK    3  A    between atoms: N_5  and  C_6
REMARK    4  A    between atoms: C_9  and  C_12
REMARK    5  A    between atoms: C_12  and  N_13
REMARK    6  A    between atoms: N_16  and  C_17
REMARK    7  A    between atoms: C_17  and  C_18
REMARK    8  A    between atoms: C_18  and  O_28
REMARK                            x       y       z     vdW  Elec       q    Type
REMARK                         _______ _______ _______ _____ _____    ______ ____
ROOT
ATOM      1  N   UNL     1      -6.701  -4.634  -1.733  0.00  0.00    -0.295 N 
ATOM      2  C   UNL     1      -7.878  -5.207  -2.055  0.00  0.00    +0.300 C 
ATOM      3  O   UNL     1      -8.652  -5.539  -1.179  0.00  0.00    -0.253 OA
ATOM      4  N   UNL     1      -8.195  -5.414  -3.349  0.00  0.00    -0.296 N 
ATOM      5  H   UNL     1      -6.083  -4.369  -2.433  0.00  0.00    +0.151 HD
ATOM      6  H   UNL     1      -7.577  -5.149  -4.048  0.00  0.00    +0.150 HD
ENDROOT
BRANCH   1   7
ATOM      7  C   UNL     1      -6.356  -4.410  -0.327  0.00  0.00    +0.141 C 
BRANCH   7  11
ATOM      8  C   UNL     1      -2.508  -2.567  -0.080  0.00  0.00    +0.036 A 
ATOM      9  C   UNL     1      -3.651  -1.782  -0.167  0.00  0.00    +0.024 A 
ATOM     10  C   UNL     1      -4.893  -2.381  -0.247  0.00  0.00    +0.007 A 
ATOM     11  C   UNL     1      -4.999  -3.760  -0.240  0.00  0.00    -0.030 A 
ATOM     12  C   UNL     1      -3.863  -4.543  -0.154  0.00  0.00    +0.007 A 
ATOM     13  C   UNL     1      -2.618  -3.951  -0.080  0.00  0.00    +0.024 A 
BRANCH   8  16
ATOM     14  C   UNL     1      -0.186  -2.538  -0.597  0.00  0.00    +0.404 C 
ATOM     15  O   UNL     1      -0.304  -3.620  -1.135  0.00  0.00    -0.226 OA
ATOM     16  N   UNL     1      -1.248  -1.963   0.001  0.00  0.00    -0.251 N 
ATOM     17  H   UNL     1      -1.139  -1.131   0.488  0.00  0.00    +0.158 HD
BRANCH  14  19
ATOM     18  C   UNL     1       2.088  -2.579  -1.251  0.00  0.00    +0.282 C 
ATOM     19  O   UNL     1       1.006  -1.911  -0.598  0.00  0.00    -0.453 OA
ENDBRANCH  14  19
ENDBRANCH   8  16
ENDBRANCH   7  11
ENDBRANCH   1   7
BRANCH   4  20
ATOM     20  C   UNL     1      -9.473  -6.037  -3.699  0.00  0.00    +0.145 C 
BRANCH  20  21
ATOM     21  C   UNL     1      -9.531  -6.268  -5.211  0.00  0.00    +0.107 C 
ATOM     22  C   UNL     1      -9.372  -4.930  -5.930  0.00  0.00    +0.041 C 
ATOM     23  C   UNL     1      -9.650  -5.147  -7.423  0.00  0.00    +0.008 C 
ATOM     24  C   UNL     1     -11.140  -5.430  -7.599  0.00  0.00    +0.035 C 
ATOM     25  C   UNL     1     -11.586  -6.525  -6.664  0.00  0.00    -0.041 A 
ATOM     26  C   UNL     1     -10.849  -6.907  -5.565  0.00  0.00    -0.011 A 
ATOM     27  C   UNL     1     -11.319  -7.919  -4.740  0.00  0.00    +0.007 A 
ATOM     28  C   UNL     1     -12.517  -8.547  -5.014  0.00  0.00    +0.000 A 
ATOM     29  C   UNL     1     -13.255  -8.167  -6.119  0.00  0.00    +0.000 A 
ATOM     30  C   UNL     1     -12.790  -7.160  -6.939  0.00  0.00    +0.004 A 
BRANCH  21  31
ATOM     31  O   UNL     1      -8.466  -7.139  -5.596  0.00  0.00    -0.382 OA
ATOM     32  H   UNL     1      -8.496  -8.007  -5.171  0.00  0.00    +0.211 HD
ENDBRANCH  21  31
ENDBRANCH  20  21
ENDBRANCH   4  20
TORSDOF 7
