REMARK  Name = ZINC22321380
REMARK  12 active torsions:
REMARK  status: ('A' for Active; 'I' for Inactive)
REMARK    1  A    between atoms: C_1  and  C_2
REMARK    2  A    between atoms: C_5  and  S_8
REMARK    3  A    between atoms: S_8  and  N_11
REMARK    4  A    between atoms: N_11  and  C_12
REMARK    5  A    between atoms: N_11  and  C_30
REMARK    6  A    between atoms: C_12  and  C_13
REMARK    7  A    between atoms: N_15  and  C_16
REMARK    8  A    between atoms: C_19  and  C_28
REMARK    9  A    between atoms: C_19  and  C_29
REMARK   10  A    between atoms: C_25  and  C_27
REMARK   11  A    between atoms: C_34  and  O_36
REMARK   12  A    between atoms: O_36  and  C_37
REMARK                            x       y       z     vdW  Elec       q    Type
REMARK                         _______ _______ _______ _____ _____    ______ ____
ROOT
ATOM      1  N   UNL     1      -0.445   2.338  -0.022  0.00  0.00    -0.194 N 
ENDROOT
BRANCH   1   2
ATOM      2  C   UNL     1       0.211   3.470  -0.510  0.00  0.00    +0.055 A 
ATOM      3  C   UNL     1       0.998   3.379  -1.653  0.00  0.00    +0.025 A 
ATOM      4  C   UNL     1       1.647   4.499  -2.136  0.00  0.00    +0.005 A 
ATOM      5  C   UNL     1       1.516   5.711  -1.486  0.00  0.00    +0.046 A 
ATOM      6  C   UNL     1       0.732   5.808  -0.344  0.00  0.00    +0.122 A 
ATOM      7  C   UNL     1       0.075   4.688   0.141  0.00  0.00    +0.070 A 
BRANCH   6   8
ATOM      8  O   UNL     1       0.605   7.001   0.294  0.00  0.00    -0.495 OA
ATOM      9  C   UNL     1       1.306   8.114  -0.265  0.00  0.00    +0.277 C 
ENDBRANCH   6   8
ENDBRANCH   1   2
BRANCH   1  10
ATOM     10  S   UNL     1       0.168   0.830  -0.325  0.00  0.00    +0.075 S 
ATOM     11  O   UNL     1       1.545   1.004  -0.627  0.00  0.00    -0.150 OA
ATOM     12  O   UNL     1      -0.281  -0.010   0.730  0.00  0.00    -0.150 OA
BRANCH  10  17
ATOM     13  C   UNL     1      -2.462  -1.183  -5.369  0.00  0.00    +0.044 C 
ATOM     14  C   UNL     1      -1.805  -0.681  -4.109  0.00  0.00    -0.050 A 
ATOM     15  C   UNL     1      -0.562  -0.077  -4.170  0.00  0.00    +0.005 A 
ATOM     16  C   UNL     1       0.040   0.384  -3.015  0.00  0.00    +0.029 A 
ATOM     17  C   UNL     1      -0.600   0.242  -1.798  0.00  0.00    +0.109 A 
ATOM     18  C   UNL     1      -1.840  -0.366  -1.736  0.00  0.00    +0.029 A 
ATOM     19  C   UNL     1      -2.444  -0.824  -2.892  0.00  0.00    +0.005 A 
ENDBRANCH  10  17
ENDBRANCH   1  10
BRANCH   1  20
ATOM     20  C   UNL     1      -1.680   2.485   0.753  0.00  0.00    +0.227 C 
BRANCH  20  21
ATOM     21  C   UNL     1      -1.338   2.692   2.207  0.00  0.00    +0.233 C 
ATOM     22  O   UNL     1      -0.178   2.764   2.553  0.00  0.00    -0.274 OA
ATOM     23  N   UNL     1      -2.322   2.797   3.122  0.00  0.00    -0.307 N 
ATOM     24  H   UNL     1      -3.370   2.650   2.821  0.00  0.00    +0.149 HD
BRANCH  23  25
ATOM     25  C   UNL     1      -1.996   3.107   4.516  0.00  0.00    +0.110 C 
ATOM     26  C   UNL     1      -3.154   3.882   5.149  0.00  0.00    +0.074 C 
ATOM     27  C   UNL     1      -2.925   3.937   6.665  0.00  0.00    +0.107 C 
ATOM     28  O   UNL     1      -2.996   2.606   7.179  0.00  0.00    -0.486 OA
ATOM     29  C   UNL     1      -2.269   1.644   6.553  0.00  0.00    +0.126 A 
ATOM     30  C   UNL     1      -1.768   1.825   5.275  0.00  0.00    +0.015 A 
ATOM     31  C   UNL     1      -1.040   0.814   4.671  0.00  0.00    +0.009 A 
ATOM     32  C   UNL     1      -0.809  -0.374   5.339  0.00  0.00    +0.004 A 
ATOM     33  C   UNL     1      -1.306  -0.556   6.616  0.00  0.00    -0.047 A 
ATOM     34  C   UNL     1      -2.033   0.449   7.223  0.00  0.00    +0.049 A 
ATOM     35  C   UNL     1      -1.053  -1.850   7.346  0.00  0.00    +0.044 C 
ATOM     36  C   UNL     1      -4.006   4.799   7.319  0.00  0.00    +0.055 C 
ATOM     37  C   UNL     1      -1.546   4.530   6.959  0.00  0.00    +0.055 C 
ENDBRANCH  23  25
ENDBRANCH  20  21
ENDBRANCH   1  20
TORSDOF 7
