REMARK  Name = ZINC33744824
REMARK  14 active torsions:
REMARK  status: ('A' for Active; 'I' for Inactive)
REMARK    1  A    between atoms: C_1  and  C_2
REMARK    2  A    between atoms: C_2  and  O_3
REMARK    3  A    between atoms: O_3  and  C_4
REMARK    4  A    between atoms: C_4  and  C_6
REMARK    5  A    between atoms: C_7  and  C_37
REMARK    6  A    between atoms: C_14  and  C_15
REMARK    7  A    between atoms: C_18  and  O_23
REMARK    8  A    between atoms: C_20  and  O_21
REMARK    9  A    between atoms: O_21  and  C_22
REMARK   10  A    between atoms: O_23  and  C_24
REMARK   11  A    between atoms: C_26  and  C_28
REMARK   12  A    between atoms: C_31  and  C_34
REMARK   13  A    between atoms: C_34  and  C_35
REMARK   14  A    between atoms: C_34  and  C_36
REMARK                            x       y       z     vdW  Elec       q    Type
REMARK                         _______ _______ _______ _____ _____    ______ ____
ROOT
ATOM      1  C   UNL     1       2.555  -1.770  -1.799  0.00  0.00    +0.085 C 
ATOM      2  C   UNL     1       2.809  -3.113  -1.822  0.00  0.00    +0.053 C 
ATOM      3  N   UNL     1       3.290  -3.690  -2.916  0.00  0.00    -0.228 NA
ATOM      4  C   UNL     1       3.558  -3.064  -4.034  0.00  0.00    +0.178 A 
ATOM      5  N   UNL     1       3.376  -1.714  -4.224  0.00  0.00    -0.275 N 
ATOM      6  C   UNL     1       3.688  -1.185  -5.415  0.00  0.00    +0.268 A 
ATOM      7  O   UNL     1       3.543   0.005  -5.629  0.00  0.00    -0.266 OA
ATOM      8  C   UNL     1       4.208  -2.081  -6.453  0.00  0.00    +0.081 A 
ATOM      9  C   UNL     1       4.593  -1.798  -7.726  0.00  0.00    +0.032 C 
ATOM     10  S   UNL     1       4.199  -3.646  -5.592  0.00  0.00    -0.046 S 
ATOM     11  C   UNL     1       2.832  -0.972  -3.052  0.00  0.00    +0.162 C 
ATOM     12  C   UNL     1       2.541  -3.945  -0.595  0.00  0.00    +0.066 C 
ENDROOT
BRANCH   9  13
ATOM     13  C   UNL     1       5.279  -2.815  -8.528  0.00  0.00    +0.018 A 
ATOM     14  C   UNL     1       5.900  -3.904  -7.903  0.00  0.00    +0.015 A 
ATOM     15  C   UNL     1       6.539  -4.850  -8.652  0.00  0.00    +0.046 A 
ATOM     16  C   UNL     1       6.578  -4.741 -10.039  0.00  0.00    +0.124 A 
ATOM     17  C   UNL     1       5.968  -3.669 -10.676  0.00  0.00    +0.091 A 
ATOM     18  C   UNL     1       5.312  -2.706  -9.930  0.00  0.00    +0.131 A 
BRANCH  18  19
ATOM     19  O   UNL     1       4.709  -1.658 -10.547  0.00  0.00    -0.494 OA
ATOM     20  C   UNL     1       4.784  -1.615 -11.974  0.00  0.00    +0.277 C 
ENDBRANCH  18  19
BRANCH  16  21
ATOM     21  O   UNL     1       7.216  -5.688 -10.773  0.00  0.00    -0.495 OA
ATOM     22  C   UNL     1       7.823  -6.765 -10.056  0.00  0.00    +0.277 C 
ENDBRANCH  16  21
ENDBRANCH   9  13
BRANCH  11  23
ATOM     23  C   UNL     1       3.815   0.116  -2.702  0.00  0.00    -0.020 A 
ATOM     24  C   UNL     1       5.164  -0.174  -2.612  0.00  0.00    +0.006 A 
ATOM     25  C   UNL     1       6.065   0.824  -2.290  0.00  0.00    +0.004 A 
ATOM     26  C   UNL     1       5.618   2.111  -2.058  0.00  0.00    -0.045 A 
ATOM     27  C   UNL     1       4.269   2.401  -2.149  0.00  0.00    +0.004 A 
ATOM     28  C   UNL     1       3.368   1.404  -2.475  0.00  0.00    +0.006 A 
BRANCH  26  29
ATOM     29  C   UNL     1       6.600   3.198  -1.707  0.00  0.00    +0.013 C 
ATOM     30  C   UNL     1       6.530   4.308  -2.758  0.00  0.00    +0.012 C 
ATOM     31  C   UNL     1       6.252   3.775  -0.333  0.00  0.00    +0.012 C 
ENDBRANCH  26  29
ENDBRANCH  11  23
BRANCH   1  32
ATOM     32  C   UNL     1       2.046  -1.150  -0.646  0.00  0.00    +0.339 C 
ATOM     33  O   UNL     1       1.701  -1.826   0.306  0.00  0.00    -0.245 OA
BRANCH  32  34
ATOM     34  O   UNL     1       1.940   0.195  -0.593  0.00  0.00    -0.462 OA
BRANCH  34  36
ATOM     35  C   UNL     1       1.369   2.282   0.484  0.00  0.00    +0.048 C 
ATOM     36  C   UNL     1       1.414   0.758   0.611  0.00  0.00    +0.229 C 
ENDBRANCH  34  36
ENDBRANCH  32  34
ENDBRANCH   1  32
TORSDOF 8
