REMARK  Name = ZINC12037146
REMARK  10 active torsions:
REMARK  status: ('A' for Active; 'I' for Inactive)
REMARK    1  A    between atoms: C_1  and  C_2
REMARK    2  A    between atoms: C_2  and  O_3
REMARK    3  A    between atoms: O_3  and  C_4
REMARK    4  A    between atoms: C_4  and  C_6
REMARK    5  A    between atoms: C_12  and  C_13
REMARK    6  A    between atoms: C_12  and  N_68
REMARK    7  A    between atoms: C_17  and  O_19
REMARK    8  A    between atoms: O_19  and  C_20
REMARK    9  A    between atoms: N_23  and  S_26
REMARK   10  A    between atoms: S_26  and  C_29
REMARK                            x       y       z     vdW  Elec       q    Type
REMARK                         _______ _______ _______ _____ _____    ______ ____
ROOT
ATOM      1  C   UNL     1      -1.449  -2.740   0.880  0.00  0.00    -0.060 A 
ATOM      2  C   UNL     1      -0.308  -3.521   0.876  0.00  0.00    +0.002 A 
ATOM      3  C   UNL     1       0.930  -2.941   1.086  0.00  0.00    +0.004 A 
ATOM      4  C   UNL     1       1.029  -1.578   1.293  0.00  0.00    +0.045 A 
ATOM      5  C   UNL     1      -0.115  -0.794   1.303  0.00  0.00    +0.121 A 
ATOM      6  C   UNL     1      -1.356  -1.379   1.093  0.00  0.00    +0.047 A 
ENDROOT
BRANCH   1   7
ATOM      7  C   UNL     1      -2.796  -3.376   0.652  0.00  0.00    -0.042 C 
BRANCH   7  13
ATOM      8  C   UNL     1      -4.543  -3.514  -1.018  0.00  0.00    +0.043 C 
ATOM      9  C   UNL     1      -4.836  -3.366  -2.513  0.00  0.00    -0.004 C 
ATOM     10  C   UNL     1      -4.072  -4.445  -3.287  0.00  0.00    -0.003 C 
ATOM     11  C   UNL     1      -2.576  -4.312  -2.988  0.00  0.00    -0.019 C 
ATOM     12  C   UNL     1      -2.349  -4.432  -1.480  0.00  0.00    -0.077 C 
ATOM     13  N   UNL     1      -3.091  -3.352  -0.796  0.00  0.00    +0.391 N 
ATOM     14  H   UNL     1      -2.793  -2.447  -1.181  0.00  0.00    -0.080 HD
BRANCH   8  15
ATOM     15  C   UNL     1      -5.278  -2.442  -0.255  0.00  0.00    +0.293 C 
ATOM     16  O   UNL     1      -4.747  -1.376  -0.048  0.00  0.00    -0.253 OA
BRANCH  15  17
ATOM     17  O   UNL     1      -6.521  -2.671   0.194  0.00  0.00    -0.466 OA
BRANCH  17  19
ATOM     18  C   UNL     1      -8.568  -2.036   1.351  0.00  0.00    +0.048 C 
ATOM     19  C   UNL     1      -7.168  -1.593   0.921  0.00  0.00    +0.228 C 
ENDBRANCH  17  19
ENDBRANCH  15  17
ENDBRANCH   8  15
ENDBRANCH   7  13
ENDBRANCH   1   7
BRANCH   5  20
ATOM     20  O   UNL     1      -0.020   0.545   1.513  0.00  0.00    -0.489 OA
BRANCH  20  21
ATOM     21  C   UNL     1       1.291   1.082   1.699  0.00  0.00    +0.176 C 
ATOM     22  C   UNL     1       1.711   0.908   3.160  0.00  0.00    +0.061 C 
ATOM     23  C   UNL     1       3.131   1.452   3.348  0.00  0.00    +0.113 C 
ATOM     24  N   UNL     1       3.171   2.841   2.870  0.00  0.00    -0.176 NA
ATOM     25  C   UNL     1       2.703   3.133   1.508  0.00  0.00    +0.113 C 
ATOM     26  C   UNL     1       1.289   2.570   1.341  0.00  0.00    +0.061 C 
BRANCH  24  27
ATOM     27  S   UNL     1       3.733   4.054   3.848  0.00  0.00    +0.061 S 
ATOM     28  O   UNL     1       4.591   3.442   4.801  0.00  0.00    -0.153 OA
ATOM     29  O   UNL     1       4.170   5.098   2.989  0.00  0.00    -0.153 OA
BRANCH  27  30
ATOM     30  C   UNL     1       2.352   4.682   4.743  0.00  0.00    +0.107 A 
ATOM     31  C   UNL     1       1.611   5.729   4.226  0.00  0.00    +0.028 A 
ATOM     32  C   UNL     1       0.525   6.220   4.926  0.00  0.00    +0.003 A 
ATOM     33  C   UNL     1       0.185   5.671   6.149  0.00  0.00    +0.020 A 
ATOM     34  C   UNL     1       0.929   4.627   6.669  0.00  0.00    +0.043 A 
ATOM     35  C   UNL     1       2.013   4.133   5.965  0.00  0.00    +0.048 A 
ATOM     36 CL   UNL     1       0.503   3.938   8.204  0.00  0.00    -0.083 Cl
ENDBRANCH  27  30
ENDBRANCH  24  27
ENDBRANCH  20  21
ENDBRANCH   5  20
TORSDOF 9
