REMARK  Name = ZINC33936807
REMARK  11 active torsions:
REMARK  status: ('A' for Active; 'I' for Inactive)
REMARK    1  A    between atoms: C_1  and  C_2
REMARK    2  A    between atoms: C_2  and  C_3
REMARK    3  A    between atoms: C_10  and  C_15
REMARK    4  A    between atoms: C_15  and  C_17
REMARK    5  A    between atoms: C_15  and  N_29
REMARK    6  A    between atoms: N_21  and  C_22
REMARK    7  A    between atoms: C_22  and  C_23
REMARK    8  A    between atoms: N_29  and  C_30
REMARK    9  A    between atoms: N_29  and  C_37
REMARK   10  A    between atoms: C_30  and  C_31
REMARK   11  A    between atoms: C_37  and  C_38
REMARK                            x       y       z     vdW  Elec       q    Type
REMARK                         _______ _______ _______ _____ _____    ______ ____
ROOT
ATOM      1  C   UNL     1      -5.586  -1.879  -4.257  0.00  0.00    +0.163 C 
ENDROOT
BRANCH   1   9
ATOM      2  C   UNL     1      -1.678  -1.863   0.540  0.00  0.00    -0.047 A 
ATOM      3  C   UNL     1      -1.463  -0.491   0.561  0.00  0.00    +0.005 A 
ATOM      4  C   UNL     1      -2.087   0.333  -0.350  0.00  0.00    +0.026 A 
ATOM      5  C   UNL     1      -2.941  -0.214  -1.303  0.00  0.00    +0.049 A 
ATOM      6  C   UNL     1      -3.157  -1.605  -1.321  0.00  0.00    -0.001 A 
ATOM      7  C   UNL     1      -2.509  -2.422  -0.389  0.00  0.00    +0.013 A 
ATOM      8  C   UNL     1      -4.057  -2.170  -2.327  0.00  0.00    +0.021 A 
ATOM      9  C   UNL     1      -4.654  -1.329  -3.208  0.00  0.00    +0.042 A 
ATOM     10  C   UNL     1      -4.404   0.058  -3.147  0.00  0.00    +0.254 A 
ATOM     11  O   UNL     1      -4.950   0.796  -3.949  0.00  0.00    -0.268 OA
ATOM     12  N   UNL     1      -3.578   0.587  -2.227  0.00  0.00    -0.322 N 
ATOM     13  H   UNL     1      -3.429   1.545  -2.213  0.00  0.00    +0.169 HD
BRANCH   2  15
ATOM     14  C   UNL     1       0.364  -3.196   0.986  0.00  0.00    +0.009 C 
ATOM     15  C   UNL     1      -0.985  -2.743   1.548  0.00  0.00    +0.032 C 
ENDBRANCH   2  15
ENDBRANCH   1   9
BRANCH   1  16
ATOM     16  C   UNL     1      -5.611  -3.383  -4.169  0.00  0.00    +0.173 A 
ATOM     17  N   UNL     1      -6.155  -4.103  -3.218  0.00  0.00    -0.111 NA
ATOM     18  N   UNL     1      -5.967  -5.345  -3.502  0.00  0.00    -0.023 NA
ATOM     19  N   UNL     1      -5.316  -5.437  -4.609  0.00  0.00    -0.044 NA
ATOM     20  N   UNL     1      -5.083  -4.248  -5.054  0.00  0.00    -0.225 N 
BRANCH  20  21
ATOM     21  C   UNL     1      -4.373  -3.906  -6.289  0.00  0.00    +0.179 C 
BRANCH  21  22
ATOM     22  C   UNL     1      -2.878  -3.765  -5.996  0.00  0.00    +0.140 C 
ATOM     23  C   UNL     1      -2.097  -3.491  -7.306  0.00  0.00    +0.035 C 
ATOM     24  C   UNL     1      -0.838  -2.768  -6.753  0.00  0.00    +0.031 C 
ATOM     25  C   UNL     1      -1.412  -1.982  -5.554  0.00  0.00    +0.160 C 
ATOM     26  O   UNL     1      -2.639  -2.616  -5.167  0.00  0.00    -0.375 OA
ENDBRANCH  21  22
ENDBRANCH  20  21
ENDBRANCH   1  16
BRANCH   1  27
ATOM     27  N   UNL     1      -6.940  -1.353  -4.032  0.00  0.00    -0.277 NA
BRANCH  27  28
ATOM     28  C   UNL     1      -7.878  -1.867  -5.040  0.00  0.00    +0.121 C 
BRANCH  28  29
ATOM     29  C   UNL     1      -9.126  -1.022  -5.040  0.00  0.00    -0.033 A 
ATOM     30  C   UNL     1     -10.233  -1.424  -4.316  0.00  0.00    +0.005 A 
ATOM     31  C   UNL     1     -11.378  -0.649  -4.316  0.00  0.00    +0.000 A 
ATOM     32  C   UNL     1     -11.415   0.527  -5.041  0.00  0.00    +0.000 A 
ATOM     33  C   UNL     1     -10.308   0.930  -5.764  0.00  0.00    +0.000 A 
ATOM     34  C   UNL     1      -9.162   0.158  -5.760  0.00  0.00    +0.005 A 
ENDBRANCH  28  29
ENDBRANCH  27  28
BRANCH  27  35
ATOM     35  C   UNL     1      -7.405  -1.661  -2.674  0.00  0.00    +0.160 C 
BRANCH  35  36
ATOM     36  C   UNL     1      -6.942  -0.584  -1.727  0.00  0.00    +0.119 A 
ATOM     37  C   UNL     1      -7.558   0.592  -1.512  0.00  0.00    +0.046 A 
ATOM     38  C   UNL     1      -6.785   1.290  -0.555  0.00  0.00    +0.041 A 
ATOM     39  C   UNL     1      -5.744   0.498  -0.242  0.00  0.00    +0.195 A 
ATOM     40  O   UNL     1      -5.847  -0.638  -0.951  0.00  0.00    -0.467 OA
ENDBRANCH  35  36
ENDBRANCH  27  35
ENDBRANCH   1  27
TORSDOF 10
