REMARK  Name = ZINC10536667
REMARK  9 active torsions:
REMARK  status: ('A' for Active; 'I' for Inactive)
REMARK    1  A    between atoms: C_1  and  C_2
REMARK    2  A    between atoms: C_5  and  N_11
REMARK    3  A    between atoms: C_6  and  N_8
REMARK    4  A    between atoms: C_12  and  C_14
REMARK    5  A    between atoms: C_14  and  S_15
REMARK    6  A    between atoms: S_15  and  C_16
REMARK    7  A    between atoms: N_26  and  C_27
REMARK    8  A    between atoms: C_29  and  C_34
REMARK    9  A    between atoms: C_31  and  C_33
REMARK                            x       y       z     vdW  Elec       q    Type
REMARK                         _______ _______ _______ _____ _____    ______ ____
ROOT
ATOM      1  C   UNL     1      -1.373  -2.161  -0.048  0.00  0.00    +0.177 A 
ATOM      2  N   UNL     1      -1.530  -0.860  -0.058  0.00  0.00    -0.223 NA
ATOM      3  C   UNL     1      -0.470  -0.020  -0.062  0.00  0.00    +0.079 A 
ATOM      4  C   UNL     1      -0.635   1.369  -0.073  0.00  0.00    +0.028 A 
ATOM      5  C   UNL     1       0.465   2.180  -0.077  0.00  0.00    +0.002 A 
ATOM      6  C   UNL     1       1.747   1.647  -0.069  0.00  0.00    +0.001 A 
ATOM      7  C   UNL     1       1.941   0.293  -0.060  0.00  0.00    +0.015 A 
ATOM      8  C   UNL     1       0.837  -0.559  -0.056  0.00  0.00    +0.065 A 
ATOM      9  C   UNL     1       0.985  -2.020  -0.045  0.00  0.00    +0.267 A 
ATOM     10  O   UNL     1       2.084  -2.543  -0.040  0.00  0.00    -0.267 OA
ATOM     11  N   UNL     1      -0.146  -2.764  -0.042  0.00  0.00    -0.255 N 
ENDROOT
BRANCH  11  12
ATOM     12  C   UNL     1      -0.058  -4.162  -0.032  0.00  0.00    +0.052 A 
ATOM     13  C   UNL     1      -0.512  -4.880   1.066  0.00  0.00    +0.029 A 
ATOM     14  C   UNL     1      -0.429  -6.258   1.070  0.00  0.00    -0.048 A 
ATOM     15  C   UNL     1       0.115  -6.923  -0.013  0.00  0.00    +0.006 A 
ATOM     16  C   UNL     1       0.574  -6.211  -1.106  0.00  0.00    -0.048 A 
ATOM     17  C   UNL     1       0.488  -4.832  -1.119  0.00  0.00    +0.029 A 
ATOM     18  C   UNL     1       1.167  -6.939  -2.285  0.00  0.00    +0.044 C 
ATOM     19  C   UNL     1      -0.928  -7.039   2.259  0.00  0.00    +0.044 C 
ENDBRANCH  11  12
BRANCH   1  20
ATOM     20  S   UNL     1      -2.810  -3.181  -0.043  0.00  0.00    -0.078 S 
BRANCH  20  21
ATOM     21  C   UNL     1      -4.098  -1.909  -0.054  0.00  0.00    +0.173 C 
BRANCH  21  23
ATOM     22  N   UNL     1      -6.570  -1.811  -0.059  0.00  0.00    -0.283 N 
ATOM     23  C   UNL     1      -5.454  -2.567  -0.052  0.00  0.00    +0.228 C 
ATOM     24  O   UNL     1      -5.541  -3.777  -0.043  0.00  0.00    -0.275 OA
ATOM     25  H   UNL     1      -6.503  -0.847   0.016  0.00  0.00    +0.155 HD
BRANCH  22  30
ATOM     26  C   UNL     1     -11.659  -4.273  -0.530  0.00  0.00    +0.044 C 
ATOM     27  C   UNL     1     -10.307  -3.619  -0.406  0.00  0.00    -0.048 A 
ATOM     28  C   UNL     1      -9.185  -4.255  -0.903  0.00  0.00    +0.005 A 
ATOM     29  C   UNL     1      -7.944  -3.658  -0.790  0.00  0.00    +0.026 A 
ATOM     30  C   UNL     1      -7.825  -2.418  -0.175  0.00  0.00    +0.064 A 
ATOM     31  C   UNL     1      -8.954  -1.785   0.328  0.00  0.00    +0.148 A 
ATOM     32  C   UNL     1     -10.192  -2.384   0.207  0.00  0.00    +0.038 A 
BRANCH  31  33
ATOM     33  N   UNL     1      -8.830  -0.467   0.989  0.00  0.00    +0.058 N 
ATOM     34  O   UNL     1      -9.804   0.047   1.510  0.00  0.00    -0.126 OA
ATOM     35  O   UNL     1      -7.755   0.105   1.012  0.00  0.00    -0.126 OA
ENDBRANCH  31  33
ENDBRANCH  22  30
ENDBRANCH  21  23
ENDBRANCH  20  21
ENDBRANCH   1  20
TORSDOF 6
