REMARK  Name = ZINC39696119
REMARK  9 active torsions:
REMARK  status: ('A' for Active; 'I' for Inactive)
REMARK    1  A    between atoms: C_1  and  C_2
REMARK    2  A    between atoms: C_2  and  C_3
REMARK    3  A    between atoms: C_6  and  C_9
REMARK    4  A    between atoms: C_9  and  C_11
REMARK    5  A    between atoms: C_9  and  N_12
REMARK    6  A    between atoms: C_13  and  C_15
REMARK    7  A    between atoms: C_26  and  C_28
REMARK    8  A    between atoms: C_28  and  O_29
REMARK    9  A    between atoms: O_29  and  C_30
REMARK                            x       y       z     vdW  Elec       q    Type
REMARK                         _______ _______ _______ _____ _____    ______ ____
ROOT
ATOM      1  C   UNL     1       2.466  -0.464   8.209  0.00  0.00    +0.100 C 
ATOM      2  C   UNL     1       2.249   1.042   7.943  0.00  0.00    +0.121 C 
ATOM      3  N   UNL     1       2.618   1.704   9.217  0.00  0.00    -0.297 N 
ATOM      4  C   UNL     1       3.803   0.951   9.694  0.00  0.00    +0.115 C 
ATOM      5  C   UNL     1       3.487  -0.520   9.358  0.00  0.00    -0.004 C 
ATOM      6  C   UNL     1       4.753  -1.240   8.905  0.00  0.00    -0.010 C 
ATOM      7  C   UNL     1       5.729  -1.335  10.081  0.00  0.00    -0.082 C 
ATOM      8  N   UNL     1       5.097  -2.063  11.188  0.00  0.00    +0.379 N 
ATOM      9  C   UNL     1       3.933  -1.315  11.678  0.00  0.00    -0.082 C 
ATOM     10  C   UNL     1       2.880  -1.220  10.570  0.00  0.00    -0.010 C 
ATOM     11  C   UNL     1       2.012   2.753   9.809  0.00  0.00    +0.253 C 
ATOM     12  O   UNL     1       2.437   3.185  10.859  0.00  0.00    -0.272 OA
ATOM     13  H   UNL     1       4.799  -2.971  10.865  0.00  0.00    -0.086 HD
ATOM     14  H   UNL     1       5.762  -2.177  11.938  0.00  0.00    -0.086 HD
ENDROOT
BRANCH   1  16
ATOM     15  N   UNL     1       2.760  -2.441   6.752  0.00  0.00    -0.308 N 
ATOM     16  C   UNL     1       3.021  -1.139   6.981  0.00  0.00    +0.219 C 
ATOM     17  O   UNL     1       3.702  -0.510   6.199  0.00  0.00    -0.275 OA
ATOM     18  H   UNL     1       2.216  -2.944   7.377  0.00  0.00    +0.149 HD
BRANCH  15  19
ATOM     19  C   UNL     1       3.300  -3.097   5.558  0.00  0.00    +0.100 C 
ATOM     20  C   UNL     1       4.722  -3.583   5.842  0.00  0.00    +0.033 C 
BRANCH  19  24
ATOM     21  C   UNL     1       0.837  -6.432   4.529  0.00  0.00    -0.048 A 
ATOM     22  C   UNL     1       1.349  -5.618   3.535  0.00  0.00    +0.004 A 
ATOM     23  C   UNL     1       2.146  -4.539   3.869  0.00  0.00    +0.006 A 
ATOM     24  C   UNL     1       2.430  -4.273   5.195  0.00  0.00    -0.027 A 
ATOM     25  C   UNL     1       1.917  -5.087   6.188  0.00  0.00    +0.006 A 
ATOM     26  C   UNL     1       1.117  -6.163   5.855  0.00  0.00    +0.004 A 
BRANCH  21  28
ATOM     27  C   UNL     1      -1.496  -7.167   4.120  0.00  0.00    +0.009 C 
ATOM     28  C   UNL     1      -0.032  -7.609   4.166  0.00  0.00    +0.032 C 
ENDBRANCH  21  28
ENDBRANCH  19  24
ENDBRANCH  15  19
ENDBRANCH   1  16
BRANCH  11  29
ATOM     29  C   UNL     1       0.808   3.389   9.164  0.00  0.00    +0.324 C 
BRANCH  29  30
ATOM     30  O   UNL     1       0.350   4.473   9.976  0.00  0.00    -0.483 OA
BRANCH  30  31
ATOM     31  C   UNL     1      -0.737   5.158   9.534  0.00  0.00    +0.123 A 
ATOM     32  C   UNL     1      -1.354   4.792   8.346  0.00  0.00    +0.046 A 
ATOM     33  C   UNL     1      -2.459   5.490   7.899  0.00  0.00    +0.005 A 
ATOM     34  C   UNL     1      -2.951   6.553   8.633  0.00  0.00    +0.020 A 
ATOM     35  C   UNL     1      -2.338   6.921   9.818  0.00  0.00    +0.044 A 
ATOM     36  C   UNL     1      -1.235   6.221  10.272  0.00  0.00    +0.065 A 
ATOM     37 CL   UNL     1      -2.958   8.256  10.737  0.00  0.00    -0.083 Cl
ENDBRANCH  30  31
ENDBRANCH  29  30
ENDBRANCH  11  29
TORSDOF 7
