REMARK  Name = ZINC08824117
REMARK  5 active torsions:
REMARK  status: ('A' for Active; 'I' for Inactive)
REMARK    1  A    between atoms: C_1  and  C_2
REMARK    2  A    between atoms: C_6  and  O_19
REMARK    3  A    between atoms: C_12  and  C_13
REMARK    4  A    between atoms: O_19  and  C_20
REMARK    5  A    between atoms: C_20  and  C_22
REMARK                            x       y       z     vdW  Elec       q    Type
REMARK                         _______ _______ _______ _____ _____    ______ ____
ROOT
ATOM      1  C   UNL     1      -2.567   3.992  -0.021  0.00  0.00    +0.045 C 
ATOM      2  C   UNL     1      -1.262   3.241   0.059  0.00  0.00    -0.025 A 
ATOM      3  C   UNL     1      -0.027   3.939   0.044  0.00  0.00    +0.021 A 
ATOM      4  C   UNL     1      -0.008   5.339  -0.045  0.00  0.00    +0.015 A 
ATOM      5  C   UNL     1       1.182   6.005  -0.059  0.00  0.00    +0.047 A 
ATOM      6  C   UNL     1       2.384   5.303   0.015  0.00  0.00    +0.135 A 
ATOM      7  C   UNL     1       2.385   3.921   0.104  0.00  0.00    +0.093 A 
ATOM      8  C   UNL     1       1.184   3.226   0.119  0.00  0.00    +0.143 A 
ATOM      9  O   UNL     1       1.185   1.878   0.205  0.00  0.00    -0.422 OA
ATOM     10  C   UNL     1       0.038   1.180   0.222  0.00  0.00    +0.345 A 
ATOM     11  O   UNL     1       0.067  -0.035   0.301  0.00  0.00    -0.244 OA
ATOM     12  C   UNL     1      -1.249   1.875   0.140  0.00  0.00    +0.070 A 
ENDROOT
BRANCH  12  13
ATOM     13  C   UNL     1      -2.519   1.111   0.152  0.00  0.00    -0.011 A 
ATOM     14  C   UNL     1      -3.352   1.120  -0.967  0.00  0.00    +0.009 A 
ATOM     15  C   UNL     1      -4.530   0.403  -0.951  0.00  0.00    +0.001 A 
ATOM     16  C   UNL     1      -4.891  -0.316   0.174  0.00  0.00    +0.000 A 
ATOM     17  C   UNL     1      -4.072  -0.325   1.288  0.00  0.00    +0.001 A 
ATOM     18  C   UNL     1      -2.888   0.384   1.283  0.00  0.00    +0.009 A 
ENDBRANCH  12  13
BRANCH   6  19
ATOM     19  O   UNL     1       3.561   5.979  -0.001  0.00  0.00    -0.422 OA
BRANCH  19  20
ATOM     20  C   UNL     1       4.331   5.841  -1.097  0.00  0.00    +0.346 C 
ATOM     21  O   UNL     1       3.917   5.222  -2.057  0.00  0.00    -0.244 OA
BRANCH  20  22
ATOM     22  C   UNL     1       5.680   6.441  -1.133  0.00  0.00    +0.073 A 
ATOM     23  C   UNL     1       6.158   7.158  -0.034  0.00  0.00    +0.016 A 
ATOM     24  C   UNL     1       7.420   7.712  -0.071  0.00  0.00    +0.001 A 
ATOM     25  C   UNL     1       8.210   7.568  -1.200  0.00  0.00    +0.001 A 
ATOM     26  C   UNL     1       7.741   6.865  -2.294  0.00  0.00    +0.016 A 
ATOM     27  C   UNL     1       6.481   6.300  -2.269  0.00  0.00    +0.032 A 
ATOM     28 BR   UNL     1       5.843   5.339  -3.767  0.00  0.00    -0.049 Br
ENDBRANCH  20  22
ENDBRANCH  19  20
ENDBRANCH   6  19
TORSDOF 4
