REMARK  Name = ZINC63384720
REMARK  10 active torsions:
REMARK  status: ('A' for Active; 'I' for Inactive)
REMARK    1  A    between atoms: C_1  and  C_2
REMARK    2  A    between atoms: C_13  and  C_15
REMARK    3  A    between atoms: C_15  and  C_16
REMARK    4  A    between atoms: N_18  and  C_19
REMARK    5  A    between atoms: C_19  and  C_20
REMARK    6  A    between atoms: C_20  and  C_21
REMARK    7  A    between atoms: C_24  and  O_30
REMARK    8  A    between atoms: O_30  and  C_31
REMARK    9  A    between atoms: C_33  and  C_36
REMARK   10  A    between atoms: C_33  and  C_37
REMARK                            x       y       z     vdW  Elec       q    Type
REMARK                         _______ _______ _______ _____ _____    ______ ____
ROOT
ATOM      1  C   UNL     1       2.020   0.301   1.455  0.00  0.00    +0.111 C 
ENDROOT
BRANCH   1  13
ATOM      2  C   UNL     1      -0.019   1.526   0.010  0.00  0.00    +0.013 C 
ATOM      3  C   UNL     1       0.002  -0.004   0.002  0.00  0.00    +0.034 C 
ATOM      4  C   UNL     1       0.705  -0.489  -1.241  0.00  0.00    -0.001 A 
ATOM      5  C   UNL     1       0.472   0.176  -2.434  0.00  0.00    +0.014 A 
ATOM      6  C   UNL     1       1.087  -0.234  -3.603  0.00  0.00    -0.005 A 
ATOM      7  C   UNL     1       1.947  -1.320  -3.585  0.00  0.00    +0.128 A 
ATOM      8  C   UNL     1       2.182  -1.988  -2.391  0.00  0.00    +0.092 A 
ATOM      9  C   UNL     1       1.565  -1.573  -1.218  0.00  0.00    +0.139 A 
ATOM     10  O   UNL     1       1.839  -2.247  -0.068  0.00  0.00    -0.425 OA
ATOM     11  C   UNL     1       1.084  -1.967   1.013  0.00  0.00    +0.316 C 
ATOM     12  O   UNL     1       0.703  -2.836   1.761  0.00  0.00    -0.250 OA
ATOM     13  C   UNL     1       0.740  -0.510   1.246  0.00  0.00    +0.114 C 
ATOM     14  O   UNL     1       2.578  -1.753  -4.707  0.00  0.00    -0.486 OA
ATOM     15  C   UNL     1       2.066  -1.321  -5.969  0.00  0.00    +0.105 C 
ATOM     16  C   UNL     1       1.877   0.201  -5.918  0.00  0.00    +0.052 C 
ATOM     17  C   UNL     1       0.799   0.517  -4.878  0.00  0.00    +0.042 C 
ATOM     18  C   UNL     1       0.721  -1.999  -6.239  0.00  0.00    +0.055 C 
ATOM     19  C   UNL     1       3.057  -1.681  -7.077  0.00  0.00    +0.055 C 
ENDBRANCH   1  13
BRANCH   1  20
ATOM     20  C   UNL     1       2.675  -0.120   2.745  0.00  0.00    +0.214 C 
ATOM     21  O   UNL     1       2.168  -0.983   3.430  0.00  0.00    -0.276 OA
ATOM     22  N   UNL     1       3.825   0.463   3.139  0.00  0.00    -0.315 N 
ATOM     23  H   UNL     1       4.231   1.153   2.591  0.00  0.00    +0.149 HD
BRANCH  22  24
ATOM     24  C   UNL     1       4.462   0.054   4.393  0.00  0.00    +0.108 C 
BRANCH  24  25
ATOM     25  C   UNL     1       5.743   0.865   4.602  0.00  0.00    +0.052 C 
BRANCH  25  26
ATOM     26  C   UNL     1       6.398   0.445   5.893  0.00  0.00    -0.040 C 
ATOM     27  C   UNL     1       7.386  -0.466   6.044  0.00  0.00    +0.002 A 
ATOM     28  C   UNL     1       8.118  -1.307   5.091  0.00  0.00    +0.055 A 
ATOM     29  C   UNL     1       9.080  -2.147   5.544  0.00  0.00    +0.121 A 
ATOM     30  C   UNL     1       9.407  -2.247   6.907  0.00  0.00    +0.047 A 
ATOM     31  C   UNL     1       8.789  -1.515   7.859  0.00  0.00    +0.029 A 
ATOM     32  C   UNL     1       7.732  -0.572   7.480  0.00  0.00    +0.043 A 
ATOM     33  N   UNL     1       6.988   0.241   8.188  0.00  0.00    -0.380 N 
ATOM     34  C   UNL     1       6.088   0.961   7.280  0.00  0.00    +0.144 C 
ATOM     35  H   UNL     1       7.028   0.351   9.151  0.00  0.00    +0.160 HD
BRANCH  29  36
ATOM     36  O   UNL     1       9.750  -2.921   4.650  0.00  0.00    -0.495 OA
ATOM     37  C   UNL     1      10.755  -3.792   5.171  0.00  0.00    +0.277 C 
ENDBRANCH  29  36
ENDBRANCH  25  26
ENDBRANCH  24  25
ENDBRANCH  22  24
ENDBRANCH   1  20
TORSDOF 6
