REMARK  Name = ZINC21576621
REMARK  8 active torsions:
REMARK  status: ('A' for Active; 'I' for Inactive)
REMARK    1  A    between atoms: C_1  and  C_2
REMARK    2  A    between atoms: C_2  and  C_3
REMARK    3  A    between atoms: C_3  and  C_4
REMARK    4  A    between atoms: N_9  and  C_12
REMARK    5  A    between atoms: C_17  and  N_18
REMARK    6  A    between atoms: C_19  and  C_21
REMARK    7  A    between atoms: C_22  and  C_23
REMARK    8  A    between atoms: C_26  and  C_28
REMARK                            x       y       z     vdW  Elec       q    Type
REMARK                         _______ _______ _______ _____ _____    ______ ____
ROOT
ATOM      1  C   UNL     1      -0.007   1.377  -0.006  0.00  0.00    +0.051 A 
ATOM      2  C   UNL     1       0.018  -0.009  -0.022  0.00  0.00    +0.026 A 
ATOM      3  C   UNL     1       1.227  -0.679  -0.041  0.00  0.00    +0.022 A 
ATOM      4  C   UNL     1       2.415   0.031  -0.043  0.00  0.00    +0.043 A 
ATOM      5  C   UNL     1       2.399   1.414  -0.026  0.00  0.00    +0.045 A 
ATOM      6  C   UNL     1       1.190   2.093  -0.007  0.00  0.00    +0.056 A 
ATOM      7 CL   UNL     1       3.930  -0.817  -0.067  0.00  0.00    -0.083 Cl
ENDROOT
BRANCH   1  13
ATOM      8  C   UNL     1      -5.301   2.216   0.093  0.00  0.00    +0.216 C 
ATOM      9  O   UNL     1      -5.917   2.070  -0.942  0.00  0.00    -0.276 OA
ATOM     10  N   UNL     1      -3.983   2.494   0.058  0.00  0.00    -0.298 N 
ATOM     11  C   UNL     1      -3.272   2.622  -1.223  0.00  0.00    +0.126 C 
ATOM     12  C   UNL     1      -2.028   1.728  -1.182  0.00  0.00    +0.124 C 
ATOM     13  N   UNL     1      -1.231   2.057   0.007  0.00  0.00    -0.325 N 
ATOM     14  C   UNL     1      -1.975   1.778   1.242  0.00  0.00    +0.124 C 
ATOM     15  C   UNL     1      -3.216   2.675   1.300  0.00  0.00    +0.126 C 
BRANCH   8  16
ATOM     16  C   UNL     1      -6.010   2.089   1.417  0.00  0.00    +0.096 C 
BRANCH  16  18
ATOM     17  C   UNL     1      -8.207   1.644   2.520  0.00  0.00    +0.004 C 
ATOM     18  C   UNL     1      -7.487   1.773   1.176  0.00  0.00    +0.006 C 
ENDBRANCH  16  18
ENDBRANCH   8  16
ENDBRANCH   1  13
BRANCH   6  19
ATOM     19  N   UNL     1       1.171   3.493   0.009  0.00  0.00    -0.280 N 
ATOM     20  C   UNL     1       2.128   4.172   0.673  0.00  0.00    +0.241 C 
ATOM     21  O   UNL     1       3.054   3.572   1.189  0.00  0.00    -0.270 OA
ATOM     22  H   UNL     1       0.376   4.039  -0.519  0.00  0.00    +0.155 HD
BRANCH  20  23
ATOM     23  C   UNL     1       2.057   5.581   0.769  0.00  0.00    +0.071 C 
ATOM     24  C   UNL     1       3.021   6.266   1.438  0.00  0.00    +0.051 C 
BRANCH  24  25
ATOM     25  C   UNL     1       2.950   7.674   1.535  0.00  0.00    +0.129 A 
ATOM     26  C   UNL     1       3.856   8.488   2.187  0.00  0.00    +0.050 A 
ATOM     27  C   UNL     1       3.406   9.801   2.031  0.00  0.00    +0.050 A 
ATOM     28  C   UNL     1       2.241   9.742   1.300  0.00  0.00    +0.136 A 
ATOM     29  O   UNL     1       1.982   8.455   1.010  0.00  0.00    -0.455 OA
BRANCH  28  30
ATOM     30  C   UNL     1       1.414  10.898   0.902  0.00  0.00    +0.017 A 
ATOM     31  C   UNL     1       1.791  12.191   1.273  0.00  0.00    +0.013 A 
ATOM     32  C   UNL     1       1.016  13.268   0.894  0.00  0.00    +0.021 A 
ATOM     33  C   UNL     1      -0.138  13.068   0.155  0.00  0.00    +0.041 A 
ATOM     34  C   UNL     1      -0.520  11.788  -0.212  0.00  0.00    +0.021 A 
ATOM     35  C   UNL     1       0.248  10.704   0.157  0.00  0.00    +0.013 A 
ATOM     36 CL   UNL     1      -1.111  14.427  -0.312  0.00  0.00    -0.084 Cl
ENDBRANCH  28  30
ENDBRANCH  24  25
ENDBRANCH  20  23
ENDBRANCH   6  19
TORSDOF 7
