REMARK  Name = ZINC16264946
REMARK  5 active torsions:
REMARK  status: ('A' for Active; 'I' for Inactive)
REMARK    1  A    between atoms: C_1  and  C_2
REMARK    2  A    between atoms: C_3  and  C_22
REMARK    3  A    between atoms: N_8  and  C_9
REMARK    4  A    between atoms: C_9  and  N_11
REMARK    5  A    between atoms: C_23  and  C_24
REMARK                            x       y       z     vdW  Elec       q    Type
REMARK                         _______ _______ _______ _____ _____    ______ ____
ROOT
ATOM      1  C   UNL     1      -2.632   7.480   0.346  0.00  0.00    +0.143 C 
ATOM      2  S   UNL     1      -4.329   7.681   0.450  0.00  0.00    -0.018 S 
ENDROOT
BRANCH   1   3
ATOM      3  N   UNL     1      -1.822   8.556   0.399  0.00  0.00    -0.267 N 
ATOM      4  C   UNL     1      -2.351   9.809   0.647  0.00  0.00    +0.200 A 
ATOM      5  N   UNL     1      -1.647  10.978   0.617  0.00  0.00    -0.326 N 
ATOM      6  H   UNL     1      -0.672  11.078   0.416  0.00  0.00    +0.169 HD
ATOM      7  C   UNL     1      -2.532  11.999   0.918  0.00  0.00    +0.067 A 
ATOM      8  C   UNL     1      -2.409  13.376   1.037  0.00  0.00    +0.028 A 
ATOM      9  C   UNL     1      -3.512  14.139   1.357  0.00  0.00    +0.002 A 
ATOM     10  C   UNL     1      -4.746  13.539   1.561  0.00  0.00    +0.002 A 
ATOM     11  C   UNL     1      -4.887  12.174   1.447  0.00  0.00    +0.030 A 
ATOM     12  C   UNL     1      -3.779  11.386   1.123  0.00  0.00    +0.091 A 
ATOM     13  N   UNL     1      -3.604  10.052   0.938  0.00  0.00    -0.214 NA
ATOM     14  H   UNL     1      -0.867   8.451   0.263  0.00  0.00    +0.157 HD
ENDBRANCH   1   3
BRANCH   1  22
ATOM     15  C   UNL     1      -3.703   1.606  -0.519  0.00  0.00    +0.065 C 
ATOM     16  C   UNL     1      -3.658   3.093  -0.277  0.00  0.00    +0.041 A 
ATOM     17  C   UNL     1      -4.728   3.923  -0.120  0.00  0.00    +0.086 A 
ATOM     18  N   UNL     1      -4.251   5.181   0.071  0.00  0.00    -0.215 NA
ATOM     19  C   UNL     1      -2.942   5.151   0.047  0.00  0.00    +0.199 A 
ATOM     20  N   UNL     1      -2.534   3.870  -0.171  0.00  0.00    -0.329 N 
ATOM     21  H   UNL     1      -1.588   3.554  -0.241  0.00  0.00    +0.168 HD
ATOM     22  N   UNL     1      -2.107   6.246   0.210  0.00  0.00    -0.267 N 
ATOM     23  H   UNL     1      -1.145   6.125   0.227  0.00  0.00    +0.157 HD
BRANCH  17  24
ATOM     24  C   UNL     1      -6.145   3.529  -0.158  0.00  0.00    +0.029 C 
ATOM     25  C   UNL     1      -7.107   4.471  -0.140  0.00  0.00    +0.002 C 
BRANCH  25  26
ATOM     26  C   UNL     1      -6.750   5.886  -0.279  0.00  0.00    -0.008 C 
ATOM     27  C   UNL     1      -7.706   6.812  -0.335  0.00  0.00    +0.008 C 
ENDBRANCH  25  26
ENDBRANCH  17  24
ENDBRANCH   1  22
TORSDOF 4
