REMARK  Name = ZINC44876219
REMARK  9 active torsions:
REMARK  status: ('A' for Active; 'I' for Inactive)
REMARK    1  A    between atoms: C_1  and  C_2
REMARK    2  A    between atoms: C_5  and  S_8
REMARK    3  A    between atoms: S_8  and  N_11
REMARK    4  A    between atoms: C_13  and  C_22
REMARK    5  A    between atoms: N_24  and  C_25
REMARK    6  A    between atoms: C_25  and  C_26
REMARK    7  A    between atoms: C_29  and  C_32
REMARK    8  A    between atoms: C_32  and  N_33
REMARK    9  A    between atoms: C_36  and  C_39
REMARK                            x       y       z     vdW  Elec       q    Type
REMARK                         _______ _______ _______ _____ _____    ______ ____
ROOT
ATOM      1  N   UNL     1       1.651  -4.999  -0.034  0.00  0.00    -0.195 N 
ATOM      2  C   UNL     1       2.376  -5.202  -1.300  0.00  0.00    +0.186 C 
ATOM      3  C   UNL     1       3.222  -6.476  -1.151  0.00  0.00    +0.277 C 
ATOM      4  O   UNL     1       4.107  -6.313  -0.040  0.00  0.00    -0.476 OA
ATOM      5  C   UNL     1       3.578  -5.879   1.134  0.00  0.00    +0.144 A 
ATOM      6  C   UNL     1       2.354  -5.212   1.162  0.00  0.00    +0.093 A 
ATOM      7  C   UNL     1       1.830  -4.765   2.364  0.00  0.00    +0.028 A 
ATOM      8  C   UNL     1       2.525  -4.979   3.541  0.00  0.00    +0.002 A 
ATOM      9  C   UNL     1       3.740  -5.637   3.517  0.00  0.00    +0.004 A 
ATOM     10  C   UNL     1       4.265  -6.095   2.318  0.00  0.00    +0.047 A 
ENDROOT
BRANCH   3  11
ATOM     11  C   UNL     1       4.020  -6.702  -2.408  0.00  0.00    +0.256 C 
ATOM     12  O   UNL     1       5.231  -6.644  -2.377  0.00  0.00    -0.272 OA
ATOM     13  N   UNL     1       3.389  -6.970  -3.569  0.00  0.00    -0.308 N 
ATOM     14  H   UNL     1       2.420  -7.016  -3.594  0.00  0.00    +0.149 HD
BRANCH  13  15
ATOM     15  C   UNL     1       4.165  -7.190  -4.791  0.00  0.00    +0.139 C 
BRANCH  15  16
ATOM     16  C   UNL     1       3.228  -7.467  -5.938  0.00  0.00    -0.030 A 
ATOM     17  C   UNL     1       2.844  -8.765  -6.218  0.00  0.00    +0.005 A 
ATOM     18  C   UNL     1       1.984  -9.020  -7.270  0.00  0.00    +0.002 A 
ATOM     19  C   UNL     1       1.508  -7.977  -8.042  0.00  0.00    -0.064 A 
ATOM     20  C   UNL     1       1.891  -6.679  -7.762  0.00  0.00    +0.002 A 
ATOM     21  C   UNL     1       2.748  -6.423  -6.707  0.00  0.00    +0.005 A 
BRANCH  19  22
ATOM     22  C   UNL     1       0.571  -8.255  -9.190  0.00  0.00    -0.043 C 
BRANCH  22  23
ATOM     23  N   UNL     1      -0.817  -8.209  -8.711  0.00  0.00    +0.382 N 
ATOM     24  C   UNL     1      -1.036  -9.295  -7.748  0.00  0.00    -0.078 C 
ATOM     25  C   UNL     1      -2.456  -9.203  -7.185  0.00  0.00    -0.016 C 
ATOM     26  C   UNL     1      -3.463  -9.325  -8.333  0.00  0.00    -0.018 C 
ATOM     27  C   UNL     1      -3.177  -8.233  -9.368  0.00  0.00    -0.016 C 
ATOM     28  C   UNL     1      -1.731  -8.361  -9.849  0.00  0.00    -0.078 C 
ATOM     29  C   UNL     1      -4.883  -9.155  -7.788  0.00  0.00    +0.007 C 
ATOM     30  H   UNL     1      -0.987  -7.323  -8.260  0.00  0.00    -0.081 HD
ENDBRANCH  22  23
ENDBRANCH  19  22
ENDBRANCH  15  16
ENDBRANCH  13  15
ENDBRANCH   3  11
BRANCH   1  31
ATOM     31  S   UNL     1       0.063  -4.530  -0.023  0.00  0.00    +0.075 S 
ATOM     32  O   UNL     1      -0.476  -4.950   1.223  0.00  0.00    -0.150 OA
ATOM     33  O   UNL     1      -0.490  -4.937  -1.267  0.00  0.00    -0.150 OA
BRANCH  31  38
ATOM     34  C   UNL     1      -0.018   1.503   0.010  0.00  0.00    +0.044 C 
ATOM     35  C   UNL     1       0.002  -0.004   0.002  0.00  0.00    -0.050 A 
ATOM     36  C   UNL     1       0.006  -0.689  -1.199  0.00  0.00    +0.005 A 
ATOM     37  C   UNL     1       0.025  -2.071  -1.206  0.00  0.00    +0.029 A 
ATOM     38  C   UNL     1       0.040  -2.768  -0.013  0.00  0.00    +0.109 A 
ATOM     39  C   UNL     1       0.037  -2.084   1.188  0.00  0.00    +0.029 A 
ATOM     40  C   UNL     1       0.023  -0.702   1.195  0.00  0.00    +0.005 A 
ENDBRANCH  31  38
ENDBRANCH   1  31
TORSDOF 7
