REMARK  Name = ZINC00650287
REMARK  11 active torsions:
REMARK  status: ('A' for Active; 'I' for Inactive)
REMARK    1  A    between atoms: C_1  and  C_2
REMARK    2  A    between atoms: C_3  and  C_32
REMARK    3  A    between atoms: C_4  and  C_25
REMARK    4  A    between atoms: C_10  and  C_15
REMARK    5  A    between atoms: C_18  and  O_23
REMARK    6  A    between atoms: C_19  and  O_21
REMARK    7  A    between atoms: O_21  and  C_22
REMARK    8  A    between atoms: O_23  and  C_24
REMARK    9  A    between atoms: C_28  and  O_31
REMARK   10  A    between atoms: C_32  and  O_34
REMARK   11  A    between atoms: O_34  and  C_35
REMARK                            x       y       z     vdW  Elec       q    Type
REMARK                         _______ _______ _______ _____ _____    ______ ____
ROOT
ATOM      1  C   UNL     1      -3.698   2.119  -0.526  0.00  0.00    +0.061 C 
ATOM      2  C   UNL     1      -2.432   1.352  -0.246  0.00  0.00    +0.016 C 
ATOM      3  C   UNL     1      -2.458   0.008  -0.215  0.00  0.00    +0.065 C 
ATOM      4  C   UNL     1      -1.219  -0.789   0.068  0.00  0.00    +0.092 C 
ATOM      5  C   UNL     1       0.020   0.048  -0.133  0.00  0.00    +0.024 C 
ATOM      6  C   UNL     1      -0.056   1.396  -0.160  0.00  0.00    +0.016 C 
ATOM      7  N   UNL     1      -1.264   2.027  -0.028  0.00  0.00    -0.321 N 
ATOM      8  C   UNL     1       1.181   2.240  -0.342  0.00  0.00    +0.059 C 
ATOM      9  C   UNL     1       2.200   1.481  -1.195  0.00  0.00    +0.032 C 
ATOM     10  C   UNL     1       2.526   0.156  -0.499  0.00  0.00    +0.088 C 
ATOM     11  C   UNL     1       1.251  -0.613  -0.286  0.00  0.00    +0.162 C 
ATOM     12  O   UNL     1       1.286  -1.826  -0.245  0.00  0.00    -0.292 OA
ATOM     13  H   UNL     1      -1.287   3.089   0.256  0.00  0.00    +0.152 HD
ENDROOT
BRANCH   9  14
ATOM     14  C   UNL     1       3.455   2.303  -1.335  0.00  0.00    -0.040 A 
ATOM     15  C   UNL     1       4.159   2.684  -0.208  0.00  0.00    +0.008 A 
ATOM     16  C   UNL     1       5.311   3.438  -0.331  0.00  0.00    +0.049 A 
ATOM     17  C   UNL     1       5.763   3.813  -1.586  0.00  0.00    +0.161 A 
ATOM     18  C   UNL     1       5.055   3.429  -2.721  0.00  0.00    +0.162 A 
ATOM     19  C   UNL     1       3.904   2.669  -2.591  0.00  0.00    +0.053 A 
BRANCH  18  20
ATOM     20  O   UNL     1       5.495   3.794  -3.954  0.00  0.00    -0.491 OA
ATOM     21  C   UNL     1       4.717   3.364  -5.074  0.00  0.00    +0.277 C 
ENDBRANCH  18  20
BRANCH  17  22
ATOM     22  O   UNL     1       6.896   4.555  -1.709  0.00  0.00    -0.491 OA
ATOM     23  C   UNL     1       7.571   4.913  -0.501  0.00  0.00    +0.277 C 
ENDBRANCH  17  22
ENDBRANCH   9  14
BRANCH   4  24
ATOM     24  C   UNL     1      -1.260  -1.279   1.492  0.00  0.00    -0.035 A 
ATOM     25  C   UNL     1      -1.286  -0.371   2.534  0.00  0.00    +0.008 A 
ATOM     26  C   UNL     1      -1.329  -0.818   3.841  0.00  0.00    +0.046 A 
ATOM     27  C   UNL     1      -1.334  -2.180   4.107  0.00  0.00    +0.117 A 
ATOM     28  C   UNL     1      -1.302  -3.089   3.059  0.00  0.00    +0.046 A 
ATOM     29  C   UNL     1      -1.265  -2.637   1.754  0.00  0.00    +0.008 A 
BRANCH  27  30
ATOM     30  O   UNL     1      -1.370  -2.622   5.391  0.00  0.00    -0.507 OA
ATOM     31  H   UNL     1      -1.374  -3.702   5.601  0.00  0.00    +0.292 HD
ENDBRANCH  27  30
ENDBRANCH   4  24
BRANCH   3  32
ATOM     32  C   UNL     1      -3.678  -0.667  -0.452  0.00  0.00    +0.338 C 
ATOM     33  O   UNL     1      -3.863  -1.235  -1.512  0.00  0.00    -0.245 OA
BRANCH  32  34
ATOM     34  O   UNL     1      -4.638  -0.681   0.497  0.00  0.00    -0.458 OA
BRANCH  34  35
ATOM     35  C   UNL     1      -5.845  -1.381   0.189  0.00  0.00    +0.177 C 
ATOM     36  C   UNL     1      -6.881  -0.410  -0.413  0.00  0.00    +0.044 C 
ATOM     37  C   UNL     1      -8.234  -0.893   0.165  0.00  0.00    +0.004 C 
ATOM     38  C   UNL     1      -7.862  -1.300   1.612  0.00  0.00    +0.004 C 
ATOM     39  C   UNL     1      -6.468  -1.947   1.477  0.00  0.00    +0.044 C 
ENDBRANCH  34  35
ENDBRANCH  32  34
ENDBRANCH   3  32
TORSDOF 8
