REMARK  Name = ZINC05532080
REMARK  5 active torsions:
REMARK  status: ('A' for Active; 'I' for Inactive)
REMARK    1  A    between atoms: C_1  and  C_2
REMARK    2  A    between atoms: C_5  and  S_8
REMARK    3  A    between atoms: S_8  and  N_11
REMARK    4  A    between atoms: C_15  and  C_28
REMARK    5  A    between atoms: C_20  and  C_22
REMARK                            x       y       z     vdW  Elec       q    Type
REMARK                         _______ _______ _______ _____ _____    ______ ____
ROOT
ATOM      1  N   UNL     1       1.651  -4.999  -0.034  0.00  0.00    -0.081 NA
ATOM      2  S   UNL     1       2.001  -6.451  -0.044  0.00  0.00    +0.055 S 
ATOM      3  C   UNL     1       2.941  -6.673   1.429  0.00  0.00    +0.062 A 
ATOM      4  C   UNL     1       4.304  -6.455   1.423  0.00  0.00    +0.022 A 
ATOM      5  C   UNL     1       5.037  -6.630   2.583  0.00  0.00    -0.049 A 
ATOM      6  C   UNL     1       4.406  -7.026   3.749  0.00  0.00    +0.005 A 
ATOM      7  C   UNL     1       3.043  -7.245   3.760  0.00  0.00    +0.025 A 
ATOM      8  C   UNL     1       2.302  -7.069   2.596  0.00  0.00    +0.049 A 
ATOM      9  N   UNL     1       0.927  -7.288   2.604  0.00  0.00    -0.299 N 
ATOM     10  C   UNL     1       0.203  -7.528   1.471  0.00  0.00    +0.115 C 
ATOM     11  N   UNL     1       0.568  -7.210   0.276  0.00  0.00    -0.303 N 
ATOM     12  C   UNL     1       6.525  -6.392   2.576  0.00  0.00    +0.044 C 
ATOM     13  H   UNL     1      -0.022  -7.424  -0.463  0.00  0.00    +0.176 HD
ATOM     14  H   UNL     1       0.461  -7.271   3.454  0.00  0.00    +0.154 HD
ENDROOT
BRANCH  10  15
ATOM     15  C   UNL     1      -1.104  -8.206   1.627  0.00  0.00    +0.014 A 
ATOM     16  C   UNL     1      -1.307  -9.100   2.678  0.00  0.00    +0.011 A 
ATOM     17  C   UNL     1      -2.528  -9.729   2.818  0.00  0.00    +0.001 A 
ATOM     18  C   UNL     1      -3.548  -9.474   1.919  0.00  0.00    +0.000 A 
ATOM     19  C   UNL     1      -3.352  -8.589   0.874  0.00  0.00    +0.001 A 
ATOM     20  C   UNL     1      -2.138  -7.949   0.727  0.00  0.00    +0.011 A 
ENDBRANCH  10  15
BRANCH   1  21
ATOM     21  S   UNL     1       0.063  -4.530  -0.023  0.00  0.00    +0.106 S 
ATOM     22  O   UNL     1      -0.476  -4.950   1.223  0.00  0.00    -0.146 OA
ATOM     23  O   UNL     1      -0.490  -4.937  -1.267  0.00  0.00    -0.146 OA
BRANCH  21  28
ATOM     24  C   UNL     1      -0.018   1.503   0.010  0.00  0.00    +0.044 C 
ATOM     25  C   UNL     1       0.002  -0.004   0.002  0.00  0.00    -0.050 A 
ATOM     26  C   UNL     1       0.006  -0.689  -1.199  0.00  0.00    +0.005 A 
ATOM     27  C   UNL     1       0.025  -2.071  -1.206  0.00  0.00    +0.029 A 
ATOM     28  C   UNL     1       0.040  -2.768  -0.013  0.00  0.00    +0.113 A 
ATOM     29  C   UNL     1       0.037  -2.084   1.188  0.00  0.00    +0.029 A 
ATOM     30  C   UNL     1       0.023  -0.702   1.195  0.00  0.00    +0.005 A 
ENDBRANCH  21  28
ENDBRANCH   1  21
TORSDOF 3
