REMARK  Name = ZINC12885231
REMARK  7 active torsions:
REMARK  status: ('A' for Active; 'I' for Inactive)
REMARK    1  A    between atoms: C_1  and  C_2
REMARK    2  A    between atoms: C_4  and  C_37
REMARK    3  A    between atoms: C_13  and  C_15
REMARK    4  A    between atoms: C_15  and  C_17
REMARK    5  A    between atoms: C_15  and  O_18
REMARK    6  A    between atoms: N_21  and  C_24
REMARK    7  A    between atoms: C_24  and  C_25
REMARK                            x       y       z     vdW  Elec       q    Type
REMARK                         _______ _______ _______ _____ _____    ______ ____
ROOT
ATOM      1  C   UNL     1       8.585   4.985  -0.670  0.00  0.00    +0.044 C 
ATOM      2  C   UNL     1       7.285   5.026  -1.431  0.00  0.00    -0.050 A 
ATOM      3  C   UNL     1       7.258   5.488  -2.734  0.00  0.00    +0.008 A 
ATOM      4  C   UNL     1       6.070   5.528  -3.434  0.00  0.00    -0.029 A 
ATOM      5  C   UNL     1       4.888   5.101  -2.834  0.00  0.00    +0.039 A 
ATOM      6  C   UNL     1       4.927   4.636  -1.523  0.00  0.00    -0.027 A 
ATOM      7  C   UNL     1       6.115   4.599  -0.827  0.00  0.00    +0.008 A 
ATOM      8  C   UNL     1       3.515   4.259  -1.178  0.00  0.00    +0.050 C 
ATOM      9  C   UNL     1       3.406   2.778  -0.793  0.00  0.00    +0.088 C 
ATOM     10  C   UNL     1       3.423   2.761   0.761  0.00  0.00    +0.075 C 
ATOM     11  C   UNL     1       3.541   4.265   1.157  0.00  0.00    -0.028 C 
ATOM     12  C   UNL     1       2.043   2.260   1.120  0.00  0.00    +0.224 C 
ATOM     13  O   UNL     1       1.625   2.105   2.248  0.00  0.00    -0.275 OA
ATOM     14  N   UNL     1       1.356   2.010  -0.000  0.00  0.00    -0.237 N 
ATOM     15  C   UNL     1       2.024   2.266  -1.131  0.00  0.00    +0.225 C 
ATOM     16  O   UNL     1       1.589   2.112  -2.252  0.00  0.00    -0.275 OA
ATOM     17  C   UNL     1       2.716   4.565  -2.415  0.00  0.00    +0.211 C 
ATOM     18  O   UNL     1       1.522   4.408  -2.563  0.00  0.00    -0.277 OA
ATOM     19  N   UNL     1       3.582   5.047  -3.327  0.00  0.00    -0.286 N 
ATOM     20  C   UNL     1       6.052   6.035  -4.853  0.00  0.00    +0.045 C 
ATOM     21  H   UNL     1       3.329   5.324  -4.221  0.00  0.00    +0.155 HD
ATOM     22  N   UNL     1       3.041   4.987  -0.015  0.00  0.00    +0.396 N 
ATOM     23  H   UNL     1       2.014   5.011  -0.005  0.00  0.00    -0.083 HD
ATOM     24  H   UNL     1       3.406   5.946  -0.023  0.00  0.00    -0.083 HD
ENDROOT
BRANCH  11  25
ATOM     25  C   UNL     1       2.696   4.560   2.398  0.00  0.00    +0.098 C 
ATOM     26  C   UNL     1       2.775   6.052   2.726  0.00  0.00    +0.036 C 
BRANCH  25  27
ATOM     27  O   UNL     1       3.191   3.802   3.503  0.00  0.00    -0.394 OA
ATOM     28  H   UNL     1       4.111   3.995   3.732  0.00  0.00    +0.210 HD
ENDBRANCH  25  27
ENDBRANCH  11  25
BRANCH  14  29
ATOM     29  C   UNL     1      -0.018   1.503   0.010  0.00  0.00    +0.151 C 
BRANCH  29  30
ATOM     30  C   UNL     1       0.002  -0.004   0.002  0.00  0.00    -0.026 A 
ATOM     31  C   UNL     1       0.023  -0.700   1.196  0.00  0.00    +0.009 A 
ATOM     32  C   UNL     1       0.041  -2.082   1.194  0.00  0.00    +0.050 A 
ATOM     33  C   UNL     1       0.039  -2.774  -0.007  0.00  0.00    +0.166 A 
ATOM     34  C   UNL     1       0.018  -2.072  -1.210  0.00  0.00    +0.167 A 
ATOM     35  C   UNL     1      -0.006  -0.687  -1.200  0.00  0.00    +0.054 A 
ATOM     36  O   UNL     1       0.021  -2.970  -2.238  0.00  0.00    -0.453 OA
ATOM     37  C   UNL     1       0.455  -4.215  -1.660  0.00  0.00    +0.466 C 
ATOM     38  O   UNL     1       0.055  -4.111  -0.281  0.00  0.00    -0.453 OA
ENDBRANCH  29  30
ENDBRANCH  14  29
TORSDOF 4
