REMARK  Name = ZINC32692088
REMARK  8 active torsions:
REMARK  status: ('A' for Active; 'I' for Inactive)
REMARK    1  A    between atoms: C_1  and  C_2
REMARK    2  A    between atoms: C_2  and  C_3
REMARK    3  A    between atoms: C_2  and  C_4
REMARK    4  A    between atoms: C_7  and  N_10
REMARK    5  A    between atoms: C_11  and  C_13
REMARK    6  A    between atoms: C_13  and  S_14
REMARK    7  A    between atoms: S_14  and  C_15
REMARK    8  A    between atoms: N_28  and  C_29
REMARK                            x       y       z     vdW  Elec       q    Type
REMARK                         _______ _______ _______ _____ _____    ______ ____
ROOT
ATOM      1  C   UNL     1       3.834   3.774  -0.125  0.00  0.00    +0.178 A 
ATOM      2  N   UNL     1       2.519   3.949  -0.108  0.00  0.00    -0.215 NA
ATOM      3  C   UNL     1       1.760   2.861  -0.130  0.00  0.00    +0.117 A 
ATOM      4  C   UNL     1       2.270   1.543  -0.169  0.00  0.00    +0.076 A 
ATOM      5  C   UNL     1       1.283   0.476  -0.188  0.00  0.00    -0.023 A 
ATOM      6  C   UNL     1      -0.017   0.851  -0.168  0.00  0.00    -0.004 A 
ATOM      7  S   UNL     1       0.011   2.625  -0.121  0.00  0.00    -0.073 S 
ATOM      8  C   UNL     1      -1.219  -0.042  -0.182  0.00  0.00    +0.043 C 
ATOM      9  C   UNL     1      -0.774  -1.452  -0.597  0.00  0.00    +0.005 C 
ATOM     10  C   UNL     1       0.463  -1.835   0.221  0.00  0.00    +0.005 C 
ATOM     11  C   UNL     1       1.663  -1.002  -0.229  0.00  0.00    +0.037 C 
ATOM     12  C   UNL     1       3.695   1.391  -0.185  0.00  0.00    +0.268 A 
ATOM     13  O   UNL     1       4.229   0.296  -0.217  0.00  0.00    -0.267 OA
ATOM     14  N   UNL     1       4.411   2.540  -0.162  0.00  0.00    -0.255 N 
ENDROOT
BRANCH  14  15
ATOM     15  C   UNL     1       5.810   2.455  -0.176  0.00  0.00    +0.052 A 
ATOM     16  C   UNL     1       6.524   2.930  -1.268  0.00  0.00    +0.026 A 
ATOM     17  C   UNL     1       7.903   2.851  -1.277  0.00  0.00    +0.002 A 
ATOM     18  C   UNL     1       8.572   2.289  -0.205  0.00  0.00    +0.000 A 
ATOM     19  C   UNL     1       7.863   1.811   0.881  0.00  0.00    +0.002 A 
ATOM     20  C   UNL     1       6.484   1.892   0.899  0.00  0.00    +0.026 A 
ENDBRANCH  14  15
BRANCH   1  21
ATOM     21  S   UNL     1       4.876   5.195  -0.097  0.00  0.00    -0.078 S 
BRANCH  21  22
ATOM     22  C   UNL     1       3.625   6.502  -0.052  0.00  0.00    +0.173 C 
BRANCH  22  24
ATOM     23  N   UNL     1       3.566   8.974   0.012  0.00  0.00    -0.285 N 
ATOM     24  C   UNL     1       4.304   7.847  -0.024  0.00  0.00    +0.227 C 
ATOM     25  O   UNL     1       5.515   7.915  -0.033  0.00  0.00    -0.275 OA
ATOM     26  H   UNL     1       2.473   8.912   0.112  0.00  0.00    +0.155 HD
BRANCH  23  30
ATOM     27  C   UNL     1       5.427  12.692  -0.259  0.00  0.00    -0.045 A 
ATOM     28  C   UNL     1       5.935  11.613  -0.959  0.00  0.00    +0.006 A 
ATOM     29  C   UNL     1       5.321  10.379  -0.871  0.00  0.00    +0.023 A 
ATOM     30  C   UNL     1       4.191  10.223  -0.079  0.00  0.00    +0.033 A 
ATOM     31  C   UNL     1       3.680  11.309   0.619  0.00  0.00    +0.023 A 
ATOM     32  C   UNL     1       4.303  12.539   0.532  0.00  0.00    +0.006 A 
BRANCH  27  34
ATOM     33  C   UNL     1       5.112  15.062  -0.916  0.00  0.00    +0.012 C 
ATOM     34  C   UNL     1       6.100  14.037  -0.356  0.00  0.00    +0.013 C 
ATOM     35  C   UNL     1       6.561  14.479   1.034  0.00  0.00    +0.012 C 
ENDBRANCH  27  34
ENDBRANCH  23  30
ENDBRANCH  22  24
ENDBRANCH  21  22
ENDBRANCH   1  21
TORSDOF 6
