REMARK  Name = ZINC12865161
REMARK  11 active torsions:
REMARK  status: ('A' for Active; 'I' for Inactive)
REMARK    1  A    between atoms: C_1  and  C_2
REMARK    2  A    between atoms: C_4  and  C_39
REMARK    3  A    between atoms: C_6  and  C_8
REMARK    4  A    between atoms: C_8  and  O_9
REMARK    5  A    between atoms: O_9  and  C_10
REMARK    6  A    between atoms: C_14  and  C_38
REMARK    7  A    between atoms: C_15  and  C_22
REMARK    8  A    between atoms: C_20  and  C_21
REMARK    9  A    between atoms: C_22  and  C_23
REMARK   10  A    between atoms: C_23  and  C_24
REMARK   11  A    between atoms: C_29  and  O_37
REMARK                            x       y       z     vdW  Elec       q    Type
REMARK                         _______ _______ _______ _____ _____    ______ ____
ROOT
ATOM      1  C   UNL     1       2.273   4.164   0.002  0.00  0.00    +0.127 A 
ATOM      2  C   UNL     1       3.502   3.507  -0.013  0.00  0.00    +0.047 A 
ATOM      3  C   UNL     1       3.556   2.143  -0.020  0.00  0.00    +0.015 A 
ATOM      4  C   UNL     1       2.369   1.400  -0.013  0.00  0.00    +0.021 A 
ATOM      5  C   UNL     1       2.397  -0.064  -0.021  0.00  0.00    -0.030 A 
ATOM      6  C   UNL     1       1.212  -0.728  -0.013  0.00  0.00    +0.041 A 
ATOM      7  C   UNL     1       0.002  -0.004   0.002  0.00  0.00    +0.341 A 
ATOM      8  O   UNL     1      -1.053  -0.612   0.008  0.00  0.00    -0.245 OA
ATOM      9  O   UNL     1      -0.016   1.338   0.009  0.00  0.00    -0.422 OA
ATOM     10  C   UNL     1       1.126   2.058   0.002  0.00  0.00    +0.146 A 
ATOM     11  C   UNL     1       1.089   3.445   0.010  0.00  0.00    +0.034 A 
ATOM     12  C   UNL     1      -0.234   4.166   0.027  0.00  0.00    +0.051 C 
ATOM     13  C   UNL     1       3.704  -0.814  -0.037  0.00  0.00    +0.045 C 
ENDROOT
BRANCH   1  14
ATOM     14  O   UNL     1       2.236   5.521   0.009  0.00  0.00    -0.487 OA
BRANCH  14  15
ATOM     15  C   UNL     1       3.491   6.205   0.000  0.00  0.00    +0.264 C 
BRANCH  15  21
ATOM     16  C   UNL     1       2.782  10.497  -2.474  0.00  0.00    +0.044 C 
ATOM     17  C   UNL     1       2.914   9.746  -1.174  0.00  0.00    -0.050 A 
ATOM     18  C   UNL     1       2.816  10.423   0.028  0.00  0.00    +0.006 A 
ATOM     19  C   UNL     1       2.936   9.734   1.220  0.00  0.00    -0.050 A 
ATOM     20  C   UNL     1       3.155   8.369   1.212  0.00  0.00    +0.010 A 
ATOM     21  C   UNL     1       3.252   7.693   0.010  0.00  0.00    -0.010 A 
ATOM     22  C   UNL     1       3.137   8.382  -1.183  0.00  0.00    +0.010 A 
ATOM     23  C   UNL     1       2.829  10.471   2.530  0.00  0.00    +0.044 C 
ENDBRANCH  15  21
ENDBRANCH  14  15
ENDBRANCH   1  14
BRANCH   6  24
ATOM     24  C   UNL     1       1.190  -2.235  -0.022  0.00  0.00    +0.052 C 
BRANCH  24  25
ATOM     25  C   UNL     1       1.169  -2.737  -1.467  0.00  0.00    +0.101 C 
BRANCH  25  26
ATOM     26  C   UNL     1       1.148  -4.244  -1.475  0.00  0.00    +0.216 C 
ATOM     27  O   UNL     1       1.149  -4.856  -0.428  0.00  0.00    -0.276 OA
ATOM     28  N   UNL     1       1.127  -4.911  -2.646  0.00  0.00    -0.301 N 
ATOM     29  C   UNL     1       1.126  -4.184  -3.923  0.00  0.00    +0.110 C 
ATOM     30  C   UNL     1       2.280  -4.702  -4.787  0.00  0.00    +0.054 C 
ATOM     31  C   UNL     1       2.162  -6.221  -4.932  0.00  0.00    +0.072 C 
ATOM     32  C   UNL     1       3.306  -6.733  -5.811  0.00  0.00    +0.035 C 
ATOM     33  C   UNL     1       4.644  -6.364  -5.168  0.00  0.00    +0.003 C 
ATOM     34  C   UNL     1       4.741  -7.006  -3.783  0.00  0.00    +0.001 C 
ATOM     35  C   UNL     1       3.593  -6.503  -2.905  0.00  0.00    +0.008 C 
ATOM     36  C   UNL     1       2.257  -6.875  -3.551  0.00  0.00    +0.038 C 
ATOM     37  C   UNL     1       1.112  -6.380  -2.671  0.00  0.00    +0.114 C 
BRANCH  31  38
ATOM     38  O   UNL     1       0.910  -6.549  -5.538  0.00  0.00    -0.388 OA
ATOM     39  H   UNL     1       0.788  -6.168  -6.419  0.00  0.00    +0.210 HD
ENDBRANCH  31  38
ENDBRANCH  25  26
ENDBRANCH  24  25
ENDBRANCH   6  24
TORSDOF 7
