REMARK  Name = ZINC15860518
REMARK  9 active torsions:
REMARK  status: ('A' for Active; 'I' for Inactive)
REMARK    1  A    between atoms: C_1  and  C_2
REMARK    2  A    between atoms: C_5  and  C_7
REMARK    3  A    between atoms: C_7  and  C_9
REMARK    4  A    between atoms: C_7  and  N_61
REMARK    5  A    between atoms: C_9  and  N_10
REMARK    6  A    between atoms: C_11  and  C_13
REMARK    7  A    between atoms: C_18  and  C_25
REMARK    8  A    between atoms: C_20  and  C_24
REMARK    9  A    between atoms: C_28  and  C_31
REMARK                            x       y       z     vdW  Elec       q    Type
REMARK                         _______ _______ _______ _____ _____    ______ ____
ROOT
ATOM      1  N   UNL     1      -0.019  -2.351   2.074  0.00  0.00    -0.310 N 
ATOM      2  C   UNL     1      -0.383  -2.705   3.322  0.00  0.00    +0.279 C 
ATOM      3  O   UNL     1       0.455  -3.092   4.112  0.00  0.00    -0.267 OA
ATOM      4  H   UNL     1      -0.688  -2.042   1.443  0.00  0.00    +0.149 HD
ENDROOT
BRANCH   2   5
ATOM      5  C   UNL     1      -1.805  -2.622   3.731  0.00  0.00    +0.193 A 
ATOM      6  C   UNL     1      -2.141  -2.984   4.992  0.00  0.00    +0.103 A 
ATOM      7  C   UNL     1      -3.552  -2.902   5.400  0.00  0.00    +0.193 A 
ATOM      8  O   UNL     1      -3.912  -3.215   6.521  0.00  0.00    -0.287 OA
ATOM      9  C   UNL     1      -4.511  -2.423   4.386  0.00  0.00    +0.067 A 
ATOM     10  C   UNL     1      -5.871  -2.308   4.671  0.00  0.00    -0.036 A 
ATOM     11  C   UNL     1      -6.729  -1.860   3.706  0.00  0.00    +0.007 A 
ATOM     12  C   UNL     1      -6.255  -1.520   2.447  0.00  0.00    -0.047 A 
ATOM     13  C   UNL     1      -4.914  -1.627   2.147  0.00  0.00    +0.050 A 
ATOM     14  C   UNL     1      -4.022  -2.081   3.114  0.00  0.00    +0.140 A 
ATOM     15  O   UNL     1      -2.707  -2.186   2.840  0.00  0.00    -0.450 OA
ATOM     16  C   UNL     1      -7.216  -1.028   1.396  0.00  0.00    +0.044 C 
ATOM     17  C   UNL     1      -6.392  -2.676   6.037  0.00  0.00    +0.044 C 
ENDBRANCH   2   5
BRANCH   1  18
ATOM     18  C   UNL     1       1.387  -2.433   1.669  0.00  0.00    +0.097 C 
BRANCH  18  19
ATOM     19  C   UNL     1       1.546  -1.860   0.260  0.00  0.00    +0.016 C 
BRANCH  19  26
ATOM     20  C   UNL     1       0.764  -3.994  -0.572  0.00  0.00    -0.078 C 
ATOM     21  C   UNL     1      -0.317  -4.667  -1.422  0.00  0.00    -0.015 C 
ATOM     22  C   UNL     1      -0.181  -4.201  -2.874  0.00  0.00    -0.018 C 
ATOM     23  C   UNL     1      -0.292  -2.674  -2.924  0.00  0.00    -0.015 C 
ATOM     24  C   UNL     1       0.788  -2.059  -2.031  0.00  0.00    -0.078 C 
ATOM     25  C   UNL     1      -1.295  -4.822  -3.717  0.00  0.00    +0.007 C 
ATOM     26  N   UNL     1       0.586  -2.528  -0.643  0.00  0.00    +0.387 N 
ATOM     27  H   UNL     1      -0.368  -2.293  -0.347  0.00  0.00    -0.081 HD
ENDBRANCH  19  26
BRANCH  19  32
ATOM     28  C   UNL     1      -1.010   2.489   0.298  0.00  0.00    +0.086 C 
ATOM     29  C   UNL     1       0.134   1.508   0.300  0.00  0.00    +0.102 A 
ATOM     30  C   UNL     1       1.442   1.824   0.320  0.00  0.00    +0.044 A 
ATOM     31  C   UNL     1       2.158   0.605   0.308  0.00  0.00    +0.043 A 
ATOM     32  C   UNL     1       1.246  -0.383   0.281  0.00  0.00    +0.093 A 
ATOM     33  O   UNL     1       0.022   0.170   0.277  0.00  0.00    -0.466 OA
ENDBRANCH  19  32
ENDBRANCH  18  19
ENDBRANCH   1  18
TORSDOF 5
