REMARK  Name = ZINC23258230
REMARK  7 active torsions:
REMARK  status: ('A' for Active; 'I' for Inactive)
REMARK    1  A    between atoms: C_4  and  C_7
REMARK    2  A    between atoms: C_7  and  C_9
REMARK    3  A    between atoms: C_12  and  N_18
REMARK    4  A    between atoms: C_13  and  N_15
REMARK    5  A    between atoms: N_18  and  C_19
REMARK    6  A    between atoms: C_19  and  C_20
REMARK    7  A    between atoms: C_20  and  C_21
REMARK                            x       y       z     vdW  Elec       q    Type
REMARK                         _______ _______ _______ _____ _____    ______ ____
ROOT
ATOM      1  C   UNL     1       3.780  -2.196  -0.221  0.00  0.00    +0.025 A 
ATOM      2  C   UNL     1       2.610  -2.928   0.010  0.00  0.00    +0.013 A 
ATOM      3  C   UNL     1       2.688  -4.246   0.359  0.00  0.00    +0.026 A 
ATOM      4  C   UNL     1       3.931  -4.862   0.487  0.00  0.00    +0.058 A 
ATOM      5  C   UNL     1       5.097  -4.136   0.258  0.00  0.00    +0.148 A 
ATOM      6  C   UNL     1       5.026  -2.819  -0.098  0.00  0.00    +0.046 A 
ENDROOT
BRANCH   5   7
ATOM      7  N   UNL     1       6.416  -4.795   0.396  0.00  0.00    +0.058 N 
ATOM      8  O   UNL     1       7.347  -4.190   0.874  0.00  0.00    -0.126 OA
ATOM      9  O   UNL     1       6.562  -5.938   0.029  0.00  0.00    -0.126 OA
ENDBRANCH   5   7
BRANCH   1  10
ATOM     10  C   UNL     1       3.699  -0.774  -0.600  0.00  0.00    +0.193 C 
ATOM     11  O   UNL     1       4.616  -0.253  -1.206  0.00  0.00    -0.287 OA
BRANCH  10  15
ATOM     12  C   UNL     1       0.266   1.506   0.429  0.00  0.00    +0.000 A 
ATOM     13  C   UNL     1       1.113   1.949  -0.572  0.00  0.00    +0.001 A 
ATOM     14  C   UNL     1       2.230   1.214  -0.911  0.00  0.00    +0.012 A 
ATOM     15  C   UNL     1       2.505   0.020  -0.241  0.00  0.00    +0.022 A 
ATOM     16  C   UNL     1       1.646  -0.422   0.768  0.00  0.00    +0.012 A 
ATOM     17  C   UNL     1       0.533   0.323   1.096  0.00  0.00    +0.001 A 
ENDBRANCH  10  15
ENDBRANCH   1  10
BRANCH   4  18
ATOM     18  N   UNL     1       4.007  -6.203   0.843  0.00  0.00    -0.342 N 
ATOM     19  H   UNL     1       4.871  -6.619   0.983  0.00  0.00    +0.146 HD
BRANCH  18  20
ATOM     20  C   UNL     1       2.780  -6.987   1.008  0.00  0.00    +0.102 C 
BRANCH  20  21
ATOM     21  C   UNL     1       3.142  -8.422   1.399  0.00  0.00    +0.036 C 
BRANCH  21  22
ATOM     22  C   UNL     1       1.861  -9.241   1.571  0.00  0.00    +0.108 C 
ATOM     23  C   UNL     1       2.193 -10.682   1.883  0.00  0.00    -0.014 A 
ATOM     24  C   UNL     1       2.873 -11.658   1.191  0.00  0.00    +0.006 A 
ATOM     25  C   UNL     1       3.023 -12.919   1.742  0.00  0.00    +0.000 A 
ATOM     26  C   UNL     1       2.488 -13.193   2.987  0.00  0.00    +0.002 A 
ATOM     27  C   UNL     1       1.806 -12.217   3.683  0.00  0.00    +0.023 A 
ATOM     28  C   UNL     1       1.651 -10.945   3.135  0.00  0.00    +0.037 A 
ATOM     29  N   UNL     1       1.013  -9.809   3.633  0.00  0.00    -0.285 N 
ATOM     30  C   UNL     1       1.087  -8.767   2.783  0.00  0.00    +0.225 C 
ATOM     31  O   UNL     1       0.623  -7.660   2.953  0.00  0.00    -0.275 OA
ATOM     32  H   UNL     1       0.567  -9.773   4.494  0.00  0.00    +0.155 HD
ENDBRANCH  21  22
ENDBRANCH  20  21
ENDBRANCH  18  20
ENDBRANCH   4  18
TORSDOF 7
