REMARK  Name = ZINC38958875
REMARK  7 active torsions:
REMARK  status: ('A' for Active; 'I' for Inactive)
REMARK    1  A    between atoms: C_1  and  C_2
REMARK    2  A    between atoms: C_5  and  N_9
REMARK    3  A    between atoms: C_6  and  C_8
REMARK    4  A    between atoms: N_9  and  C_10
REMARK    5  A    between atoms: C_10  and  C_11
REMARK    6  A    between atoms: C_17  and  C_23
REMARK    7  A    between atoms: C_24  and  C_26
REMARK                            x       y       z     vdW  Elec       q    Type
REMARK                         _______ _______ _______ _____ _____    ______ ____
ROOT
ATOM      1  N   UNL     1       0.048  -4.174   0.067  0.00  0.00    -0.266 N 
ATOM      2  C   UNL     1      -1.073  -4.904  -0.105  0.00  0.00    +0.252 C 
ATOM      3  O   UNL     1      -0.994  -6.071  -0.437  0.00  0.00    -0.270 OA
ENDROOT
BRANCH   1   8
ATOM      4  C   UNL     1      -0.322   1.370   1.208  0.00  0.00    +0.044 C 
ATOM      5  C   UNL     1      -0.224  -0.103   0.905  0.00  0.00    -0.050 A 
ATOM      6  C   UNL     1      -0.042  -1.009   1.934  0.00  0.00    +0.005 A 
ATOM      7  C   UNL     1       0.048  -2.359   1.659  0.00  0.00    +0.024 A 
ATOM      8  C   UNL     1      -0.043  -2.808   0.348  0.00  0.00    +0.040 A 
ATOM      9  C   UNL     1      -0.226  -1.895  -0.683  0.00  0.00    -0.029 A 
ATOM     10  C   UNL     1      -0.321  -0.547  -0.401  0.00  0.00    +0.008 A 
ATOM     11  C   UNL     1      -0.326  -2.377  -2.108  0.00  0.00    +0.045 C 
ENDBRANCH   1   8
BRANCH   2  12
ATOM     12  C   UNL     1      -2.397  -4.285   0.109  0.00  0.00    +0.051 A 
ATOM     13  C   UNL     1      -2.673  -3.615   1.302  0.00  0.00    +0.014 A 
ATOM     14  C   UNL     1      -3.911  -3.039   1.496  0.00  0.00    +0.001 A 
ATOM     15  C   UNL     1      -4.880  -3.123   0.511  0.00  0.00    +0.001 A 
ATOM     16  C   UNL     1      -4.614  -3.785  -0.674  0.00  0.00    +0.016 A 
ATOM     17  C   UNL     1      -3.377  -4.362  -0.884  0.00  0.00    +0.030 A 
ATOM     18 BR   UNL     1      -3.012  -5.260  -2.507  0.00  0.00    -0.050 Br
ENDBRANCH   2  12
BRANCH   1  19
ATOM     19  C   UNL     1       1.362  -4.814  -0.041  0.00  0.00    +0.131 C 
BRANCH  19  20
ATOM     20  C   UNL     1       1.862  -5.191   1.355  0.00  0.00    +0.116 C 
ATOM     21  C   UNL     1       3.337  -5.522   1.246  0.00  0.00    -0.003 C 
ATOM     22  C   UNL     1       3.730  -6.764   1.651  0.00  0.00    -0.007 A 
ATOM     23  C   UNL     1       5.135  -7.167   1.580  0.00  0.00    +0.010 A 
ATOM     24  C   UNL     1       5.480  -8.414   1.993  0.00  0.00    +0.004 A 
ATOM     25  C   UNL     1       4.526  -9.308   2.478  0.00  0.00    -0.049 A 
ATOM     26  C   UNL     1       3.207  -8.995   2.569  0.00  0.00    +0.027 A 
ATOM     27  C   UNL     1       2.744  -7.728   2.168  0.00  0.00    +0.041 A 
ATOM     28  N   UNL     1       1.448  -7.432   2.262  0.00  0.00    -0.284 N 
ATOM     29  C   UNL     1       0.947  -6.263   1.901  0.00  0.00    +0.226 C 
ATOM     30  O   UNL     1      -0.246  -6.051   2.010  0.00  0.00    -0.275 OA
ATOM     31  C   UNL     1       4.976 -10.677   2.920  0.00  0.00    +0.044 C 
ATOM     32  H   UNL     1       0.844  -8.106   2.611  0.00  0.00    +0.155 HD
ENDBRANCH  19  20
ENDBRANCH   1  19
TORSDOF 4
