REMARK  Name = ZINC01326996
REMARK  11 active torsions:
REMARK  status: ('A' for Active; 'I' for Inactive)
REMARK    1  A    between atoms: C_1  and  C_2
REMARK    2  A    between atoms: C_2  and  O_3
REMARK    3  A    between atoms: O_3  and  C_4
REMARK    4  A    between atoms: C_9  and  N_10
REMARK    5  A    between atoms: C_11  and  C_13
REMARK    6  A    between atoms: C_13  and  S_14
REMARK    7  A    between atoms: S_14  and  C_15
REMARK    8  A    between atoms: C_28  and  C_32
REMARK    9  A    between atoms: C_32  and  C_33
REMARK   10  A    between atoms: C_32  and  C_34
REMARK   11  A    between atoms: C_32  and  C_35
REMARK                            x       y       z     vdW  Elec       q    Type
REMARK                         _______ _______ _______ _____ _____    ______ ____
ROOT
ATOM      1  C   UNL     1       5.779   0.468  -0.016  0.00  0.00    +0.198 A 
ATOM      2  N   UNL     1       5.770   1.782  -0.004  0.00  0.00    -0.122 NA
ATOM      3  N   UNL     1       4.559   2.220   0.018  0.00  0.00    -0.128 NA
ATOM      4  C   UNL     1       3.725   1.210   0.022  0.00  0.00    +0.173 A 
ATOM      5  N   UNL     1       4.476   0.054  -0.000  0.00  0.00    -0.260 N 
ATOM      6  C   UNL     1       3.869  -1.168  -0.003  0.00  0.00    +0.208 A 
ATOM      7  N   UNL     1       2.571  -1.281   0.016  0.00  0.00    -0.230 NA
ATOM      8  C   UNL     1       1.765  -0.224   0.039  0.00  0.00    +0.114 A 
ATOM      9  C   UNL     1       2.251   1.092   0.044  0.00  0.00    +0.056 A 
ATOM     10  C   UNL     1       1.284   2.129   0.071  0.00  0.00    -0.024 A 
ATOM     11  C   UNL     1      -0.021   1.772   0.088  0.00  0.00    -0.004 A 
ATOM     12  S   UNL     1       0.003  -0.002   0.069  0.00  0.00    -0.073 S 
ATOM     13  C   UNL     1      -1.214   2.676   0.111  0.00  0.00    +0.046 C 
ATOM     14  C   UNL     1      -0.753   4.095  -0.246  0.00  0.00    -0.000 C 
ATOM     15  C   UNL     1       0.495   4.431   0.576  0.00  0.00    +0.009 C 
ATOM     16  C   UNL     1       1.682   3.604   0.082  0.00  0.00    +0.037 C 
ENDROOT
BRANCH  14  17
ATOM     17  C   UNL     1      -1.866   5.094   0.079  0.00  0.00    -0.035 C 
ATOM     18  C   UNL     1      -1.397   6.509  -0.264  0.00  0.00    +0.011 C 
ATOM     19  C   UNL     1      -3.111   4.756  -0.744  0.00  0.00    +0.011 C 
ATOM     20  C   UNL     1      -2.202   5.016   1.569  0.00  0.00    +0.011 C 
ENDBRANCH  14  17
BRANCH   1  21
ATOM     21  S   UNL     1       7.205  -0.567  -0.046  0.00  0.00    -0.076 S 
BRANCH  21  22
ATOM     22  C   UNL     1       8.594   0.599  -0.057  0.00  0.00    +0.173 C 
BRANCH  22  24
ATOM     23  N   UNL     1      11.065   0.497  -0.095  0.00  0.00    -0.282 N 
ATOM     24  C   UNL     1       9.892  -0.166  -0.083  0.00  0.00    +0.228 C 
ATOM     25  O   UNL     1       9.881  -1.379  -0.093  0.00  0.00    -0.275 OA
ATOM     26  H   UNL     1      11.075   1.464  -0.168  0.00  0.00    +0.155 HD
BRANCH  23  32
ATOM     27  C   UNL     1      13.446   0.342  -0.508  0.00  0.00    +0.142 A 
ATOM     28  C   UNL     1      14.635  -0.363  -0.414  0.00  0.00    +0.047 A 
ATOM     29  C   UNL     1      14.655  -1.610   0.181  0.00  0.00    +0.004 A 
ATOM     30  C   UNL     1      13.489  -2.159   0.684  0.00  0.00    +0.002 A 
ATOM     31  C   UNL     1      12.300  -1.461   0.598  0.00  0.00    +0.027 A 
ATOM     32  C   UNL     1      12.271  -0.211  -0.003  0.00  0.00    +0.076 A 
BRANCH  27  33
ATOM     33  O   UNL     1      13.425   1.569  -1.093  0.00  0.00    -0.490 OA
BRANCH  33  35
ATOM     34  C   UNL     1      14.447   3.455  -2.207  0.00  0.00    +0.048 C 
ATOM     35  C   UNL     1      14.667   2.072  -1.589  0.00  0.00    +0.226 C 
ENDBRANCH  33  35
ENDBRANCH  27  33
ENDBRANCH  23  32
ENDBRANCH  22  24
ENDBRANCH  21  22
ENDBRANCH   1  21
TORSDOF 7
