REMARK  Name = ZINC15732222
REMARK  8 active torsions:
REMARK  status: ('A' for Active; 'I' for Inactive)
REMARK    1  A    between atoms: C_1  and  C_2
REMARK    2  A    between atoms: C_2  and  N_61
REMARK    3  A    between atoms: C_6  and  C_8
REMARK    4  A    between atoms: C_8  and  N_9
REMARK    5  A    between atoms: C_10  and  C_12
REMARK    6  A    between atoms: C_15  and  N_17
REMARK    7  A    between atoms: C_23  and  O_32
REMARK    8  A    between atoms: O_32  and  C_33
REMARK                            x       y       z     vdW  Elec       q    Type
REMARK                         _______ _______ _______ _____ _____    ______ ____
ROOT
ATOM      1  C   UNL     1      -1.581  -1.574   3.683  0.00  0.00    +0.076 A 
ATOM      2  C   UNL     1      -1.704  -0.310   4.243  0.00  0.00    +0.022 A 
ATOM      3  C   UNL     1      -0.984   0.703   3.670  0.00  0.00    +0.032 A 
ATOM      4  C   UNL     1      -0.195   0.419   2.574  0.00  0.00    +0.073 A 
ATOM      5  S   UNL     1      -0.442  -1.281   2.341  0.00  0.00    -0.069 S 
ENDROOT
BRANCH   4   6
ATOM      6  N   UNL     1       0.605   1.282   1.842  0.00  0.00    -0.286 N 
ATOM      7  C   UNL     1       1.367   0.774   0.717  0.00  0.00    +0.150 C 
ATOM      8  C   UNL     1       0.955   1.368  -0.606  0.00  0.00    +0.016 A 
ATOM      9  C   UNL     1       1.484   0.733  -1.732  0.00  0.00    +0.009 A 
ATOM     10  C   UNL     1       1.198   1.174  -3.003  0.00  0.00    +0.004 A 
ATOM     11  C   UNL     1       0.372   2.269  -3.180  0.00  0.00    +0.049 A 
ATOM     12  C   UNL     1      -0.160   2.903  -2.075  0.00  0.00    +0.163 A 
ATOM     13  C   UNL     1       0.127   2.451  -0.776  0.00  0.00    +0.176 A 
ATOM     14  O   UNL     1      -0.465   3.147   0.218  0.00  0.00    -0.432 OA
ATOM     15  C   UNL     1       0.189   3.585   1.314  0.00  0.00    +0.242 A 
ATOM     16  C   UNL     1       0.672   2.628   2.195  0.00  0.00    +0.097 A 
ATOM     17  C   UNL     1       1.280   3.032   3.376  0.00  0.00    +0.030 A 
ATOM     18  C   UNL     1       1.415   4.396   3.603  0.00  0.00    +0.022 A 
ATOM     19  C   UNL     1       0.949   5.290   2.660  0.00  0.00    +0.115 A 
ATOM     20  N   UNL     1       0.356   4.872   1.555  0.00  0.00    -0.219 NA
BRANCH  12  21
ATOM     21  O   UNL     1      -0.972   3.980  -2.247  0.00  0.00    -0.491 OA
ATOM     22  C   UNL     1      -1.227   4.393  -3.591  0.00  0.00    +0.277 C 
ENDBRANCH  12  21
ENDBRANCH   4   6
BRANCH   1  24
ATOM     23  N   UNL     1      -1.949  -3.923   3.396  0.00  0.00    -0.312 N 
ATOM     24  C   UNL     1      -2.200  -2.787   4.076  0.00  0.00    +0.251 C 
ATOM     25  O   UNL     1      -2.959  -2.802   5.028  0.00  0.00    -0.270 OA
ATOM     26  H   UNL     1      -1.345  -3.911   2.637  0.00  0.00    +0.149 HD
BRANCH  23  27
ATOM     27  C   UNL     1      -2.589  -5.177   3.803  0.00  0.00    +0.089 C 
BRANCH  27  31
ATOM     28  C   UNL     1      -3.275  -7.128   0.789  0.00  0.00    -0.078 C 
ATOM     29  C   UNL     1      -3.066  -8.297   1.774  0.00  0.00    -0.020 C 
ATOM     30  C   UNL     1      -2.994  -7.585   3.151  0.00  0.00    -0.016 C 
ATOM     31  C   UNL     1      -2.261  -6.271   2.785  0.00  0.00    -0.051 C 
ATOM     32  N   UNL     1      -2.800  -5.907   1.459  0.00  0.00    +0.382 N 
ATOM     33  H   UNL     1      -3.586  -5.258   1.579  0.00  0.00    -0.081 HD
BRANCH  32  35
ATOM     34  C   UNL     1      -2.286  -4.997  -0.768  0.00  0.00    -0.017 C 
ATOM     35  C   UNL     1      -1.748  -5.249   0.641  0.00  0.00    -0.082 C 
ENDBRANCH  32  35
ENDBRANCH  27  31
ENDBRANCH  23  27
ENDBRANCH   1  24
TORSDOF 6
