REMARK  Name = ZINC39362841
REMARK  11 active torsions:
REMARK  status: ('A' for Active; 'I' for Inactive)
REMARK    1  A    between atoms: C_1  and  C_2
REMARK    2  A    between atoms: C_2  and  O_3
REMARK    3  A    between atoms: O_3  and  C_4
REMARK    4  A    between atoms: C_4  and  C_6
REMARK    5  A    between atoms: C_6  and  N_7
REMARK    6  A    between atoms: C_8  and  C_10
REMARK    7  A    between atoms: C_10  and  S_11
REMARK    8  A    between atoms: S_11  and  C_12
REMARK    9  A    between atoms: C_15  and  C_25
REMARK   10  A    between atoms: N_17  and  C_18
REMARK   11  A    between atoms: C_25  and  C_26
REMARK                            x       y       z     vdW  Elec       q    Type
REMARK                         _______ _______ _______ _____ _____    ______ ____
ROOT
ATOM      1  C   UNL     1      -5.189  -8.597  -0.027  0.00  0.00    +0.180 C 
ATOM      2  N   UNL     1      -4.018  -9.138  -0.026  0.00  0.00    -0.162 NA
ATOM      3  N   UNL     1      -4.099 -10.536   0.006  0.00  0.00    -0.246 N 
ATOM      4  C   UNL     1      -5.535 -10.863   0.028  0.00  0.00    +0.187 C 
ATOM      5  N   UNL     1      -6.198  -9.549   0.010  0.00  0.00    -0.258 N 
ATOM      6  H   UNL     1      -3.358 -11.162   0.013  0.00  0.00    +0.170 HD
ENDROOT
BRANCH   5   7
ATOM      7  C   UNL     1      -7.576  -9.307   0.025  0.00  0.00    +0.038 A 
ATOM      8  C   UNL     1      -8.360  -9.686  -1.057  0.00  0.00    +0.026 A 
ATOM      9  C   UNL     1      -9.720  -9.446  -1.040  0.00  0.00    +0.040 A 
ATOM     10  C   UNL     1     -10.302  -8.828   0.055  0.00  0.00    +0.124 A 
ATOM     11  C   UNL     1      -9.522  -8.449   1.134  0.00  0.00    +0.040 A 
ATOM     12  C   UNL     1      -8.162  -8.692   1.124  0.00  0.00    +0.026 A 
ATOM     13  F   UNL     1     -11.632  -8.594   0.069  0.00  0.00    -0.205 F 
ENDBRANCH   5   7
BRANCH   1  14
ATOM     14  S   UNL     1      -5.473  -6.858  -0.064  0.00  0.00    -0.079 S 
BRANCH  14  15
ATOM     15  C   UNL     1      -3.807  -6.142  -0.105  0.00  0.00    +0.172 C 
BRANCH  15  17
ATOM     16  N   UNL     1      -2.787  -3.890  -0.173  0.00  0.00    -0.304 N 
ATOM     17  C   UNL     1      -3.906  -4.639  -0.139  0.00  0.00    +0.224 C 
ATOM     18  O   UNL     1      -4.995  -4.103  -0.136  0.00  0.00    -0.275 OA
ATOM     19  H   UNL     1      -1.916  -4.318  -0.175  0.00  0.00    +0.149 HD
BRANCH  16  20
ATOM     20  C   UNL     1      -2.884  -2.429  -0.206  0.00  0.00    +0.224 C 
BRANCH  20  21
ATOM     21  C   UNL     1      -1.499  -1.834  -0.240  0.00  0.00    +0.324 C 
ATOM     22  O   UNL     1      -0.531  -2.557  -0.237  0.00  0.00    -0.249 OA
BRANCH  21  23
ATOM     23  O   UNL     1      -1.342  -0.501  -0.274  0.00  0.00    -0.464 OA
BRANCH  23  25
ATOM     24  C   UNL     1      -0.023   1.523  -0.340  0.00  0.00    +0.048 C 
ATOM     25  C   UNL     1      -0.002  -0.007  -0.305  0.00  0.00    +0.229 C 
ENDBRANCH  23  25
ENDBRANCH  21  23
ENDBRANCH  20  21
ENDBRANCH  16  20
ENDBRANCH  15  17
ENDBRANCH  14  15
ENDBRANCH   1  14
BRANCH   4  26
ATOM     26  C   UNL     1      -5.893 -11.626   1.305  0.00  0.00    +0.097 C 
BRANCH  26  27
ATOM     27  C   UNL     1      -5.125 -12.922   1.348  0.00  0.00    +0.029 A 
ATOM     28  N   UNL     1      -5.608 -14.028   0.703  0.00  0.00    -0.311 N 
ATOM     29  C   UNL     1      -4.930 -15.190   0.735  0.00  0.00    +0.327 A 
ATOM     30  O   UNL     1      -5.377 -16.161   0.156  0.00  0.00    -0.247 OA
ATOM     31  N   UNL     1      -3.764 -15.293   1.399  0.00  0.00    -0.275 N 
ATOM     32  C   UNL     1      -3.255 -14.225   2.047  0.00  0.00    +0.254 A 
ATOM     33  O   UNL     1      -2.199 -14.317   2.648  0.00  0.00    -0.268 OA
ATOM     34  C   UNL     1      -3.955 -12.995   2.018  0.00  0.00    +0.091 A 
ATOM     35  H   UNL     1      -3.288 -16.138   1.412  0.00  0.00    +0.173 HD
ATOM     36  H   UNL     1      -6.447 -13.975   0.219  0.00  0.00    +0.170 HD
ENDBRANCH  26  27
ENDBRANCH   4  26
TORSDOF 10
