REMARK  Name = ZINC27530865
REMARK  11 active torsions:
REMARK  status: ('A' for Active; 'I' for Inactive)
REMARK    1  A    between atoms: C_1  and  C_2
REMARK    2  A    between atoms: C_2  and  O_3
REMARK    3  A    between atoms: O_3  and  C_4
REMARK    4  A    between atoms: C_4  and  C_6
REMARK    5  A    between atoms: C_6  and  C_7
REMARK    6  A    between atoms: C_6  and  N_11
REMARK    7  A    between atoms: C_6  and  N_24
REMARK    8  A    between atoms: N_11  and  C_12
REMARK    9  A    between atoms: C_13  and  C_22
REMARK   10  A    between atoms: N_27  and  C_28
REMARK   11  A    between atoms: N_27  and  C_29
REMARK                            x       y       z     vdW  Elec       q    Type
REMARK                         _______ _______ _______ _____ _____    ______ ____
ROOT
ATOM      1  C   UNL     1       0.156  -0.005  -0.065  0.00  0.00    +0.297 C 
ENDROOT
BRANCH   1   2
ATOM      2  N   UNL     1       0.146   1.460  -0.076  0.00  0.00    -0.262 N 
ATOM      3  C   UNL     1      -1.020   2.127   0.035  0.00  0.00    +0.304 C 
ATOM      4  O   UNL     1      -2.051   1.518   0.248  0.00  0.00    -0.253 OA
ATOM      5  N   UNL     1      -1.044   3.469  -0.092  0.00  0.00    -0.292 N 
ATOM      6  C   UNL     1      -2.288   4.205   0.145  0.00  0.00    +0.133 C 
ATOM      7  C   UNL     1       0.175   4.191  -0.466  0.00  0.00    +0.133 C 
ATOM      8  H   UNL     1       1.090   2.016  -0.175  0.00  0.00    +0.153 HD
ENDBRANCH   1   2
BRANCH   1   9
ATOM      9  C   UNL     1      -0.321  -0.507   1.299  0.00  0.00    +0.438 C 
ATOM     10  F   UNL     1      -1.583   0.029   1.579  0.00  0.00    -0.166 F 
ATOM     11  F   UNL     1      -0.402  -1.904   1.279  0.00  0.00    -0.166 F 
ATOM     12  F   UNL     1       0.585  -0.107   2.287  0.00  0.00    -0.166 F 
ENDBRANCH   1   9
BRANCH   1  13
ATOM     13  C   UNL     1      -0.765  -0.521  -1.141  0.00  0.00    +0.359 C 
ATOM     14  O   UNL     1      -0.406  -1.423  -1.861  0.00  0.00    -0.246 OA
BRANCH  13  15
ATOM     15  O   UNL     1      -1.982   0.021  -1.300  0.00  0.00    -0.462 OA
BRANCH  15  17
ATOM     16  C   UNL     1      -4.155   0.211  -2.383  0.00  0.00    +0.048 C 
ATOM     17  C   UNL     1      -2.815  -0.527  -2.356  0.00  0.00    +0.229 C 
ENDBRANCH  15  17
ENDBRANCH  13  15
ENDBRANCH   1  13
BRANCH   1  18
ATOM     18  N   UNL     1       1.517  -0.486  -0.315  0.00  0.00    -0.301 N 
ATOM     19  H   UNL     1       2.056  -1.041   0.467  0.00  0.00    +0.149 HD
BRANCH  18  20
ATOM     20  C   UNL     1       2.125  -0.241  -1.534  0.00  0.00    +0.086 A 
ATOM     21  C   UNL     1       3.355  -0.689  -1.988  0.00  0.00    +0.083 A 
ATOM     22  C   UNL     1       3.768  -0.292  -3.328  0.00  0.00    -0.018 A 
ATOM     23  C   UNL     1       2.892   0.499  -3.982  0.00  0.00    -0.004 A 
ATOM     24  S   UNL     1       1.536   0.705  -2.860  0.00  0.00    -0.077 S 
ATOM     25  C   UNL     1       3.036   1.088  -5.351  0.00  0.00    +0.043 C 
ATOM     26  C   UNL     1       3.464  -0.011  -6.333  0.00  0.00    +0.005 C 
ATOM     27  C   UNL     1       4.989  -0.068  -6.357  0.00  0.00    +0.001 C 
ATOM     28  C   UNL     1       5.550   0.282  -4.980  0.00  0.00    +0.005 C 
ATOM     29  C   UNL     1       5.089  -0.737  -3.943  0.00  0.00    +0.037 C 
BRANCH  21  30
ATOM     30  C   UNL     1       4.191  -1.516  -1.170  0.00  0.00    +0.102 C 
ATOM     31  N   UNL     1       4.853  -2.172  -0.521  0.00  0.00    -0.191 NA
ENDBRANCH  21  30
ENDBRANCH  18  20
ENDBRANCH   1  18
TORSDOF 8
