REMARK  Name = ZINC28056115
REMARK  6 active torsions:
REMARK  status: ('A' for Active; 'I' for Inactive)
REMARK    1  A    between atoms: C_1  and  O_2
REMARK    2  A    between atoms: O_2  and  C_3
REMARK    3  A    between atoms: C_6  and  C_9
REMARK    4  A    between atoms: C_20  and  C_22
REMARK    5  A    between atoms: C_25  and  S_28
REMARK    6  A    between atoms: S_28  and  C_29
REMARK                            x       y       z     vdW  Elec       q    Type
REMARK                         _______ _______ _______ _____ _____    ______ ____
ROOT
ATOM      1  C   UNL     1      -2.900   3.671   0.050  0.00  0.00    +0.174 C 
ATOM      2  C   UNL     1      -3.508   3.382  -1.300  0.00  0.00    +0.025 C 
ATOM      3  C   UNL     1      -4.549   2.562  -1.454  0.00  0.00    +0.050 C 
ATOM      4  C   UNL     1      -5.064   2.323  -2.824  0.00  0.00    +0.039 A 
ATOM      5  C   UNL     1      -6.317   1.764  -3.041  0.00  0.00    +0.033 A 
ATOM      6  C   UNL     1      -6.755   1.556  -4.336  0.00  0.00    +0.042 A 
ATOM      7  C   UNL     1      -5.950   1.900  -5.409  0.00  0.00    +0.023 A 
ATOM      8  C   UNL     1      -4.701   2.457  -5.200  0.00  0.00    +0.048 A 
ATOM      9  C   UNL     1      -4.252   2.672  -3.911  0.00  0.00    +0.131 A 
ATOM     10  O   UNL     1      -3.034   3.218  -3.664  0.00  0.00    -0.479 OA
ATOM     11  C   UNL     1      -2.918   4.058  -2.517  0.00  0.00    +0.234 C 
ATOM     12 CL   UNL     1      -8.319   0.858  -4.618  0.00  0.00    -0.084 Cl
ATOM     13  N   UNL     1      -5.171   1.930  -0.370  0.00  0.00    -0.282 N 
ATOM     14  C   UNL     1      -4.845   2.379   0.899  0.00  0.00    +0.240 A 
ATOM     15  N   UNL     1      -3.783   3.201   1.108  0.00  0.00    -0.201 N 
ATOM     16  N   UNL     1      -3.768   3.448   2.480  0.00  0.00    -0.042 NA
ATOM     17  N   UNL     1      -4.763   2.790   2.983  0.00  0.00    -0.021 NA
ATOM     18  N   UNL     1      -5.399   2.159   2.057  0.00  0.00    -0.092 NA
ATOM     19  H   UNL     1      -5.885   1.113  -0.545  0.00  0.00    +0.155 HD
ENDROOT
BRANCH   1  23
ATOM     20  C   UNL     1       0.869   1.682   0.363  0.00  0.00    +0.120 A 
ATOM     21  C   UNL     1      -0.289   0.948   0.152  0.00  0.00    +0.046 A 
ATOM     22  C   UNL     1      -1.505   1.593   0.045  0.00  0.00    +0.009 A 
ATOM     23  C   UNL     1      -1.571   2.970   0.161  0.00  0.00    -0.018 A 
ATOM     24  C   UNL     1      -0.419   3.704   0.372  0.00  0.00    +0.009 A 
ATOM     25  C   UNL     1       0.801   3.063   0.473  0.00  0.00    +0.046 A 
BRANCH  20  27
ATOM     26  C   UNL     1       3.218   1.869   0.680  0.00  0.00    +0.277 C 
ATOM     27  O   UNL     1       2.068   1.050   0.462  0.00  0.00    -0.495 OA
ENDBRANCH  20  27
ENDBRANCH   1  23
BRANCH  11  28
ATOM     28  C   UNL     1      -3.650   5.350  -2.771  0.00  0.00    -0.003 A 
ATOM     29  C   UNL     1      -3.060   6.556  -2.436  0.00  0.00    +0.008 A 
ATOM     30  C   UNL     1      -3.726   7.742  -2.672  0.00  0.00    +0.015 A 
ATOM     31  C   UNL     1      -4.996   7.723  -3.237  0.00  0.00    +0.008 A 
ATOM     32  C   UNL     1      -5.588   6.510  -3.568  0.00  0.00    +0.015 A 
ATOM     33  C   UNL     1      -4.913   5.328  -3.334  0.00  0.00    +0.008 A 
BRANCH  31  34
ATOM     34  S   UNL     1      -5.853   9.234  -3.534  0.00  0.00    -0.129 S 
ATOM     35  C   UNL     1      -4.704  10.511  -2.952  0.00  0.00    +0.090 C 
ENDBRANCH  31  34
ENDBRANCH  11  28
TORSDOF 4
