REMARK  Name = ZINC39671475
REMARK  7 active torsions:
REMARK  status: ('A' for Active; 'I' for Inactive)
REMARK    1  A    between atoms: C_1  and  C_2
REMARK    2  A    between atoms: C_2  and  O_3
REMARK    3  A    between atoms: O_3  and  C_4
REMARK    4  A    between atoms: C_9  and  C_10
REMARK    5  A    between atoms: C_14  and  C_23
REMARK    6  A    between atoms: N_25  and  C_26
REMARK    7  A    between atoms: C_26  and  C_27
REMARK                            x       y       z     vdW  Elec       q    Type
REMARK                         _______ _______ _______ _____ _____    ______ ____
ROOT
ATOM      1  C   UNL     1      -4.137  -1.281   0.133  0.00  0.00    +0.250 C 
ATOM      2  O   UNL     1      -4.105  -0.071   0.254  0.00  0.00    -0.270 OA
ATOM      3  N   UNL     1      -5.320  -1.914   0.004  0.00  0.00    -0.296 N 
ATOM      4  C   UNL     1      -5.567  -3.374  -0.046  0.00  0.00    +0.121 C 
ATOM      5  C   UNL     1      -6.862  -3.579   0.772  0.00  0.00    +0.100 C 
ATOM      6  C   UNL     1      -7.579  -2.220   0.718  0.00  0.00    -0.004 C 
ATOM      7  C   UNL     1      -6.667  -1.307  -0.115  0.00  0.00    +0.115 C 
ATOM      8  C   UNL     1      -7.742  -1.651   2.124  0.00  0.00    -0.010 C 
ATOM      9  C   UNL     1      -8.508  -0.327   2.049  0.00  0.00    -0.082 C 
ATOM     10  N   UNL     1      -9.823  -0.555   1.436  0.00  0.00    +0.379 N 
ATOM     11  C   UNL     1      -9.657  -1.014   0.052  0.00  0.00    -0.082 C 
ATOM     12  C   UNL     1      -8.940  -2.366   0.042  0.00  0.00    -0.010 C 
ATOM     13  H   UNL     1     -10.322  -1.255   1.964  0.00  0.00    -0.086 HD
ATOM     14  H   UNL     1     -10.349   0.306   1.443  0.00  0.00    -0.086 HD
ENDROOT
BRANCH   1  20
ATOM     15  C   UNL     1      -1.794  -1.640   0.910  0.00  0.00    +0.133 A 
ATOM     16  C   UNL     1      -0.620  -2.379   0.902  0.00  0.00    +0.046 A 
ATOM     17  C   UNL     1      -0.523  -3.515   0.124  0.00  0.00    +0.004 A 
ATOM     18  C   UNL     1      -1.593  -3.926  -0.654  0.00  0.00    +0.001 A 
ATOM     19  C   UNL     1      -2.767  -3.204  -0.659  0.00  0.00    +0.017 A 
ATOM     20  C   UNL     1      -2.881  -2.055   0.129  0.00  0.00    +0.078 A 
BRANCH  15  21
ATOM     21  O   UNL     1      -1.891  -0.523   1.673  0.00  0.00    -0.491 OA
BRANCH  21  23
ATOM     22  C   UNL     1      -1.040   1.114   3.233  0.00  0.00    +0.048 C 
ATOM     23  C   UNL     1      -0.743  -0.162   2.443  0.00  0.00    +0.226 C 
ENDBRANCH  21  23
ENDBRANCH  15  21
ENDBRANCH   1  20
BRANCH   5  24
ATOM     24  C   UNL     1      -6.530  -3.943   2.196  0.00  0.00    +0.219 C 
ATOM     25  O   UNL     1      -5.508  -3.534   2.704  0.00  0.00    -0.275 OA
ATOM     26  N   UNL     1      -7.370  -4.723   2.905  0.00  0.00    -0.309 N 
ATOM     27  H   UNL     1      -8.188  -5.050   2.499  0.00  0.00    +0.149 HD
BRANCH  26  28
ATOM     28  C   UNL     1      -7.048  -5.077   4.290  0.00  0.00    +0.157 C 
BRANCH  28  29
ATOM     29  C   UNL     1      -8.140  -5.949   4.853  0.00  0.00    +0.034 A 
ATOM     30  H   UNL     1      -9.533  -4.556   5.528  0.00  0.00    +0.166 HD
ATOM     31  C   UNL     1      -8.121  -7.292   4.872  0.00  0.00    +0.032 A 
ATOM     32  C   UNL     1      -9.369  -7.729   5.503  0.00  0.00    -0.000 A 
ATOM     33  C   UNL     1      -9.919  -8.976   5.805  0.00  0.00    +0.010 A 
ATOM     34  C   UNL     1     -11.139  -9.049   6.414  0.00  0.00    +0.001 A 
ATOM     35  C   UNL     1     -11.837  -7.894   6.737  0.00  0.00    +0.002 A 
ATOM     36  C   UNL     1     -11.313  -6.652   6.448  0.00  0.00    +0.026 A 
ATOM     37  C   UNL     1     -10.072  -6.554   5.828  0.00  0.00    +0.047 A 
ATOM     38  N   UNL     1      -9.295  -5.491   5.425  0.00  0.00    -0.357 N 
ENDBRANCH  28  29
ENDBRANCH  26  28
ENDBRANCH   5  24
TORSDOF 6
