REMARK  Name = ZINC16805034
REMARK  10 active torsions:
REMARK  status: ('A' for Active; 'I' for Inactive)
REMARK    1  A    between atoms: C_1  and  C_2
REMARK    2  A    between atoms: C_2  and  O_3
REMARK    3  A    between atoms: O_3  and  C_4
REMARK    4  A    between atoms: C_4  and  C_6
REMARK    5  A    between atoms: C_8  and  C_24
REMARK    6  A    between atoms: C_17  and  C_19
REMARK    7  A    between atoms: C_19  and  O_21
REMARK    8  A    between atoms: O_21  and  C_22
REMARK    9  A    between atoms: C_22  and  C_23
REMARK   10  A    between atoms: C_26  and  N_31
REMARK                            x       y       z     vdW  Elec       q    Type
REMARK                         _______ _______ _______ _____ _____    ______ ____
ROOT
ATOM      1  C   UNL     1       0.333   0.615  -5.639  0.00  0.00    +0.134 C 
ATOM      2  C   UNL     1       1.690   1.225  -5.296  0.00  0.00    +0.078 C 
ATOM      3  C   UNL     1       1.903   2.522  -6.000  0.00  0.00    +0.035 A 
ATOM      4  C   UNL     1       0.997   3.356  -6.550  0.00  0.00    +0.113 A 
ATOM      5  N   UNL     1       1.498   4.495  -7.133  0.00  0.00    -0.196 NA
ATOM      6  C   UNL     1       2.825   4.730  -7.139  0.00  0.00    +0.311 A 
ATOM      7  O   UNL     1       3.432   5.676  -7.609  0.00  0.00    -0.258 OA
ATOM      8  S   UNL     1       3.450   3.340  -6.309  0.00  0.00    -0.028 S 
ATOM      9  S   UNL     1      -0.740   2.962  -6.501  0.00  0.00    -0.089 S 
ATOM     10  C   UNL     1      -0.786   1.604  -5.292  0.00  0.00    +0.176 C 
ENDROOT
BRANCH   2  11
ATOM     11  C   UNL     1       2.777   0.263  -5.699  0.00  0.00    +0.010 A 
ATOM     12  C   UNL     1       3.021   0.014  -7.036  0.00  0.00    +0.040 A 
ATOM     13  C   UNL     1       4.022  -0.864  -7.406  0.00  0.00    +0.127 A 
ATOM     14  C   UNL     1       4.775  -1.505  -6.439  0.00  0.00    +0.036 A 
ATOM     15  C   UNL     1       4.532  -1.264  -5.100  0.00  0.00    +0.053 A 
ATOM     16  C   UNL     1       3.531  -0.378  -4.727  0.00  0.00    +0.183 A 
ATOM     17  O   UNL     1       3.290  -0.139  -3.411  0.00  0.00    -0.288 OA
BRANCH  13  18
ATOM     18  N   UNL     1       4.285  -1.124  -8.839  0.00  0.00    +0.056 N 
ATOM     19  O   UNL     1       5.165  -1.901  -9.165  0.00  0.00    -0.126 OA
ATOM     20  O   UNL     1       3.623  -0.560  -9.691  0.00  0.00    -0.126 OA
ENDBRANCH  13  18
ENDBRANCH   2  11
BRANCH   1  21
ATOM     21  C   UNL     1       0.283   0.299  -7.111  0.00  0.00    +0.313 C 
ATOM     22  O   UNL     1       0.315   1.194  -7.923  0.00  0.00    -0.250 OA
BRANCH  21  23
ATOM     23  O   UNL     1       0.204  -0.977  -7.522  0.00  0.00    -0.465 OA
BRANCH  23  25
ATOM     24  C   UNL     1       0.072  -2.710  -9.228  0.00  0.00    +0.048 C 
ATOM     25  C   UNL     1       0.160  -1.207  -8.955  0.00  0.00    +0.229 C 
ENDBRANCH  23  25
ENDBRANCH  21  23
ENDBRANCH   1  21
BRANCH  10  26
ATOM     26  C   UNL     1      -2.120   0.906  -5.361  0.00  0.00    +0.321 C 
ATOM     27  O   UNL     1      -2.275  -0.028  -6.111  0.00  0.00    -0.250 OA
BRANCH  26  28
ATOM     28  O   UNL     1      -3.137   1.324  -4.590  0.00  0.00    -0.464 OA
BRANCH  28  29
ATOM     29  C   UNL     1      -4.393   0.605  -4.709  0.00  0.00    +0.229 C 
ATOM     30  C   UNL     1      -5.424   1.220  -3.761  0.00  0.00    +0.048 C 
ENDBRANCH  28  29
ENDBRANCH  26  28
ENDBRANCH  10  26
TORSDOF 8
