REMARK  Name = ZINC22716130
REMARK  3 active torsions:
REMARK  status: ('A' for Active; 'I' for Inactive)
REMARK    1  A    between atoms: C_1  and  C_2
REMARK    2  A    between atoms: C_33  and  N_37
REMARK    3  A    between atoms: C_34  and  C_35
REMARK                            x       y       z     vdW  Elec       q    Type
REMARK                         _______ _______ _______ _____ _____    ______ ____
ROOT
ATOM      1  C   UNL     1      -0.019   1.525   0.010  0.00  0.00    +0.012 C 
ATOM      2  C   UNL     1       0.002  -0.004   0.002  0.00  0.00    +0.020 C 
ATOM      3  C   UNL     1       0.727  -0.489  -1.256  0.00  0.00    +0.034 C 
ATOM      4  C   UNL     1       0.784  -2.031  -1.319  0.00  0.00    +0.043 C 
ATOM      5  C   UNL     1       1.516  -2.393  -2.600  0.00  0.00    +0.026 C 
ATOM      6  C   UNL     1       1.373  -3.840  -3.036  0.00  0.00    +0.002 C 
ATOM      7  C   UNL     1      -0.090  -4.285  -3.013  0.00  0.00    +0.000 C 
ATOM      8  C   UNL     1      -0.655  -4.063  -1.608  0.00  0.00    +0.002 C 
ATOM      9  C   UNL     1      -0.646  -2.563  -1.311  0.00  0.00    +0.026 C 
ATOM     10  N   UNL     1       1.488  -2.489  -0.110  0.00  0.00    -0.263 N 
ATOM     11  C   UNL     1       1.428  -1.719   1.057  0.00  0.00    +0.045 A 
ATOM     12  C   UNL     1       0.737  -0.514   1.207  0.00  0.00    -0.023 A 
ATOM     13  C   UNL     1       0.789   0.092   2.438  0.00  0.00    +0.006 A 
ATOM     14  C   UNL     1       1.518  -0.469   3.478  0.00  0.00    +0.001 A 
ATOM     15  C   UNL     1       2.211  -1.667   3.334  0.00  0.00    +0.007 A 
ATOM     16  C   UNL     1       2.144  -2.284   2.103  0.00  0.00    -0.001 A 
ATOM     17  C   UNL     1       2.702  -3.557   1.557  0.00  0.00    +0.148 C 
ATOM     18  C   UNL     1       2.219  -3.590   0.112  0.00  0.00    +0.241 C 
ATOM     19  O   UNL     1       2.472  -4.489  -0.660  0.00  0.00    -0.273 OA
ATOM     20  C   UNL     1       2.148  -4.744   2.294  0.00  0.00    +0.104 A 
ATOM     21  C   UNL     1       2.959  -5.522   3.067  0.00  0.00    +0.152 A 
ATOM     22  C   UNL     1       2.360  -6.682   3.748  0.00  0.00    +0.060 A 
ATOM     23  C   UNL     1       3.131  -7.516   4.559  0.00  0.00    +0.015 A 
ATOM     24  C   UNL     1       2.543  -8.596   5.179  0.00  0.00    +0.001 A 
ATOM     25  C   UNL     1       1.192  -8.855   5.000  0.00  0.00    +0.004 A 
ATOM     26  C   UNL     1       0.419  -8.037   4.204  0.00  0.00    +0.047 A 
ATOM     27  C   UNL     1       0.992  -6.941   3.570  0.00  0.00    +0.143 A 
ATOM     28  O   UNL     1       0.244  -6.133   2.792  0.00  0.00    -0.422 OA
ATOM     29  C   UNL     1       0.781  -5.056   2.202  0.00  0.00    +0.346 A 
ATOM     30  O   UNL     1       0.047  -4.319   1.569  0.00  0.00    -0.245 OA
ATOM     31  O   UNL     1       4.267  -5.252   3.221  0.00  0.00    -0.440 OA
ATOM     32  C   UNL     1       4.890  -4.388   2.402  0.00  0.00    +0.199 C 
ATOM     33  C   UNL     1       4.201  -3.553   1.586  0.00  0.00    +0.110 C 
ENDROOT
BRANCH  32  34
ATOM     34  N   UNL     1       6.263  -4.348   2.392  0.00  0.00    -0.328 N 
ATOM     35  H   UNL     1       6.770  -4.939   2.970  0.00  0.00    +0.145 HD
ATOM     36  H   UNL     1       6.726  -3.729   1.806  0.00  0.00    +0.145 HD
ENDBRANCH  32  34
BRANCH  33  37
ATOM     37  C   UNL     1       4.926  -2.652   0.738  0.00  0.00    +0.102 C 
ATOM     38  N   UNL     1       5.500  -1.939   0.066  0.00  0.00    -0.191 NA
ENDBRANCH  33  37
TORSDOF 2
