REMARK  Name = ZINC36680774
REMARK  12 active torsions:
REMARK  status: ('A' for Active; 'I' for Inactive)
REMARK    1  A    between atoms: C_1  and  C_2
REMARK    2  A    between atoms: C_2  and  O_3
REMARK    3  A    between atoms: O_3  and  C_4
REMARK    4  A    between atoms: C_7  and  C_13
REMARK    5  A    between atoms: C_9  and  O_10
REMARK    6  A    between atoms: O_10  and  C_11
REMARK    7  A    between atoms: C_11  and  C_12
REMARK    8  A    between atoms: C_19  and  C_21
REMARK    9  A    between atoms: C_24  and  S_27
REMARK   10  A    between atoms: S_27  and  C_30
REMARK   11  A    between atoms: C_30  and  C_31
REMARK   12  A    between atoms: C_30  and  C_32
REMARK                            x       y       z     vdW  Elec       q    Type
REMARK                         _______ _______ _______ _____ _____    ______ ____
ROOT
ATOM      1  C   UNL     1      -1.993  -6.071  -0.012  0.00  0.00    +0.250 A 
ATOM      2  N   UNL     1      -3.132  -6.721  -0.015  0.00  0.00    -0.106 NA
ATOM      3  N   UNL     1      -2.901  -7.987  -0.022  0.00  0.00    -0.092 NA
ATOM      4  C   UNL     1      -1.607  -8.195  -0.023  0.00  0.00    +0.315 A 
ATOM      5  O   UNL     1      -1.004  -6.991  -0.022  0.00  0.00    -0.405 OA
ATOM      6  N   UNL     1      -0.975  -9.427  -0.028  0.00  0.00    -0.234 N 
ATOM      7  C   UNL     1      -1.706 -10.559  -0.034  0.00  0.00    +0.252 C 
ATOM      8  O   UNL     1      -2.921 -10.499  -0.034  0.00  0.00    -0.270 OA
ATOM      9  H   UNL     1      -0.006  -9.476  -0.028  0.00  0.00    +0.160 HD
ENDROOT
BRANCH   1  13
ATOM     10  C   UNL     1      -1.498  -1.849   0.006  0.00  0.00    +0.162 A 
ATOM     11  C   UNL     1      -0.386  -2.677  -0.003  0.00  0.00    +0.050 A 
ATOM     12  C   UNL     1      -0.543  -4.048  -0.009  0.00  0.00    +0.017 A 
ATOM     13  C   UNL     1      -1.823  -4.604  -0.005  0.00  0.00    +0.042 A 
ATOM     14  C   UNL     1      -2.943  -3.770   0.004  0.00  0.00    +0.062 A 
ATOM     15  C   UNL     1      -2.779  -2.397   0.016  0.00  0.00    +0.163 A 
BRANCH  10  16
ATOM     16  O   UNL     1      -1.339  -0.499   0.012  0.00  0.00    -0.489 OA
BRANCH  16  18
ATOM     17  C   UNL     1      -0.019   1.526   0.010  0.00  0.00    +0.048 C 
ATOM     18  C   UNL     1       0.002  -0.004   0.002  0.00  0.00    +0.226 C 
ENDBRANCH  16  18
ENDBRANCH  10  16
BRANCH  15  19
ATOM     19  O   UNL     1      -3.868  -1.582   0.031  0.00  0.00    -0.489 OA
BRANCH  19  20
ATOM     20  C   UNL     1      -5.150  -2.212   0.040  0.00  0.00    +0.226 C 
ATOM     21  C   UNL     1      -6.244  -1.143   0.057  0.00  0.00    +0.048 C 
ENDBRANCH  19  20
ENDBRANCH  15  19
ENDBRANCH   1  13
BRANCH   7  22
ATOM     22  C   UNL     1      -1.032 -11.875  -0.040  0.00  0.00    +0.037 A 
ATOM     23  C   UNL     1       0.362 -11.948  -0.034  0.00  0.00    +0.015 A 
ATOM     24  C   UNL     1       0.985 -13.179  -0.039  0.00  0.00    +0.028 A 
ATOM     25  C   UNL     1       0.231 -14.339  -0.050  0.00  0.00    +0.088 A 
ATOM     26  C   UNL     1      -1.151 -14.274  -0.057  0.00  0.00    +0.028 A 
ATOM     27  C   UNL     1      -1.787 -13.049  -0.046  0.00  0.00    +0.015 A 
BRANCH  25  28
ATOM     28  S   UNL     1       1.034 -15.907  -0.057  0.00  0.00    -0.001 S 
ATOM     29  O   UNL     1       0.104 -16.789  -0.671  0.00  0.00    -0.169 OA
ATOM     30  O   UNL     1       2.301 -15.662  -0.653  0.00  0.00    -0.169 OA
BRANCH  28  31
ATOM     31  C   UNL     1       1.239 -16.334   1.694  0.00  0.00    +0.130 C 
ATOM     32  C   UNL     1       2.043 -17.630   1.812  0.00  0.00    +0.032 C 
ATOM     33  C   UNL     1       1.982 -15.205   2.411  0.00  0.00    +0.032 C 
ENDBRANCH  28  31
ENDBRANCH  25  28
ENDBRANCH   7  22
TORSDOF 8
