REMARK  Name = ZINC28047974
REMARK  4 active torsions:
REMARK  status: ('A' for Active; 'I' for Inactive)
REMARK    1  A    between atoms: C_6  and  C_7
REMARK    2  A    between atoms: C_20  and  C_22
REMARK    3  A    between atoms: C_22  and  O_23
REMARK    4  A    between atoms: O_23  and  C_24
REMARK                            x       y       z     vdW  Elec       q    Type
REMARK                         _______ _______ _______ _____ _____    ______ ____
ROOT
ATOM      1  C   UNL     1      -2.622   3.757   0.063  0.00  0.00    +0.139 C 
ATOM      2  C   UNL     1      -1.301   3.053   0.035  0.00  0.00    -0.001 A 
ATOM      3  C   UNL     1      -1.353   1.661  -0.004  0.00  0.00    +0.009 A 
ATOM      4  C   UNL     1      -0.206   0.901  -0.013  0.00  0.00    +0.020 A 
ATOM      5  C   UNL     1       1.027   1.531   0.007  0.00  0.00    +0.043 A 
ATOM      6  C   UNL     1       1.088   2.904   0.036  0.00  0.00    +0.043 A 
ATOM      7  C   UNL     1      -0.076   3.690   0.046  0.00  0.00    +0.040 A 
ATOM      8  N   UNL     1       0.136   5.047   0.077  0.00  0.00    -0.284 N 
ATOM      9  C   UNL     1      -0.564   6.124  -0.130  0.00  0.00    +0.235 C 
ATOM     10  O   UNL     1       0.055   7.142  -0.356  0.00  0.00    -0.274 OA
ATOM     11  C   UNL     1      -2.055   6.232  -0.118  0.00  0.00    +0.204 C 
ATOM     12  N   UNL     1      -2.650   5.013  -0.638  0.00  0.00    -0.279 N 
ATOM     13  C   UNL     1      -3.259   5.061  -1.839  0.00  0.00    +0.254 C 
ATOM     14  O   UNL     1      -3.766   4.062  -2.302  0.00  0.00    -0.272 OA
ATOM     15 CL   UNL     1       2.487   0.592  -0.004  0.00  0.00    -0.083 Cl
ATOM     16  H   UNL     1       1.129   5.443   0.336  0.00  0.00    +0.155 HD
ENDROOT
BRANCH   1  22
ATOM     17  C   UNL     1      -4.177   3.486   2.006  0.00  0.00    +0.008 A 
ATOM     18  C   UNL     1      -4.521   3.708   3.326  0.00  0.00    +0.038 A 
ATOM     19  C   UNL     1      -3.692   4.461   4.139  0.00  0.00    +0.123 A 
ATOM     20  C   UNL     1      -2.515   4.985   3.631  0.00  0.00    +0.038 A 
ATOM     21  C   UNL     1      -2.170   4.757   2.313  0.00  0.00    +0.008 A 
ATOM     22  C   UNL     1      -2.999   4.005   1.501  0.00  0.00    -0.022 A 
ATOM     23  F   UNL     1      -4.030   4.684   5.428  0.00  0.00    -0.205 F 
ENDBRANCH   1  22
BRANCH  13  24
ATOM     24  C   UNL     1      -3.310   6.357  -2.606  0.00  0.00    +0.324 C 
BRANCH  24  25
ATOM     25  O   UNL     1      -4.003   6.153  -3.839  0.00  0.00    -0.483 OA
BRANCH  25  26
ATOM     26  C   UNL     1      -4.138   7.231  -4.657  0.00  0.00    +0.121 A 
ATOM     27  C   UNL     1      -3.620   8.460  -4.276  0.00  0.00    +0.047 A 
ATOM     28  C   UNL     1      -3.755   9.553  -5.110  0.00  0.00    +0.023 A 
ATOM     29  C   UNL     1      -4.415   9.425  -6.319  0.00  0.00    +0.041 A 
ATOM     30  C   UNL     1      -4.937   8.201  -6.698  0.00  0.00    +0.023 A 
ATOM     31  C   UNL     1      -4.800   7.104  -5.869  0.00  0.00    +0.047 A 
ATOM     32 CL   UNL     1      -4.588  10.802  -7.363  0.00  0.00    -0.084 Cl
ENDBRANCH  25  26
ENDBRANCH  24  25
ENDBRANCH  13  24
TORSDOF 4
