REMARK  Name = ZINC34618599
REMARK  4 active torsions:
REMARK  status: ('A' for Active; 'I' for Inactive)
REMARK    1  A    between atoms: C_1  and  C_11
REMARK    2  A    between atoms: C_2  and  C_4
REMARK    3  A    between atoms: C_5  and  C_7
REMARK    4  A    between atoms: C_11  and  C_13
REMARK                            x       y       z     vdW  Elec       q    Type
REMARK                         _______ _______ _______ _____ _____    ______ ____
ROOT
ATOM      1  C   UNL     1      -0.017   1.397   0.010  0.00  0.00    +0.106 C 
ATOM      2  C   UNL     1       0.002  -0.004   0.002  0.00  0.00    +0.186 C 
ATOM      3  O   UNL     1       1.181  -0.664  -0.013  0.00  0.00    -0.288 OA
ENDROOT
BRANCH   2   4
ATOM      4  C   UNL     1      -1.201  -0.721   0.010  0.00  0.00    +0.106 C 
ATOM      5  C   UNL     1      -1.183  -2.082   0.002  0.00  0.00    +0.262 C 
ATOM      6  O   UNL     1      -0.113  -2.680  -0.011  0.00  0.00    -0.283 OA
BRANCH   5   7
ATOM      7  C   UNL     1      -2.478  -2.853   0.010  0.00  0.00    +0.455 C 
ATOM      8  F   UNL     1      -3.553  -1.959   0.025  0.00  0.00    -0.163 F 
ATOM      9  F   UNL     1      -2.552  -3.652  -1.135  0.00  0.00    -0.163 F 
ATOM     10  F   UNL     1      -2.530  -3.664   1.149  0.00  0.00    -0.163 F 
ENDBRANCH   5   7
ENDBRANCH   2   4
BRANCH   1  11
ATOM     11  C   UNL     1       1.153   2.093   0.002  0.00  0.00    +0.262 C 
ATOM     12  O   UNL     1       2.222   1.495  -0.011  0.00  0.00    -0.283 OA
BRANCH  11  13
ATOM     13  C   UNL     1       1.132   3.600   0.011  0.00  0.00    +0.455 C 
ATOM     14  F   UNL     1       1.774   4.081  -1.135  0.00  0.00    -0.163 F 
ATOM     15  F   UNL     1      -0.193   4.048   0.026  0.00  0.00    -0.163 F 
ATOM     16  F   UNL     1       1.796   4.069   1.149  0.00  0.00    -0.163 F 
ENDBRANCH  11  13
ENDBRANCH   1  11
TORSDOF 4
