REMARK  Name = ZINC13737467
REMARK  3 active torsions:
REMARK  status: ('A' for Active; 'I' for Inactive)
REMARK    1  A    between atoms: C_3  and  C_7
REMARK    2  A    between atoms: C_10  and  C_14
REMARK    3  A    between atoms: C_14  and  C_16
REMARK                            x       y       z     vdW  Elec       q    Type
REMARK                         _______ _______ _______ _____ _____    ______ ____
ROOT
ATOM      1  C   UNL     1       7.077   1.719   0.933  0.00  0.00    +0.183 C 
ATOM      2  O   UNL     1       6.713   2.234   1.971  0.00  0.00    -0.290 OA
ENDROOT
BRANCH   1   3
ATOM      3  C   UNL     1       8.460   1.575   0.662  0.00  0.00    +0.044 A 
ATOM      4  C   UNL     1       9.029   1.020  -0.465  0.00  0.00    +0.095 A 
ATOM      5  N   UNL     1      10.371   1.060  -0.361  0.00  0.00    -0.360 N 
ATOM      6  H   UNL     1      10.987   0.728  -1.033  0.00  0.00    +0.165 HD
ATOM      7  C   UNL     1      10.751   1.639   0.833  0.00  0.00    +0.048 A 
ATOM      8  C   UNL     1       9.582   1.993   1.525  0.00  0.00    +0.010 A 
ATOM      9  C   UNL     1       9.666   2.606   2.772  0.00  0.00    +0.012 A 
ATOM     10  C   UNL     1      10.902   2.869   3.322  0.00  0.00    +0.016 A 
ATOM     11  C   UNL     1      12.059   2.523   2.638  0.00  0.00    +0.020 A 
ATOM     12  C   UNL     1      11.990   1.908   1.406  0.00  0.00    +0.041 A 
ATOM     13 BR   UNL     1      13.746   2.891   3.408  0.00  0.00    -0.050 Br
ENDBRANCH   1   3
BRANCH   1  16
ATOM     14  C   UNL     1       3.696   2.049  -0.023  0.00  0.00    +0.145 C 
ATOM     15  N   UNL     1       4.753   1.203   0.583  0.00  0.00    -0.291 NA
ATOM     16  C   UNL     1       6.058   1.234  -0.065  0.00  0.00    +0.136 C 
ATOM     17  C   UNL     1       6.129   2.144  -1.316  0.00  0.00    +0.097 C 
ATOM     18  S   UNL     1       4.333   2.242  -1.746  0.00  0.00    -0.135 S 
ATOM     19  H   UNL     1       4.837   1.382   1.573  0.00  0.00    +0.124 HD
BRANCH  14  22
ATOM     20  C   UNL     1      -0.017   1.378   0.010  0.00  0.00    +0.020 A 
ATOM     21  C   UNL     1       1.185   2.070   0.002  0.00  0.00    +0.009 A 
ATOM     22  C   UNL     1       2.365   1.343  -0.013  0.00  0.00    -0.002 A 
ATOM     23  C   UNL     1       2.305  -0.038  -0.020  0.00  0.00    +0.116 A 
ATOM     24  N   UNL     1       1.144  -0.663  -0.013  0.00  0.00    -0.263 NA
ATOM     25  C   UNL     1       0.002  -0.004   0.002  0.00  0.00    +0.111 A 
ENDBRANCH  14  22
ENDBRANCH   1  16
TORSDOF 3
