REMARK  Name = ZINC53994092
REMARK  5 active torsions:
REMARK  status: ('A' for Active; 'I' for Inactive)
REMARK    1  A    between atoms: C_3  and  C_6
REMARK    2  A    between atoms: C_8  and  C_28
REMARK    3  A    between atoms: C_10  and  N_27
REMARK    4  A    between atoms: C_11  and  C_15
REMARK    5  A    between atoms: N_19  and  C_20
REMARK                            x       y       z     vdW  Elec       q    Type
REMARK                         _______ _______ _______ _____ _____    ______ ____
ROOT
ATOM      1  C   UNL     1       3.744   1.816  -0.181  0.00  0.00    +0.079 A 
ATOM      2  C   UNL     1       4.794   0.924   0.073  0.00  0.00    +0.042 A 
ATOM      3  C   UNL     1       6.073   1.376   0.175  0.00  0.00    +0.068 A 
ATOM      4  C   UNL     1       6.334   2.763   0.022  0.00  0.00    +0.041 A 
ATOM      5  C   UNL     1       7.607   3.460   0.090  0.00  0.00    +0.053 A 
ATOM      6  C   UNL     1       7.625   4.811  -0.090  0.00  0.00    +0.081 A 
ATOM      7  S   UNL     1       5.911   5.216  -0.363  0.00  0.00    -0.064 S 
ATOM      8  C   UNL     1       5.214   3.588  -0.233  0.00  0.00    +0.112 A 
ATOM      9  N   UNL     1       3.993   3.114  -0.330  0.00  0.00    -0.239 NA
ENDROOT
BRANCH   1  12
ATOM     10  C   UNL     1       0.017   1.320  -0.594  0.00  0.00    +0.008 A 
ATOM     11  C   UNL     1       1.206   2.011  -0.536  0.00  0.00    +0.017 A 
ATOM     12  C   UNL     1       2.361   1.314  -0.290  0.00  0.00    +0.038 A 
ATOM     13  S   UNL     1       1.756  -0.358  -0.135  0.00  0.00    -0.095 S 
ATOM     14  C   UNL     1       0.023  -0.026  -0.406  0.00  0.00    +0.046 A 
ENDBRANCH   1  12
BRANCH   6  15
ATOM     15  C   UNL     1       8.780   5.717  -0.064  0.00  0.00    +0.195 A 
ATOM     16  N   UNL     1      10.053   5.369   0.016  0.00  0.00    -0.107 NA
ATOM     17  N   UNL     1      10.803   6.411   0.015  0.00  0.00    -0.022 NA
ATOM     18  N   UNL     1      10.094   7.484  -0.064  0.00  0.00    -0.039 NA
ATOM     19  N   UNL     1       8.748   7.083  -0.124  0.00  0.00    -0.192 N 
BRANCH  19  20
ATOM     20  C   UNL     1       7.617   7.905  -0.221  0.00  0.00    +0.070 A 
ATOM     21  C   UNL     1       6.521   7.681   0.602  0.00  0.00    +0.029 A 
ATOM     22  C   UNL     1       5.409   8.493   0.504  0.00  0.00    +0.022 A 
ATOM     23  C   UNL     1       5.385   9.530  -0.413  0.00  0.00    +0.041 A 
ATOM     24  C   UNL     1       6.476   9.755  -1.234  0.00  0.00    +0.022 A 
ATOM     25  C   UNL     1       7.594   8.950  -1.136  0.00  0.00    +0.029 A 
ATOM     26 CL   UNL     1       3.985  10.548  -0.533  0.00  0.00    -0.084 Cl
ENDBRANCH  19  20
ENDBRANCH   6  15
BRANCH   3  27
ATOM     27  C   UNL     1       7.201   0.415   0.450  0.00  0.00    +0.418 C 
ATOM     28  F   UNL     1       6.691  -0.883   0.560  0.00  0.00    -0.166 F 
ATOM     29  F   UNL     1       8.123   0.466  -0.601  0.00  0.00    -0.166 F 
ATOM     30  F   UNL     1       7.836   0.769   1.645  0.00  0.00    -0.166 F 
ENDBRANCH   3  27
BRANCH   5  31
ATOM     31  N   UNL     1       8.791   2.759   0.337  0.00  0.00    -0.356 N 
ATOM     32  H   UNL     1       8.767   1.798   0.464  0.00  0.00    +0.142 HD
ATOM     33  H   UNL     1       9.636   3.234   0.380  0.00  0.00    +0.142 HD
ENDBRANCH   5  31
TORSDOF 5
