REMARK  Name = ZINC35910250
REMARK  5 active torsions:
REMARK  status: ('A' for Active; 'I' for Inactive)
REMARK    1  A    between atoms: C_5  and  N_7
REMARK    2  A    between atoms: C_8  and  C_14
REMARK    3  A    between atoms: C_18  and  N_20
REMARK    4  A    between atoms: N_20  and  S_21
REMARK    5  A    between atoms: S_21  and  C_24
REMARK                            x       y       z     vdW  Elec       q    Type
REMARK                         _______ _______ _______ _____ _____    ______ ____
ROOT
ATOM      1  C   UNL     1       0.420  -2.302   2.287  0.00  0.00    -0.015 A 
ATOM      2  C   UNL     1      -0.828  -1.835   1.916  0.00  0.00    +0.006 A 
ATOM      3  C   UNL     1      -1.699  -1.347   2.873  0.00  0.00    +0.002 A 
ATOM      4  C   UNL     1      -1.324  -1.324   4.202  0.00  0.00    +0.024 A 
ATOM      5  C   UNL     1      -0.072  -1.792   4.578  0.00  0.00    +0.048 A 
ATOM      6  C   UNL     1       0.799  -2.287   3.614  0.00  0.00    +0.030 A 
ENDROOT
BRANCH   1   8
ATOM      7  N   UNL     1       1.616  -1.826   0.192  0.00  0.00    -0.251 N 
ATOM      8  C   UNL     1       1.366  -2.833   1.240  0.00  0.00    +0.170 C 
ATOM      9  S   UNL     1       0.582  -4.186   0.262  0.00  0.00    -0.124 S 
ATOM     10  C   UNL     1       1.201  -3.635  -1.387  0.00  0.00    +0.167 C 
ATOM     11  C   UNL     1       1.541  -2.185  -1.083  0.00  0.00    +0.231 C 
ATOM     12  O   UNL     1       1.740  -1.386  -1.974  0.00  0.00    -0.274 OA
BRANCH   7  17
ATOM     13  C   UNL     1       1.229   1.760   0.917  0.00  0.00    +0.002 A 
ATOM     14  C   UNL     1       2.532   2.109   1.222  0.00  0.00    +0.003 A 
ATOM     15  C   UNL     1       3.533   1.156   1.187  0.00  0.00    +0.040 A 
ATOM     16  C   UNL     1       3.233  -0.151   0.845  0.00  0.00    +0.145 A 
ATOM     17  C   UNL     1       1.924  -0.504   0.539  0.00  0.00    +0.073 A 
ATOM     18  C   UNL     1       0.923   0.457   0.576  0.00  0.00    +0.026 A 
ATOM     19  F   UNL     1       4.211  -1.082   0.810  0.00  0.00    -0.204 F 
ENDBRANCH   7  17
ENDBRANCH   1   8
BRANCH   5  20
ATOM     20  N   UNL     1       0.310  -1.770   5.921  0.00  0.00    -0.216 N 
ATOM     21  H   UNL     1       1.193  -1.455   6.169  0.00  0.00    +0.174 HD
BRANCH  20  22
ATOM     22  S   UNL     1      -0.745  -2.283   7.090  0.00  0.00    +0.072 S 
ATOM     23  O   UNL     1      -0.064  -2.166   8.332  0.00  0.00    -0.150 OA
ATOM     24  O   UNL     1      -1.982  -1.631   6.835  0.00  0.00    -0.150 OA
BRANCH  22  25
ATOM     25  C   UNL     1      -1.019  -4.004   6.826  0.00  0.00    +0.109 A 
ATOM     26  C   UNL     1      -2.045  -4.421   5.999  0.00  0.00    +0.030 A 
ATOM     27  C   UNL     1      -2.260  -5.770   5.791  0.00  0.00    +0.022 A 
ATOM     28  C   UNL     1      -1.449  -6.704   6.412  0.00  0.00    +0.041 A 
ATOM     29  C   UNL     1      -0.422  -6.285   7.239  0.00  0.00    +0.022 A 
ATOM     30  C   UNL     1      -0.204  -4.936   7.442  0.00  0.00    +0.030 A 
ATOM     31 CL   UNL     1      -1.719  -8.399   6.152  0.00  0.00    -0.084 Cl
ENDBRANCH  22  25
ENDBRANCH  20  22
ENDBRANCH   5  20
TORSDOF 5
