REMARK  Name = ZINC33812599
REMARK  16 active torsions:
REMARK  status: ('A' for Active; 'I' for Inactive)
REMARK    1  A    between atoms: C_1  and  C_2
REMARK    2  A    between atoms: C_2  and  C_3
REMARK    3  A    between atoms: C_3  and  C_4
REMARK    4  A    between atoms: C_4  and  C_5
REMARK    5  A    between atoms: C_5  and  C_7
REMARK    6  A    between atoms: C_5  and  C_9
REMARK    7  A    between atoms: C_7  and  C_8
REMARK    8  A    between atoms: C_9  and  N_10
REMARK    9  A    between atoms: C_14  and  C_15
REMARK   10  A    between atoms: C_16  and  C_34
REMARK   11  A    between atoms: C_17  and  C_32
REMARK   12  A    between atoms: N_20  and  C_29
REMARK   13  A    between atoms: C_21  and  N_22
REMARK   14  A    between atoms: N_25  and  C_28
REMARK   15  A    between atoms: C_29  and  C_30
REMARK   16  A    between atoms: C_30  and  C_31
REMARK                            x       y       z     vdW  Elec       q    Type
REMARK                         _______ _______ _______ _____ _____    ______ ____
ROOT
ATOM      1  C   UNL     1      -6.357  -5.203   4.161  0.00  0.00    +0.019 A 
ATOM      2  C   UNL     1      -5.087  -4.682   4.459  0.00  0.00    -0.017 A 
ATOM      3  C   UNL     1      -4.706  -4.559   5.792  0.00  0.00    +0.120 A 
ATOM      4  C   UNL     1      -5.604  -4.960   6.813  0.00  0.00    +0.270 A 
ATOM      5  O   UNL     1      -5.277  -4.854   7.982  0.00  0.00    -0.266 OA
ATOM      6  N   UNL     1      -6.815  -5.455   6.502  0.00  0.00    -0.295 N 
ATOM      7  C   UNL     1      -7.212  -5.580   5.209  0.00  0.00    +0.112 A 
ATOM      8  C   UNL     1      -4.152  -4.264   3.353  0.00  0.00    +0.046 C 
ENDROOT
BRANCH   1  13
ATOM      9  N   UNL     1      -7.211  -1.960   1.438  0.00  0.00    -0.255 N 
ATOM     10  C   UNL     1      -6.979  -2.860   2.377  0.00  0.00    +0.258 C 
ATOM     11  O   UNL     1      -6.761  -2.524   3.527  0.00  0.00    -0.269 OA
ATOM     12  C   UNL     1      -6.994  -4.238   2.004  0.00  0.00    +0.077 C 
ATOM     13  C   UNL     1      -6.789  -5.345   2.769  0.00  0.00    +0.032 C 
ATOM     14  S   UNL     1      -7.354  -4.114   0.257  0.00  0.00    -0.061 S 
ATOM     15  C   UNL     1      -7.459  -2.333   0.163  0.00  0.00    +0.121 C 
ATOM     16  S   UNL     1      -7.788  -1.349  -1.199  0.00  0.00    -0.027 S 
BRANCH   9  17
ATOM     17  C   UNL     1      -7.204  -0.536   1.784  0.00  0.00    +0.118 C 
BRANCH  17  18
ATOM     18  C   UNL     1      -8.636  -0.071   2.055  0.00  0.00    +0.007 C 
BRANCH  18  19
ATOM     19  C   UNL     1      -8.640   1.435   2.326  0.00  0.00    +0.002 C 
ATOM     20  C   UNL     1      -8.193   2.181   1.067  0.00  0.00    +0.004 C 
ENDBRANCH  18  19
BRANCH  18  21
ATOM     21  C   UNL     1      -9.190  -0.810   3.275  0.00  0.00    +0.005 C 
BRANCH  21  22
ATOM     22  C   UNL     1     -10.661  -0.438   3.471  0.00  0.00    +0.000 C 
BRANCH  22  24
ATOM     23  C   UNL     1     -12.687  -0.805   4.888  0.00  0.00    +0.004 C 
ATOM     24  C   UNL     1     -11.216  -1.177   4.691  0.00  0.00    -0.003 C 
ENDBRANCH  22  24
ENDBRANCH  21  22
ENDBRANCH  18  21
ENDBRANCH  17  18
ENDBRANCH   9  17
ENDBRANCH   1  13
BRANCH   7  25
ATOM     25  N   UNL     1      -8.449  -6.082   4.927  0.00  0.00    -0.320 N 
ATOM     26  C   UNL     1      -9.590  -5.186   4.683  0.00  0.00    +0.088 C 
ATOM     27  C   UNL     1     -10.271  -5.611   3.377  0.00  0.00    -0.060 C 
ATOM     28  N   UNL     1     -10.623  -7.035   3.451  0.00  0.00    +0.380 N 
ATOM     29  C   UNL     1      -9.403  -7.847   3.543  0.00  0.00    -0.060 C 
ATOM     30  C   UNL     1      -8.678  -7.533   4.851  0.00  0.00    +0.088 C 
ATOM     31  C   UNL     1     -11.372  -7.415   2.246  0.00  0.00    -0.096 C 
ATOM     32  H   UNL     1     -11.196  -7.197   4.266  0.00  0.00    -0.082 HD
ENDBRANCH   7  25
BRANCH   3  33
ATOM     33  C   UNL     1      -3.417  -4.032   6.129  0.00  0.00    +0.105 C 
ATOM     34  N   UNL     1      -2.395  -3.614   6.397  0.00  0.00    -0.191 NA
ENDBRANCH   3  33
BRANCH   6  35
ATOM     35  C   UNL     1      -7.724  -5.863   7.576  0.00  0.00    +0.126 C 
BRANCH  35  36
ATOM     36  C   UNL     1      -8.657  -4.701   7.923  0.00  0.00    +0.018 C 
ATOM     37  C   UNL     1      -9.606  -5.126   9.045  0.00  0.00    +0.005 C 
ENDBRANCH  35  36
ENDBRANCH   6  35
TORSDOF 11
