REMARK  Name = ZINC39359123
REMARK  3 active torsions:
REMARK  status: ('A' for Active; 'I' for Inactive)
REMARK    1  A    between atoms: C_3  and  C_8
REMARK    2  A    between atoms: C_11  and  O_30
REMARK    3  A    between atoms: C_22  and  C_25
REMARK                            x       y       z     vdW  Elec       q    Type
REMARK                         _______ _______ _______ _____ _____    ______ ____
ROOT
ATOM      1  C   UNL     1       3.672   2.184  -0.021  0.00  0.00    +0.089 C 
ATOM      2  C   UNL     1       4.474   1.826  -1.236  0.00  0.00    +0.048 C 
ATOM      3  C   UNL     1       4.191   1.286  -2.402  0.00  0.00    +0.235 C 
ATOM      4  N   UNL     1       5.335   1.059  -3.104  0.00  0.00    -0.114 NA
ATOM      5  N   UNL     1       6.368   1.438  -2.537  0.00  0.00    -0.157 NA
ATOM      6  C   UNL     1       5.985   2.072  -1.274  0.00  0.00    +0.245 C 
ATOM      7  N   UNL     1       6.489   1.354  -0.101  0.00  0.00    -0.321 N 
ATOM      8  C   UNL     1       5.802   1.431   1.085  0.00  0.00    +0.014 C 
ATOM      9  C   UNL     1       4.509   1.807   1.192  0.00  0.00    +0.023 C 
ATOM     10  C   UNL     1       3.864   1.873   2.439  0.00  0.00    +0.162 C 
ATOM     11  O   UNL     1       2.696   2.204   2.487  0.00  0.00    -0.292 OA
ATOM     12  C   UNL     1       4.587   1.541   3.715  0.00  0.00    +0.088 C 
ATOM     13  C   UNL     1       6.077   1.849   3.529  0.00  0.00    +0.039 C 
ATOM     14  C   UNL     1       6.587   1.048   2.324  0.00  0.00    +0.060 C 
ATOM     15  H   UNL     1       7.301   0.827  -0.162  0.00  0.00    +0.148 HD
ENDROOT
BRANCH   1  18
ATOM     16  C   UNL     1      -0.017   1.378   0.010  0.00  0.00    +0.002 A 
ATOM     17  C   UNL     1       1.171   2.086   0.002  0.00  0.00    +0.004 A 
ATOM     18  C   UNL     1       2.378   1.412  -0.013  0.00  0.00    -0.034 A 
ATOM     19  C   UNL     1       2.398   0.029  -0.021  0.00  0.00    +0.024 A 
ATOM     20  C   UNL     1       1.210  -0.679  -0.013  0.00  0.00    +0.041 A 
ATOM     21  C   UNL     1       0.002  -0.004   0.002  0.00  0.00    +0.020 A 
ATOM     22 CL   UNL     1       1.234  -2.415  -0.024  0.00  0.00    -0.084 Cl
ENDBRANCH   1  18
BRANCH  13  23
ATOM     23  C   UNL     1       6.838   1.448   4.766  0.00  0.00    -0.006 A 
ATOM     24  C   UNL     1       7.584   2.216   5.596  0.00  0.00    +0.011 A 
ATOM     25  C   UNL     1       8.199   1.626   6.684  0.00  0.00    +0.008 A 
ATOM     26  C   UNL     1       8.037   0.296   6.889  0.00  0.00    +0.045 A 
ATOM     27  S   UNL     1       6.984  -0.163   5.522  0.00  0.00    -0.101 S 
ENDBRANCH  13  23
BRANCH   3  28
ATOM     28  O   UNL     1       2.939   0.997  -2.842  0.00  0.00    -0.491 OA
ATOM     29  H   UNL     1       2.913   0.602  -3.724  0.00  0.00    +0.294 HD
ENDBRANCH   3  28
TORSDOF 3
