REMARK  Name = ZINC46791501
REMARK  9 active torsions:
REMARK  status: ('A' for Active; 'I' for Inactive)
REMARK    1  A    between atoms: C_1  and  C_2
REMARK    2  A    between atoms: C_7  and  C_10
REMARK    3  A    between atoms: C_14  and  C_17
REMARK    4  A    between atoms: C_17  and  N_18
REMARK    5  A    between atoms: C_19  and  C_21
REMARK    6  A    between atoms: C_21  and  C_22
REMARK    7  A    between atoms: C_22  and  C_23
REMARK    8  A    between atoms: C_23  and  C_24
REMARK    9  A    between atoms: C_26  and  C_29
REMARK                            x       y       z     vdW  Elec       q    Type
REMARK                         _______ _______ _______ _____ _____    ______ ____
ROOT
ATOM      1  N   UNL     1      -3.369  -5.796  -4.369  0.00  0.00    -0.311 N 
ATOM      2  C   UNL     1      -3.827  -6.645  -5.310  0.00  0.00    +0.213 C 
ATOM      3  O   UNL     1      -4.914  -7.167  -5.179  0.00  0.00    -0.276 OA
ATOM      4  H   UNL     1      -2.500  -5.378  -4.474  0.00  0.00    +0.149 HD
ENDROOT
BRANCH   1   5
ATOM      5  C   UNL     1      -4.185  -5.503  -3.188  0.00  0.00    +0.141 C 
BRANCH   5  17
ATOM      6  C   UNL     1      -0.045  -2.168   3.728  0.00  0.00    +0.039 C 
ATOM      7  C   UNL     1      -0.987  -1.773   2.589  0.00  0.00    +0.133 C 
ATOM      8  C   UNL     1      -0.596  -2.529   1.315  0.00  0.00    +0.137 C 
ATOM      9  N   UNL     1      -1.389  -1.995   0.196  0.00  0.00    -0.312 N 
ATOM     10  C   UNL     1      -1.418  -0.537   0.002  0.00  0.00    +0.137 C 
ATOM     11  C   UNL     1      -1.770   0.122   1.341  0.00  0.00    +0.133 C 
ATOM     12  O   UNL     1      -0.886  -0.366   2.353  0.00  0.00    -0.371 OA
ATOM     13  C   UNL     1      -3.214  -0.218   1.714  0.00  0.00    +0.039 C 
ATOM     14  C   UNL     1      -2.091  -2.844  -0.652  0.00  0.00    +0.099 A 
ATOM     15  C   UNL     1      -2.927  -2.308  -1.627  0.00  0.00    +0.042 A 
ATOM     16  C   UNL     1      -3.619  -3.164  -2.464  0.00  0.00    +0.010 A 
ATOM     17  C   UNL     1      -3.451  -4.533  -2.299  0.00  0.00    -0.014 A 
ATOM     18  C   UNL     1      -2.604  -4.995  -1.311  0.00  0.00    +0.089 A 
ATOM     19  N   UNL     1      -1.953  -4.155  -0.530  0.00  0.00    -0.349 N 
ATOM     20  H   UNL     1      -1.361  -4.507   0.154  0.00  0.00    +0.167 HD
ENDBRANCH   5  17
ENDBRANCH   1   5
BRANCH   2  21
ATOM     21  C   UNL     1      -2.989  -6.946  -6.526  0.00  0.00    +0.096 C 
BRANCH  21  22
ATOM     22  C   UNL     1      -3.734  -7.931  -7.428  0.00  0.00    +0.019 C 
BRANCH  22  23
ATOM     23  C   UNL     1      -2.882  -8.237  -8.662  0.00  0.00    +0.099 C 
BRANCH  23  24
ATOM     24  C   UNL     1      -3.617  -9.207  -9.552  0.00  0.00    +0.228 A 
ATOM     25  N   UNL     1      -4.433  -8.888 -10.515  0.00  0.00    -0.191 NA
ATOM     26  C   UNL     1      -4.910 -10.000 -11.102  0.00  0.00    +0.202 A 
ATOM     27  N   UNL     1      -4.390 -11.044 -10.505  0.00  0.00    -0.056 NA
ATOM     28  O   UNL     1      -3.535 -10.542  -9.488  0.00  0.00    -0.338 OA
BRANCH  26  29
ATOM     29  C   UNL     1      -5.865 -10.039 -12.237  0.00  0.00    +0.023 A 
ATOM     30  C   UNL     1      -6.343  -8.852 -12.789  0.00  0.00    +0.013 A 
ATOM     31  C   UNL     1      -7.231  -8.893 -13.844  0.00  0.00    +0.021 A 
ATOM     32  C   UNL     1      -7.649 -10.111 -14.354  0.00  0.00    +0.041 A 
ATOM     33  C   UNL     1      -7.177 -11.293 -13.808  0.00  0.00    +0.021 A 
ATOM     34  C   UNL     1      -6.284 -11.262 -12.757  0.00  0.00    +0.013 A 
ATOM     35 CL   UNL     1      -8.767 -10.156 -15.681  0.00  0.00    -0.084 Cl
ENDBRANCH  26  29
ENDBRANCH  23  24
ENDBRANCH  22  23
ENDBRANCH  21  22
ENDBRANCH   2  21
TORSDOF 7
