REMARK  Name = ZINC08997437
REMARK  10 active torsions:
REMARK  status: ('A' for Active; 'I' for Inactive)
REMARK    1  A    between atoms: C_1  and  C_2
REMARK    2  A    between atoms: C_3  and  C_25
REMARK    3  A    between atoms: C_4  and  C_16
REMARK    4  A    between atoms: C_19  and  N_22
REMARK    5  A    between atoms: N_22  and  C_23
REMARK    6  A    between atoms: N_22  and  C_24
REMARK    7  A    between atoms: C_25  and  O_27
REMARK    8  A    between atoms: O_27  and  C_28
REMARK    9  A    between atoms: C_28  and  C_29
REMARK   10  A    between atoms: C_28  and  C_30
REMARK                            x       y       z     vdW  Elec       q    Type
REMARK                         _______ _______ _______ _____ _____    ______ ____
ROOT
ATOM      1  C   UNL     1      -0.018   1.503   0.010  0.00  0.00    +0.066 C 
ATOM      2  C   UNL     1       0.002  -0.004   0.002  0.00  0.00    +0.054 C 
ATOM      3  C   UNL     1      -1.184  -0.687   0.004  0.00  0.00    +0.083 C 
ATOM      4  C   UNL     1      -1.107  -2.203  -0.005  0.00  0.00    +0.150 C 
ATOM      5  N   UNL     1       0.244  -2.785  -0.014  0.00  0.00    -0.259 N 
ATOM      6  C   UNL     1       0.697  -4.097  -0.024  0.00  0.00    +0.058 A 
ATOM      7  C   UNL     1       0.050  -5.325  -0.028  0.00  0.00    +0.025 A 
ATOM      8  C   UNL     1       0.787  -6.492  -0.038  0.00  0.00    +0.002 A 
ATOM      9  C   UNL     1       2.171  -6.443  -0.044  0.00  0.00    +0.002 A 
ATOM     10  C   UNL     1       2.825  -5.228  -0.040  0.00  0.00    +0.025 A 
ATOM     11  C   UNL     1       2.093  -4.048  -0.030  0.00  0.00    +0.055 A 
ATOM     12  N   UNL     1       2.456  -2.707  -0.025  0.00  0.00    -0.285 N 
ATOM     13  C   UNL     1       1.319  -1.948  -0.015  0.00  0.00    +0.193 C 
ATOM     14  N   UNL     1       1.166  -0.633  -0.013  0.00  0.00    -0.222 NA
ATOM     15  H   UNL     1       3.365  -2.366  -0.027  0.00  0.00    +0.155 HD
ENDROOT
BRANCH   4  16
ATOM     16  C   UNL     1      -1.837  -2.703  -1.224  0.00  0.00    -0.022 A 
ATOM     17  C   UNL     1      -1.212  -2.686  -2.458  0.00  0.00    +0.007 A 
ATOM     18  C   UNL     1      -1.879  -3.143  -3.578  0.00  0.00    +0.023 A 
ATOM     19  C   UNL     1      -3.179  -3.620  -3.464  0.00  0.00    +0.029 A 
ATOM     20  C   UNL     1      -3.804  -3.635  -2.223  0.00  0.00    +0.023 A 
ATOM     21  C   UNL     1      -3.129  -3.182  -1.107  0.00  0.00    +0.007 A 
BRANCH  19  22
ATOM     22  N   UNL     1      -3.856  -4.083  -4.595  0.00  0.00    -0.336 N 
ATOM     23  C   UNL     1      -3.195  -4.066  -5.902  0.00  0.00    +0.129 C 
ATOM     24  C   UNL     1      -5.226  -4.585  -4.473  0.00  0.00    +0.129 C 
ENDBRANCH  19  22
ENDBRANCH   4  16
BRANCH   3  25
ATOM     25  C   UNL     1      -2.416  -0.016   0.014  0.00  0.00    +0.339 C 
ATOM     26  O   UNL     1      -2.446   1.202   0.021  0.00  0.00    -0.245 OA
BRANCH  25  27
ATOM     27  O   UNL     1      -3.569  -0.721   0.016  0.00  0.00    -0.459 OA
BRANCH  27  28
ATOM     28  C   UNL     1      -4.786   0.028   0.026  0.00  0.00    +0.171 C 
ATOM     29  C   UNL     1      -5.228   0.303  -1.412  0.00  0.00    +0.052 C 
ATOM     30  C   UNL     1      -5.871  -0.774   0.749  0.00  0.00    +0.052 C 
ENDBRANCH  27  28
ENDBRANCH  25  27
ENDBRANCH   3  25
TORSDOF 5
