REMARK  Name = ZINC40341788
REMARK  8 active torsions:
REMARK  status: ('A' for Active; 'I' for Inactive)
REMARK    1  A    between atoms: C_1  and  C_2
REMARK    2  A    between atoms: C_5  and  C_8
REMARK    3  A    between atoms: N_16  and  C_33
REMARK    4  A    between atoms: C_17  and  C_19
REMARK    5  A    between atoms: C_22  and  O_25
REMARK    6  A    between atoms: O_25  and  C_26
REMARK    7  A    between atoms: C_26  and  C_27
REMARK    8  A    between atoms: C_33  and  C_34
REMARK                            x       y       z     vdW  Elec       q    Type
REMARK                         _______ _______ _______ _____ _____    ______ ____
ROOT
ATOM      1  C   UNL     1       0.059  -4.256  -0.021  0.00  0.00    +0.099 A 
ATOM      2  C   UNL     1       0.717  -5.081   0.898  0.00  0.00    +0.035 A 
ATOM      3  C   UNL     1       0.457  -6.377   0.495  0.00  0.00    +0.126 A 
ATOM      4  N   UNL     1      -0.326  -6.277  -0.621  0.00  0.00    -0.272 N 
ATOM      5  H   UNL     1      -0.669  -7.029  -1.129  0.00  0.00    +0.189 HD
ATOM      6  N   UNL     1      -0.545  -5.040  -0.893  0.00  0.00    -0.173 NA
ATOM      7  C   UNL     1       1.122  -7.297   1.423  0.00  0.00    +0.266 C 
ATOM      8  O   UNL     1       1.088  -8.510   1.343  0.00  0.00    -0.268 OA
ATOM      9  N   UNL     1       1.777  -6.609   2.376  0.00  0.00    -0.281 N 
ATOM     10  C   UNL     1       1.579  -5.175   2.127  0.00  0.00    +0.142 C 
ENDROOT
BRANCH   1  15
ATOM     11  C   UNL     1      -0.018   1.503   0.010  0.00  0.00    +0.044 C 
ATOM     12  C   UNL     1       0.002  -0.004   0.002  0.00  0.00    -0.050 A 
ATOM     13  C   UNL     1       0.006  -0.687  -1.201  0.00  0.00    +0.004 A 
ATOM     14  C   UNL     1       0.024  -2.067  -1.214  0.00  0.00    +0.010 A 
ATOM     15  C   UNL     1       0.040  -2.772  -0.013  0.00  0.00    +0.002 A 
ATOM     16  C   UNL     1       0.036  -2.080   1.196  0.00  0.00    +0.010 A 
ATOM     17  C   UNL     1       0.023  -0.700   1.198  0.00  0.00    +0.004 A 
ENDBRANCH   1  15
BRANCH  10  18
ATOM     18  C   UNL     1       2.905  -4.502   1.883  0.00  0.00    -0.022 A 
ATOM     19  C   UNL     1       3.896  -5.164   1.183  0.00  0.00    +0.009 A 
ATOM     20  C   UNL     1       5.113  -4.550   0.958  0.00  0.00    +0.046 A 
ATOM     21  C   UNL     1       5.340  -3.267   1.436  0.00  0.00    +0.121 A 
ATOM     22  C   UNL     1       4.343  -2.605   2.138  0.00  0.00    +0.046 A 
ATOM     23  C   UNL     1       3.127  -3.222   2.355  0.00  0.00    +0.009 A 
BRANCH  21  24
ATOM     24  O   UNL     1       6.536  -2.661   1.217  0.00  0.00    -0.487 OA
BRANCH  24  25
ATOM     25  C   UNL     1       6.699  -1.340   1.737  0.00  0.00    +0.264 C 
BRANCH  25  26
ATOM     26  C   UNL     1       8.078  -0.834   1.399  0.00  0.00    -0.010 A 
ATOM     27  C   UNL     1       9.130  -1.062   2.267  0.00  0.00    +0.007 A 
ATOM     28  C   UNL     1      10.394  -0.597   1.957  0.00  0.00    +0.000 A 
ATOM     29  C   UNL     1      10.607   0.095   0.779  0.00  0.00    +0.000 A 
ATOM     30  C   UNL     1       9.555   0.323  -0.088  0.00  0.00    +0.000 A 
ATOM     31  C   UNL     1       8.291  -0.146   0.220  0.00  0.00    +0.007 A 
ENDBRANCH  25  26
ENDBRANCH  24  25
ENDBRANCH  21  24
ENDBRANCH  10  18
BRANCH   9  32
ATOM     32  C   UNL     1       2.554  -7.189   3.474  0.00  0.00    +0.144 C 
BRANCH  32  33
ATOM     33  C   UNL     1       3.985  -7.369   3.036  0.00  0.00    -0.030 A 
ATOM     34  C   UNL     1       4.380  -8.548   2.432  0.00  0.00    +0.008 A 
ATOM     35  C   UNL     1       5.692  -8.714   2.030  0.00  0.00    +0.038 A 
ATOM     36  C   UNL     1       6.611  -7.698   2.232  0.00  0.00    +0.123 A 
ATOM     37  C   UNL     1       6.214  -6.518   2.837  0.00  0.00    +0.038 A 
ATOM     38  C   UNL     1       4.901  -6.352   3.233  0.00  0.00    +0.008 A 
ATOM     39  F   UNL     1       7.893  -7.859   1.840  0.00  0.00    -0.205 F 
ENDBRANCH  32  33
ENDBRANCH   9  32
TORSDOF 7
