REMARK  Name = ZINC39495531
REMARK  10 active torsions:
REMARK  status: ('A' for Active; 'I' for Inactive)
REMARK    1  A    between atoms: C_4  and  O_35
REMARK    2  A    between atoms: C_5  and  C_7
REMARK    3  A    between atoms: C_10  and  C_27
REMARK    4  A    between atoms: C_11  and  C_20
REMARK    5  A    between atoms: C_12  and  C_13
REMARK    6  A    between atoms: C_18  and  O_19
REMARK    7  A    between atoms: C_25  and  O_26
REMARK    8  A    between atoms: C_27  and  C_29
REMARK    9  A    between atoms: C_27  and  N_32
REMARK   10  A    between atoms: C_29  and  C_30
REMARK                            x       y       z     vdW  Elec       q    Type
REMARK                         _______ _______ _______ _____ _____    ______ ____
ROOT
ATOM      1  C   UNL     1      -1.588  -3.568   2.009  0.00  0.00    -0.006 A 
ATOM      2  C   UNL     1      -1.726  -3.658   0.626  0.00  0.00    +0.009 A 
ATOM      3  C   UNL     1      -0.824  -4.394  -0.117  0.00  0.00    +0.007 A 
ATOM      4  C   UNL     1       0.226  -5.048   0.500  0.00  0.00    -0.018 A 
ATOM      5  C   UNL     1       0.385  -4.972   1.881  0.00  0.00    -0.001 A 
ATOM      6  C   UNL     1      -0.523  -4.223   2.646  0.00  0.00    +0.002 A 
ENDROOT
BRANCH   1  11
ATOM      7  C   UNL     1      -3.494  -0.659   3.433  0.00  0.00    +0.001 A 
ATOM      8  C   UNL     1      -4.370  -1.300   4.292  0.00  0.00    +0.004 A 
ATOM      9  C   UNL     1      -4.347  -2.677   4.412  0.00  0.00    +0.046 A 
ATOM     10  C   UNL     1      -3.444  -3.423   3.672  0.00  0.00    +0.125 A 
ATOM     11  C   UNL     1      -2.557  -2.779   2.804  0.00  0.00    +0.024 A 
ATOM     12  C   UNL     1      -2.589  -1.390   2.691  0.00  0.00    +0.012 A 
BRANCH  10  13
ATOM     13  O   UNL     1      -3.421  -4.776   3.790  0.00  0.00    -0.506 OA
ATOM     14  H   UNL     1      -4.061  -5.232   3.227  0.00  0.00    +0.292 HD
ENDBRANCH  10  13
ENDBRANCH   1  11
BRANCH   6  15
ATOM     15  C   UNL     1      -0.361  -4.130   4.114  0.00  0.00    +0.025 A 
ATOM     16  C   UNL     1      -0.925  -5.099   4.944  0.00  0.00    +0.012 A 
ATOM     17  C   UNL     1      -0.771  -5.007   6.312  0.00  0.00    +0.001 A 
ATOM     18  C   UNL     1      -0.059  -3.957   6.865  0.00  0.00    +0.004 A 
ATOM     19  C   UNL     1       0.504  -2.991   6.052  0.00  0.00    +0.046 A 
ATOM     20  C   UNL     1       0.364  -3.074   4.676  0.00  0.00    +0.125 A 
BRANCH  20  21
ATOM     21  O   UNL     1       0.922  -2.128   3.876  0.00  0.00    -0.506 OA
ATOM     22  H   UNL     1       0.378  -1.337   3.764  0.00  0.00    +0.292 HD
ENDBRANCH  20  21
ENDBRANCH   6  15
BRANCH   5  23
ATOM     23  C   UNL     1       1.510  -5.676   2.539  0.00  0.00    +0.024 A 
ATOM     24  C   UNL     1       2.730  -5.027   2.723  0.00  0.00    +0.012 A 
ATOM     25  C   UNL     1       3.775  -5.687   3.337  0.00  0.00    +0.001 A 
ATOM     26  C   UNL     1       3.617  -6.991   3.772  0.00  0.00    +0.004 A 
ATOM     27  C   UNL     1       2.412  -7.644   3.595  0.00  0.00    +0.046 A 
ATOM     28  C   UNL     1       1.352  -6.992   2.985  0.00  0.00    +0.125 A 
BRANCH  28  29
ATOM     29  O   UNL     1       0.165  -7.631   2.816  0.00  0.00    -0.506 OA
ATOM     30  H   UNL     1       0.094  -8.115   1.982  0.00  0.00    +0.292 HD
ENDBRANCH  28  29
ENDBRANCH   5  23
BRANCH   4  31
ATOM     31  C   UNL     1       1.201  -5.846  -0.326  0.00  0.00    +0.110 C 
BRANCH  31  32
ATOM     32  N   UNL     1       0.582  -6.202  -1.605  0.00  0.00    -0.311 N 
ATOM     33  C   UNL     1      -0.161  -7.321  -1.706  0.00  0.00    +0.326 C 
ATOM     34  O   UNL     1      -0.318  -8.034  -0.738  0.00  0.00    -0.280 OA
ATOM     35  H   UNL     1       0.708  -5.631  -2.380  0.00  0.00    +0.149 HD
ENDBRANCH  31  32
BRANCH  31  36
ATOM     36  C   UNL     1       2.457  -5.011  -0.581  0.00  0.00    +0.097 C 
BRANCH  36  37
ATOM     37  C   UNL     1       3.481  -5.850  -1.300  0.00  0.00    +0.225 C 
ATOM     38  O   UNL     1       3.949  -5.468  -2.346  0.00  0.00    -0.301 OA
ENDBRANCH  36  37
ENDBRANCH  31  36
ENDBRANCH   4  31
TORSDOF 10
