REMARK  Name = ZINC13021716
REMARK  11 active torsions:
REMARK  status: ('A' for Active; 'I' for Inactive)
REMARK    1  A    between atoms: C_1  and  C_2
REMARK    2  A    between atoms: C_2  and  C_3
REMARK    3  A    between atoms: C_6  and  C_9
REMARK    4  A    between atoms: C_9  and  C_11
REMARK    5  A    between atoms: C_9  and  N_64
REMARK    6  A    between atoms: C_11  and  N_12
REMARK    7  A    between atoms: C_13  and  C_15
REMARK    8  A    between atoms: N_20  and  S_22
REMARK    9  A    between atoms: S_22  and  C_25
REMARK   10  A    between atoms: C_32  and  N_64
REMARK   11  A    between atoms: C_33  and  N_64
REMARK                            x       y       z     vdW  Elec       q    Type
REMARK                         _______ _______ _______ _____ _____    ______ ____
ROOT
ATOM      1  N   UNL     1       0.407   4.447   5.484  0.00  0.00    -0.316 N 
ATOM      2  C   UNL     1       0.236   4.313   4.153  0.00  0.00    +0.217 C 
ATOM      3  O   UNL     1      -0.151   5.255   3.494  0.00  0.00    -0.275 OA
ATOM      4  H   UNL     1       0.717   3.694   6.011  0.00  0.00    +0.149 HD
ENDROOT
BRANCH   2   5
ATOM      5  C   UNL     1       0.525   2.994   3.485  0.00  0.00    +0.091 C 
ATOM      6  C   UNL     1      -0.374   1.910   4.084  0.00  0.00    +0.015 C 
ATOM      7  C   UNL     1      -0.058   0.563   3.430  0.00  0.00    +0.018 C 
ATOM      8  C   UNL     1      -0.342   0.651   1.927  0.00  0.00    +0.109 C 
ATOM      9  N   UNL     1       0.409   1.784   1.369  0.00  0.00    -0.176 NA
ATOM     10  C   UNL     1       0.252   3.108   1.987  0.00  0.00    +0.122 C 
BRANCH   9  11
ATOM     11  S   UNL     1       1.418   1.571   0.073  0.00  0.00    +0.061 S 
ATOM     12  O   UNL     1       1.792   0.201   0.071  0.00  0.00    -0.153 OA
ATOM     13  O   UNL     1       2.373   2.622   0.126  0.00  0.00    -0.153 OA
BRANCH  11  14
ATOM     14  C   UNL     1       0.460   1.834  -1.382  0.00  0.00    +0.106 A 
ATOM     15  C   UNL     1      -0.191   0.772  -1.982  0.00  0.00    +0.031 A 
ATOM     16  C   UNL     1      -0.946   0.978  -3.120  0.00  0.00    +0.040 A 
ATOM     17  C   UNL     1      -1.043   2.247  -3.666  0.00  0.00    +0.124 A 
ATOM     18  C   UNL     1      -0.388   3.309  -3.067  0.00  0.00    +0.040 A 
ATOM     19  C   UNL     1       0.363   3.102  -1.925  0.00  0.00    +0.031 A 
ATOM     20  F   UNL     1      -1.778   2.449  -4.782  0.00  0.00    -0.205 F 
ENDBRANCH  11  14
ENDBRANCH   9  11
ENDBRANCH   2   5
BRANCH   1  21
ATOM     21  C   UNL     1       0.126   5.730   6.133  0.00  0.00    +0.093 C 
BRANCH  21  22
ATOM     22  C   UNL     1       0.239   5.569   7.650  0.00  0.00    -0.021 C 
BRANCH  22  26
ATOM     23  C   UNL     1      -0.381   9.353   9.533  0.00  0.00    -0.048 A 
ATOM     24  C   UNL     1       0.895   8.832   9.432  0.00  0.00    +0.004 A 
ATOM     25  C   UNL     1       1.096   7.607   8.823  0.00  0.00    +0.002 A 
ATOM     26  C   UNL     1       0.020   6.904   8.315  0.00  0.00    -0.059 A 
ATOM     27  C   UNL     1      -1.256   7.427   8.411  0.00  0.00    +0.002 A 
ATOM     28  C   UNL     1      -1.457   8.649   9.024  0.00  0.00    +0.004 A 
BRANCH  23  30
ATOM     29  C   UNL     1      -0.505  11.800   9.149  0.00  0.00    +0.009 C 
ATOM     30  C   UNL     1      -0.600  10.688  10.196  0.00  0.00    +0.032 C 
ENDBRANCH  23  30
ENDBRANCH  22  26
BRANCH  22  33
ATOM     31  C   UNL     1      -1.940   4.604   7.220  0.00  0.00    -0.096 C 
ATOM     32  C   UNL     1      -0.210   3.269   8.263  0.00  0.00    -0.096 C 
ATOM     33  N   UNL     1      -0.786   4.625   8.144  0.00  0.00    +0.382 N 
ATOM     34  H   UNL     1      -1.106   4.934   9.070  0.00  0.00    -0.082 HD
ENDBRANCH  22  33
ENDBRANCH  21  22
ENDBRANCH   1  21
TORSDOF 8
