REMARK  Name = ZINC39886753
REMARK  1 active torsions:
REMARK  status: ('A' for Active; 'I' for Inactive)
REMARK    1  A    between atoms: C_6  and  C_7
REMARK                            x       y       z     vdW  Elec       q    Type
REMARK                         _______ _______ _______ _____ _____    ______ ____
ROOT
ATOM      1  C   UNL     1      -1.293  -0.775   0.011  0.00  0.00    +0.072 C 
ATOM      2  C   UNL     1      -1.372  -1.643  -1.210  0.00  0.00    +0.032 A 
ATOM      3  C   UNL     1      -1.828  -2.924  -1.339  0.00  0.00    +0.110 A 
ATOM      4  N   UNL     1      -1.740  -3.430  -2.567  0.00  0.00    -0.225 NA
ATOM      5  C   UNL     1      -1.265  -2.729  -3.575  0.00  0.00    +0.147 A 
ATOM      6  S   UNL     1      -1.075  -3.220  -5.256  0.00  0.00    -0.023 SA
ATOM      7  S   UNL     1      -0.883  -1.248  -2.869  0.00  0.00    -0.063 S 
ATOM      8  S   UNL     1      -2.498  -3.803   0.066  0.00  0.00    -0.091 S 
ATOM      9  C   UNL     1      -2.704  -2.429   1.230  0.00  0.00    +0.152 C 
ATOM     10  C   UNL     1      -1.348  -1.661   1.231  0.00  0.00    +0.110 C 
ATOM     11  C   UNL     1      -1.393  -1.029   2.587  0.00  0.00    +0.235 C 
ATOM     12  O   UNL     1      -0.889   0.018   2.916  0.00  0.00    -0.274 OA
ATOM     13  N   UNL     1      -2.113  -1.872   3.372  0.00  0.00    -0.162 N 
ATOM     14  C   UNL     1      -2.796  -2.839   2.674  0.00  0.00    +0.244 C 
ATOM     15  O   UNL     1      -3.345  -3.820   3.116  0.00  0.00    -0.273 OA
ATOM     16  C   UNL     1      -2.170  -1.762   4.714  0.00  0.00    +0.313 C 
ATOM     17  O   UNL     1      -1.559  -0.876   5.278  0.00  0.00    -0.252 OA
ATOM     18  N   UNL     1      -2.906  -2.634   5.431  0.00  0.00    -0.313 N 
ATOM     19  H   UNL     1      -3.395  -3.341   4.981  0.00  0.00    +0.147 HD
ATOM     20  H   UNL     1      -2.948  -2.554   6.397  0.00  0.00    +0.147 HD
ENDROOT
BRANCH   1  26
ATOM     21  C   UNL     1      -0.017   1.378   0.010  0.00  0.00    +0.006 A 
ATOM     22  C   UNL     1       1.171   2.086   0.002  0.00  0.00    +0.020 A 
ATOM     23  C   UNL     1       2.378   1.410  -0.013  0.00  0.00    +0.041 A 
ATOM     24  C   UNL     1       2.396   0.027  -0.021  0.00  0.00    +0.020 A 
ATOM     25  C   UNL     1       1.208  -0.679  -0.013  0.00  0.00    +0.006 A 
ATOM     26  C   UNL     1       0.002  -0.004   0.002  0.00  0.00    -0.039 A 
ATOM     27 CL   UNL     1       3.870   2.298  -0.023  0.00  0.00    -0.084 Cl
ENDBRANCH   1  26
TORSDOF 1
