REMARK  Name = ZINC16013103
REMARK  6 active torsions:
REMARK  status: ('A' for Active; 'I' for Inactive)
REMARK    1  A    between atoms: C_1  and  C_2
REMARK    2  A    between atoms: C_3  and  N_9
REMARK    3  A    between atoms: C_14  and  C_31
REMARK    4  A    between atoms: C_31  and  C_32
REMARK    5  A    between atoms: C_32  and  S_33
REMARK    6  A    between atoms: S_33  and  C_34
REMARK                            x       y       z     vdW  Elec       q    Type
REMARK                         _______ _______ _______ _____ _____    ______ ____
ROOT
ATOM      1  N   UNL     1      -0.010   0.013  -2.415  0.00  0.00    -0.210 N 
ATOM      2  C   UNL     1       1.107   0.388  -3.049  0.00  0.00    +0.232 C 
ATOM      3  O   UNL     1       2.236   0.175  -2.663  0.00  0.00    -0.274 OA
ATOM      4  C   UNL     1       0.742   1.119  -4.320  0.00  0.00    +0.107 C 
ATOM      5  C   UNL     1       1.151   2.602  -4.193  0.00  0.00    +0.068 C 
ATOM      6  N   UNL     1      -0.008   3.263  -3.537  0.00  0.00    -0.295 NA
ATOM      7  C   UNL     1      -1.185   2.610  -4.139  0.00  0.00    +0.136 C 
ATOM      8  C   UNL     1      -0.813   1.115  -4.303  0.00  0.00    +0.123 C 
ATOM      9  C   UNL     1      -1.144   0.361  -3.034  0.00  0.00    +0.233 C 
ATOM     10  O   UNL     1      -2.263   0.113  -2.639  0.00  0.00    -0.274 OA
ATOM     11  C   UNL     1      -1.546   3.231  -5.458  0.00  0.00    +0.003 A 
ATOM     12  C   UNL     1      -0.868   3.395  -6.646  0.00  0.00    +0.008 A 
ATOM     13  C   UNL     1      -1.484   4.024  -7.713  0.00  0.00    +0.000 A 
ATOM     14  C   UNL     1      -2.780   4.487  -7.584  0.00  0.00    +0.002 A 
ATOM     15  C   UNL     1      -3.463   4.326  -6.397  0.00  0.00    +0.023 A 
ATOM     16  C   UNL     1      -2.851   3.693  -5.317  0.00  0.00    +0.039 A 
ATOM     17  N   UNL     1      -3.325   3.415  -4.034  0.00  0.00    -0.283 N 
ATOM     18  C   UNL     1      -2.408   2.781  -3.279  0.00  0.00    +0.243 C 
ATOM     19  O   UNL     1      -2.541   2.417  -2.129  0.00  0.00    -0.273 OA
ATOM     20  H   UNL     1       0.013   3.122  -2.538  0.00  0.00    +0.123 HD
ATOM     21  H   UNL     1      -4.213   3.651  -3.722  0.00  0.00    +0.155 HD
ENDROOT
BRANCH   1  24
ATOM     22  C   UNL     1      -0.018   1.503   0.010  0.00  0.00    +0.047 C 
ATOM     23  C   UNL     1       0.002  -0.004   0.002  0.00  0.00    -0.010 A 
ATOM     24  C   UNL     1       0.006  -0.692  -1.204  0.00  0.00    +0.048 A 
ATOM     25  C   UNL     1       0.025  -2.080  -1.207  0.00  0.00    +0.024 A 
ATOM     26  C   UNL     1       0.041  -2.773  -0.012  0.00  0.00    +0.003 A 
ATOM     27  C   UNL     1       0.036  -2.086   1.187  0.00  0.00    +0.020 A 
ATOM     28  C   UNL     1       0.023  -0.702   1.195  0.00  0.00    +0.046 A 
ATOM     29 CL   UNL     1       0.025   0.157   2.703  0.00  0.00    -0.083 Cl
ENDBRANCH   1  24
BRANCH   5  30
ATOM     30  C   UNL     1       2.404   2.735  -3.325  0.00  0.00    +0.030 C 
BRANCH  30  31
ATOM     31  C   UNL     1       2.864   4.194  -3.314  0.00  0.00    +0.070 C 
BRANCH  31  32
ATOM     32  S   UNL     1       4.350   4.352  -2.286  0.00  0.00    -0.164 S 
ATOM     33  C   UNL     1       4.761   6.117  -2.377  0.00  0.00    +0.084 C 
ENDBRANCH  31  32
ENDBRANCH  30  31
ENDBRANCH   5  30
TORSDOF 4
