REMARK  Name = ZINC45110393
REMARK  11 active torsions:
REMARK  status: ('A' for Active; 'I' for Inactive)
REMARK    1  A    between atoms: C_1  and  C_2
REMARK    2  A    between atoms: C_2  and  C_4
REMARK    3  A    between atoms: C_2  and  N_20
REMARK    4  A    between atoms: C_4  and  N_5
REMARK    5  A    between atoms: N_5  and  S_6
REMARK    6  A    between atoms: S_6  and  C_9
REMARK    7  A    between atoms: C_12  and  N_18
REMARK    8  A    between atoms: C_14  and  N_15
REMARK    9  A    between atoms: N_18  and  N_19
REMARK   10  A    between atoms: N_20  and  C_21
REMARK   11  A    between atoms: N_20  and  C_22
REMARK                            x       y       z     vdW  Elec       q    Type
REMARK                         _______ _______ _______ _____ _____    ______ ____
ROOT
ATOM      1  C   UNL     1      -4.836  -2.186  -1.459  0.00  0.00    +0.135 A 
ATOM      2  C   UNL     1      -5.928  -1.398  -1.145  0.00  0.00    +0.033 A 
ATOM      3  C   UNL     1      -6.604  -0.723  -2.142  0.00  0.00    +0.026 A 
ATOM      4  C   UNL     1      -6.186  -0.837  -3.462  0.00  0.00    +0.043 A 
ATOM      5  C   UNL     1      -5.089  -1.630  -3.774  0.00  0.00    +0.059 A 
ATOM      6  C   UNL     1      -4.414  -2.297  -2.771  0.00  0.00    +0.154 A 
ENDROOT
BRANCH   1   7
ATOM      7  S   UNL     1      -3.975  -3.044  -0.183  0.00  0.00    +0.061 S 
ATOM      8  O   UNL     1      -3.863  -4.396  -0.608  0.00  0.00    -0.153 OA
ATOM      9  O   UNL     1      -4.596  -2.680   1.042  0.00  0.00    -0.153 OA
BRANCH   7  10
ATOM     10  N   UNL     1      -2.437  -2.434  -0.134  0.00  0.00    -0.191 NA
ATOM     11  H   UNL     1      -1.682  -3.004  -0.347  0.00  0.00    +0.148 HD
BRANCH  10  12
ATOM     12  C   UNL     1      -2.216  -1.033   0.233  0.00  0.00    +0.090 C 
BRANCH  12  14
ATOM     13  C   UNL     1      -0.499   0.652   0.906  0.00  0.00    -0.012 C 
ATOM     14  C   UNL     1      -0.741  -0.823   0.581  0.00  0.00    -0.057 C 
BRANCH  14  15
ATOM     15  N   UNL     1       0.093  -1.216  -0.563  0.00  0.00    +0.379 N 
ATOM     16  C   UNL     1      -0.151  -0.299  -1.684  0.00  0.00    -0.096 C 
ATOM     17  C   UNL     1       1.510  -1.154  -0.180  0.00  0.00    -0.096 C 
ATOM     18  H   UNL     1      -0.140  -2.157  -0.841  0.00  0.00    -0.082 HD
ENDBRANCH  14  15
ENDBRANCH  12  14
ENDBRANCH  10  12
ENDBRANCH   7  10
ENDBRANCH   1   7
BRANCH   6  19
ATOM     19  N   UNL     1      -3.241  -3.137  -3.102  0.00  0.00    +0.058 N 
ATOM     20  O   UNL     1      -2.951  -3.343  -4.257  0.00  0.00    -0.126 OA
ATOM     21  O   UNL     1      -2.573  -3.618  -2.216  0.00  0.00    -0.126 OA
ENDBRANCH   6  19
BRANCH   4  22
ATOM     22  N   UNL     1      -6.868  -0.157  -4.474  0.00  0.00    -0.283 N 
ATOM     23  H   UNL     1      -6.575  -0.237  -5.395  0.00  0.00    +0.166 HD
BRANCH  22  24
ATOM     24  N   UNL     1      -7.947   0.622  -4.165  0.00  0.00    -0.257 NA
ATOM     25  H   UNL     1      -8.334   1.048  -4.994  0.00  0.00    +0.140 HD
ATOM     26  H   UNL     1      -8.648   0.090  -3.671  0.00  0.00    +0.140 HD
ENDBRANCH  22  24
ENDBRANCH   4  22
TORSDOF 8
