REMARK  Name = ZINC24099994
REMARK  10 active torsions:
REMARK  status: ('A' for Active; 'I' for Inactive)
REMARK    1  A    between atoms: C_1  and  C_2
REMARK    2  A    between atoms: C_5  and  O_8
REMARK    3  A    between atoms: O_8  and  C_9
REMARK    4  A    between atoms: C_9  and  C_10
REMARK    5  A    between atoms: C_10  and  C_12
REMARK    6  A    between atoms: C_10  and  O_31
REMARK    7  A    between atoms: C_12  and  N_13
REMARK    8  A    between atoms: C_16  and  C_20
REMARK    9  A    between atoms: C_16  and  C_21
REMARK   10  A    between atoms: C_21  and  C_22
REMARK                            x       y       z     vdW  Elec       q    Type
REMARK                         _______ _______ _______ _____ _____    ______ ____
ROOT
ATOM      1  N   UNL     1      -2.167  -4.341   0.245  0.00  0.00    -0.222 N 
ATOM      2  C   UNL     1      -1.992  -4.993   1.411  0.00  0.00    +0.247 C 
ATOM      3  O   UNL     1      -1.986  -4.514   2.525  0.00  0.00    -0.273 OA
ATOM      4  C   UNL     1      -1.803  -6.451   1.041  0.00  0.00    +0.114 C 
ATOM      5  N   UNL     1      -1.903  -6.451  -0.428  0.00  0.00    -0.285 N 
ATOM      6  C   UNL     1      -2.121  -5.176  -0.799  0.00  0.00    +0.309 C 
ATOM      7  O   UNL     1      -2.256  -4.822  -1.954  0.00  0.00    -0.252 OA
ATOM      8  C   UNL     1      -2.909  -7.311   1.656  0.00  0.00    +0.042 C 
ATOM      9  H   UNL     1      -1.799  -7.393  -0.987  0.00  0.00    +0.151 HD
ENDROOT
BRANCH   1  10
ATOM     10  C   UNL     1      -2.388  -2.897   0.135  0.00  0.00    +0.152 C 
BRANCH  10  11
ATOM     11  C   UNL     1      -1.041  -2.184   0.000  0.00  0.00    +0.170 C 
BRANCH  11  12
ATOM     12  O   UNL     1      -0.421  -2.567  -1.229  0.00  0.00    -0.387 OA
ATOM     13  H   UNL     1      -0.182  -3.623  -1.419  0.00  0.00    +0.210 HD
ENDBRANCH  11  12
BRANCH  11  14
ATOM     14  C   UNL     1      -1.262  -0.670   0.011  0.00  0.00    +0.261 C 
BRANCH  14  15
ATOM     15  O   UNL     1       0.002  -0.004   0.002  0.00  0.00    -0.489 OA
BRANCH  15  20
ATOM     16  C   UNL     1      -0.074   5.628   0.031  0.00  0.00    +0.044 C 
ATOM     17  C   UNL     1      -0.054   4.121   0.024  0.00  0.00    -0.050 A 
ATOM     18  C   UNL     1       1.153   3.447   0.009  0.00  0.00    +0.007 A 
ATOM     19  C   UNL     1       1.175   2.066   0.002  0.00  0.00    +0.046 A 
ATOM     20  C   UNL     1      -0.016   1.355   0.009  0.00  0.00    +0.121 A 
ATOM     21  C   UNL     1      -1.226   2.033   0.019  0.00  0.00    +0.046 A 
ATOM     22  C   UNL     1      -1.242   3.414   0.031  0.00  0.00    +0.007 A 
ENDBRANCH  15  20
ENDBRANCH  14  15
ENDBRANCH  11  14
ENDBRANCH  10  11
ENDBRANCH   1  10
BRANCH   4  23
ATOM     23  C   UNL     1      -0.427  -6.946   1.490  0.00  0.00    +0.070 C 
BRANCH  23  24
ATOM     24  C   UNL     1      -0.217  -8.357   1.004  0.00  0.00    -0.041 A 
ATOM     25  C   UNL     1      -0.598  -9.424   1.796  0.00  0.00    +0.007 A 
ATOM     26  C   UNL     1      -0.412 -10.720   1.351  0.00  0.00    +0.050 A 
ATOM     27  C   UNL     1       0.167 -10.952   0.114  0.00  0.00    +0.166 A 
ATOM     28  C   UNL     1       0.556  -9.877  -0.682  0.00  0.00    +0.166 A 
ATOM     29  C   UNL     1       0.361  -8.581  -0.232  0.00  0.00    +0.053 A 
ATOM     30  O   UNL     1       1.094 -10.363  -1.838  0.00  0.00    -0.453 OA
ATOM     31  C   UNL     1       1.404 -11.742  -1.568  0.00  0.00    +0.466 C 
ATOM     32  O   UNL     1       0.462 -12.111  -0.544  0.00  0.00    -0.453 OA
ENDBRANCH  23  24
ENDBRANCH   4  23
TORSDOF 8
