REMARK  Name = ZINC20006567
REMARK  7 active torsions:
REMARK  status: ('A' for Active; 'I' for Inactive)
REMARK    1  A    between atoms: C_1  and  C_2
REMARK    2  A    between atoms: C_2  and  C_4
REMARK    3  A    between atoms: C_2  and  N_10
REMARK    4  A    between atoms: C_11  and  C_13
REMARK    5  A    between atoms: C_18  and  N_19
REMARK    6  A    between atoms: C_20  and  C_22
REMARK    7  A    between atoms: C_22  and  N_23
REMARK                            x       y       z     vdW  Elec       q    Type
REMARK                         _______ _______ _______ _____ _____    ______ ____
ROOT
ATOM      1  N   UNL     1      -2.496  -0.165  -0.198  0.00  0.00    -0.283 N 
ATOM      2  C   UNL     1      -3.421  -0.788  -0.956  0.00  0.00    +0.237 C 
ATOM      3  O   UNL     1      -4.206  -0.136  -1.611  0.00  0.00    -0.274 OA
ATOM      4  H   UNL     1      -1.729  -0.753   0.327  0.00  0.00    +0.155 HD
ENDROOT
BRANCH   1  10
ATOM      5  C   UNL     1      -1.307   1.934   0.024  0.00  0.00    +0.058 A 
ATOM      6  C   UNL     1      -1.336   3.325   0.148  0.00  0.00    +0.015 A 
ATOM      7  C   UNL     1      -2.544   3.989   0.156  0.00  0.00    +0.001 A 
ATOM      8  C   UNL     1      -3.731   3.283   0.052  0.00  0.00    +0.002 A 
ATOM      9  C   UNL     1      -3.719   1.908  -0.066  0.00  0.00    +0.024 A 
ATOM     10  C   UNL     1      -2.511   1.222  -0.080  0.00  0.00    +0.046 A 
BRANCH   5  12
ATOM     11  N   UNL     1       1.138   1.910   0.005  0.00  0.00    -0.305 N 
ATOM     12  C   UNL     1      -0.018   1.218   0.010  0.00  0.00    +0.246 C 
ATOM     13  O   UNL     1       0.002   0.002  -0.001  0.00  0.00    -0.270 OA
ATOM     14  H   UNL     1       1.121   3.010   0.015  0.00  0.00    +0.150 HD
BRANCH  11  16
ATOM     15  C   UNL     1       2.788   0.855  -1.459  0.00  0.00    +0.033 C 
ATOM     16  C   UNL     1       2.419   1.199  -0.015  0.00  0.00    +0.100 C 
BRANCH  16  17
ATOM     17  C   UNL     1       3.490   2.074   0.583  0.00  0.00    -0.027 A 
ATOM     18  C   UNL     1       3.515   3.427   0.298  0.00  0.00    +0.005 A 
ATOM     19  C   UNL     1       4.495   4.231   0.850  0.00  0.00    +0.000 A 
ATOM     20  C   UNL     1       5.455   3.681   1.679  0.00  0.00    +0.000 A 
ATOM     21  C   UNL     1       5.432   2.328   1.960  0.00  0.00    +0.000 A 
ATOM     22  C   UNL     1       4.449   1.524   1.411  0.00  0.00    +0.005 A 
ENDBRANCH  16  17
ENDBRANCH  11  16
ENDBRANCH   5  12
ENDBRANCH   1  10
BRANCH   2  23
ATOM     23  C   UNL     1      -3.478  -2.293  -0.989  0.00  0.00    +0.222 C 
BRANCH  23  24
ATOM     24  N   UNL     1      -4.561  -2.721  -1.879  0.00  0.00    -0.287 N 
ATOM     25  C   UNL     1      -5.807  -2.914  -1.379  0.00  0.00    +0.203 A 
ATOM     26  N   UNL     1      -6.800  -3.288  -2.136  0.00  0.00    -0.233 NA
ATOM     27  C   UNL     1      -6.628  -3.511  -3.449  0.00  0.00    +0.124 A 
ATOM     28  C   UNL     1      -7.513  -3.934  -4.544  0.00  0.00    +0.046 A 
ATOM     29  C   UNL     1      -8.865  -4.263  -4.626  0.00  0.00    +0.014 A 
ATOM     30  C   UNL     1      -9.406  -4.630  -5.839  0.00  0.00    +0.001 A 
ATOM     31  C   UNL     1      -8.609  -4.673  -6.974  0.00  0.00    +0.004 A 
ATOM     32  C   UNL     1      -7.271  -4.352  -6.906  0.00  0.00    +0.047 A 
ATOM     33  C   UNL     1      -6.706  -3.978  -5.691  0.00  0.00    +0.138 A 
ATOM     34  O   UNL     1      -5.453  -3.619  -5.341  0.00  0.00    -0.448 OA
ATOM     35  C   UNL     1      -5.373  -3.337  -4.024  0.00  0.00    +0.219 A 
ATOM     36  C   UNL     1      -4.309  -2.925  -3.190  0.00  0.00    +0.297 A 
ATOM     37  O   UNL     1      -3.189  -2.758  -3.644  0.00  0.00    -0.264 OA
ENDBRANCH  23  24
ENDBRANCH   2  23
TORSDOF 6
