REMARK  Name = ZINC44851569
REMARK  11 active torsions:
REMARK  status: ('A' for Active; 'I' for Inactive)
REMARK    1  A    between atoms: C_1  and  C_2
REMARK    2  A    between atoms: C_2  and  C_3
REMARK    3  A    between atoms: C_3  and  O_4
REMARK    4  A    between atoms: O_4  and  C_5
REMARK    5  A    between atoms: C_10  and  C_11
REMARK    6  A    between atoms: C_11  and  C_12
REMARK    7  A    between atoms: C_12  and  C_13
REMARK    8  A    between atoms: C_13  and  N_14
REMARK    9  A    between atoms: C_15  and  C_17
REMARK   10  A    between atoms: N_22  and  C_24
REMARK   11  A    between atoms: C_24  and  C_25
REMARK                            x       y       z     vdW  Elec       q    Type
REMARK                         _______ _______ _______ _____ _____    ______ ____
ROOT
ATOM      1  N   UNL     1       0.896  -5.945   2.776  0.00  0.00    -0.315 N 
ATOM      2  C   UNL     1       2.030  -6.637   3.007  0.00  0.00    +0.214 C 
ATOM      3  O   UNL     1       2.645  -7.121   2.081  0.00  0.00    -0.276 OA
ATOM      4  H   UNL     1       0.405  -5.558   3.517  0.00  0.00    +0.149 HD
ENDROOT
BRANCH   2   5
ATOM      5  C   UNL     1       2.534  -6.808   4.417  0.00  0.00    +0.058 C 
ATOM      6  C   UNL     1       1.479  -7.541   5.251  0.00  0.00    +0.009 C 
ATOM      7  C   UNL     1       2.032  -7.780   6.660  0.00  0.00    -0.018 C 
ATOM      8  C   UNL     1       3.342  -8.564   6.562  0.00  0.00    -0.078 C 
ATOM      9  N   UNL     1       4.317  -7.799   5.775  0.00  0.00    +0.383 N 
ATOM     10  C   UNL     1       3.826  -7.628   4.402  0.00  0.00    -0.066 C 
ATOM     11  H   UNL     1       4.452  -6.893   6.198  0.00  0.00    -0.081 HD
BRANCH   9  12
ATOM     12  C   UNL     1       5.597  -8.520   5.749  0.00  0.00    -0.043 C 
BRANCH  12  13
ATOM     13  C   UNL     1       6.167  -8.580   7.142  0.00  0.00    -0.064 A 
ATOM     14  C   UNL     1       7.002  -7.574   7.592  0.00  0.00    +0.003 A 
ATOM     15  C   UNL     1       7.525  -7.628   8.870  0.00  0.00    +0.015 A 
ATOM     16  C   UNL     1       7.214  -8.691   9.699  0.00  0.00    +0.018 A 
ATOM     17  C   UNL     1       6.379  -9.698   9.249  0.00  0.00    +0.015 A 
ATOM     18  C   UNL     1       5.852  -9.639   7.973  0.00  0.00    +0.003 A 
ATOM     19 BR   UNL     1       7.930  -8.766  11.448  0.00  0.00    -0.050 Br
ENDBRANCH  12  13
ENDBRANCH   9  12
ENDBRANCH   2   5
BRANCH   1  20
ATOM     20  C   UNL     1       0.407  -5.779   1.405  0.00  0.00    +0.104 C 
BRANCH  20  21
ATOM     21  C   UNL     1      -0.886  -4.961   1.422  0.00  0.00    +0.023 C 
BRANCH  21  22
ATOM     22  C   UNL     1      -1.398  -4.787  -0.010  0.00  0.00    +0.040 C 
BRANCH  22  28
ATOM     23  C   UNL     1      -2.616  -2.596   0.013  0.00  0.00    +0.124 A 
ATOM     24  C   UNL     1      -3.791  -1.857   0.022  0.00  0.00    +0.046 A 
ATOM     25  C   UNL     1      -5.012  -2.503   0.030  0.00  0.00    +0.004 A 
ATOM     26  C   UNL     1      -5.064  -3.885   0.029  0.00  0.00    +0.000 A 
ATOM     27  C   UNL     1      -3.895  -4.623   0.020  0.00  0.00    +0.007 A 
ATOM     28  C   UNL     1      -2.671  -3.982   0.006  0.00  0.00    -0.006 A 
BRANCH  23  29
ATOM     29  O   UNL     1      -1.414  -1.962   0.005  0.00  0.00    -0.492 OA
BRANCH  29  30
ATOM     30  C   UNL     1      -1.433  -0.534   0.013  0.00  0.00    +0.229 C 
BRANCH  30  32
ATOM     31  C   UNL     1      -0.019   1.526   0.010  0.00  0.00    +0.007 C 
ATOM     32  C   UNL     1       0.002  -0.004   0.002  0.00  0.00    +0.038 C 
ENDBRANCH  30  32
ENDBRANCH  29  30
ENDBRANCH  23  29
ENDBRANCH  22  28
ENDBRANCH  21  22
ENDBRANCH  20  21
ENDBRANCH   1  20
TORSDOF 10
