REMARK  Name = ZINC40109053
REMARK  16 active torsions:
REMARK  status: ('A' for Active; 'I' for Inactive)
REMARK    1  A    between atoms: C_1  and  C_2
REMARK    2  A    between atoms: C_2  and  O_3
REMARK    3  A    between atoms: O_3  and  C_4
REMARK    4  A    between atoms: C_8  and  C_10
REMARK    5  A    between atoms: C_12  and  C_24
REMARK    6  A    between atoms: N_16  and  C_17
REMARK    7  A    between atoms: C_17  and  C_18
REMARK    8  A    between atoms: C_18  and  O_19
REMARK    9  A    between atoms: O_19  and  C_20
REMARK   10  A    between atoms: C_20  and  C_21
REMARK   11  A    between atoms: C_21  and  O_22
REMARK   12  A    between atoms: C_24  and  C_26
REMARK   13  A    between atoms: C_30  and  O_32
REMARK   14  A    between atoms: O_32  and  C_33
REMARK   15  A    between atoms: C_33  and  C_34
REMARK   16  A    between atoms: C_37  and  C_40
REMARK                            x       y       z     vdW  Elec       q    Type
REMARK                         _______ _______ _______ _____ _____    ______ ____
ROOT
ATOM      1  C   UNL     1       2.067  -4.028  -3.277  0.00  0.00    +0.145 C 
ATOM      2  C   UNL     1       3.507  -4.479  -3.354  0.00  0.00    +0.076 C 
ATOM      3  C   UNL     1       3.492  -5.761  -3.789  0.00  0.00    +0.249 C 
ATOM      4  C   UNL     1       2.092  -6.184  -4.006  0.00  0.00    +0.288 C 
ATOM      5  O   UNL     1       1.748  -7.282  -4.395  0.00  0.00    -0.266 OA
ATOM      6  N   UNL     1       1.255  -5.172  -3.708  0.00  0.00    -0.281 N 
ATOM      7  O   UNL     1       4.584  -6.532  -3.993  0.00  0.00    -0.282 OA
ENDROOT
BRANCH   1  12
ATOM      8  C   UNL     1       1.259  -1.969  -0.213  0.00  0.00    +0.121 A 
ATOM      9  C   UNL     1       1.076  -2.959   0.742  0.00  0.00    +0.045 A 
ATOM     10  C   UNL     1       1.213  -4.288   0.392  0.00  0.00    +0.004 A 
ATOM     11  C   UNL     1       1.533  -4.633  -0.908  0.00  0.00    +0.006 A 
ATOM     12  C   UNL     1       1.717  -3.649  -1.861  0.00  0.00    -0.019 A 
ATOM     13  C   UNL     1       1.575  -2.318  -1.518  0.00  0.00    +0.051 A 
BRANCH   8  14
ATOM     14  O   UNL     1       1.124  -0.661   0.128  0.00  0.00    -0.492 OA
BRANCH  14  16
ATOM     15  C   UNL     1       0.688   1.138   1.681  0.00  0.00    +0.048 C 
ATOM     16  C   UNL     1       0.798  -0.376   1.489  0.00  0.00    +0.225 C 
ENDBRANCH  14  16
ENDBRANCH   8  14
ENDBRANCH   1  12
BRANCH   2  17
ATOM     17  C   UNL     1       4.691  -3.682  -3.022  0.00  0.00    +0.195 C 
ATOM     18  O   UNL     1       5.407  -4.013  -2.096  0.00  0.00    -0.287 OA
BRANCH  17  19
ATOM     19  C   UNL     1       5.016  -2.476  -3.813  0.00  0.00    +0.026 A 
ATOM     20  C   UNL     1       4.262  -2.155  -4.944  0.00  0.00    +0.012 A 
ATOM     21  C   UNL     1       4.568  -1.029  -5.679  0.00  0.00    +0.004 A 
ATOM     22  C   UNL     1       5.620  -0.214  -5.300  0.00  0.00    +0.046 A 
ATOM     23  C   UNL     1       6.375  -0.525  -4.178  0.00  0.00    +0.122 A 
ATOM     24  C   UNL     1       6.074  -1.650  -3.429  0.00  0.00    +0.057 A 
BRANCH  23  25
ATOM     25  O   UNL     1       7.408   0.278  -3.811  0.00  0.00    -0.487 OA
BRANCH  25  26
ATOM     26  C   UNL     1       7.659   1.425  -4.625  0.00  0.00    +0.264 C 
BRANCH  26  27
ATOM     27  C   UNL     1       8.832   2.190  -4.068  0.00  0.00    -0.010 A 
ATOM     28  C   UNL     1       8.626   3.183  -3.128  0.00  0.00    +0.007 A 
ATOM     29  C   UNL     1       9.702   3.884  -2.617  0.00  0.00    +0.004 A 
ATOM     30  C   UNL     1      10.984   3.593  -3.045  0.00  0.00    -0.050 A 
ATOM     31  C   UNL     1      11.190   2.600  -3.984  0.00  0.00    +0.004 A 
ATOM     32  C   UNL     1      10.114   1.895  -4.492  0.00  0.00    +0.007 A 
ATOM     33  C   UNL     1      12.156   4.359  -2.489  0.00  0.00    +0.044 C 
ENDBRANCH  26  27
ENDBRANCH  25  26
ENDBRANCH  23  25
ENDBRANCH  17  19
ENDBRANCH   2  17
BRANCH   6  34
ATOM     34  C   UNL     1      -0.207  -5.206  -3.798  0.00  0.00    +0.137 C 
BRANCH  34  35
ATOM     35  C   UNL     1      -0.643  -4.756  -5.194  0.00  0.00    +0.179 C 
BRANCH  35  36
ATOM     36  O   UNL     1      -0.183  -5.699  -6.164  0.00  0.00    -0.376 OA
BRANCH  36  37
ATOM     37  C   UNL     1      -0.539  -5.370  -7.508  0.00  0.00    +0.187 C 
BRANCH  37  38
ATOM     38  C   UNL     1       0.003  -6.442  -8.456  0.00  0.00    +0.184 C 
BRANCH  38  39
ATOM     39  O   UNL     1      -0.645  -7.687  -8.187  0.00  0.00    -0.393 OA
ATOM     40  H   UNL     1      -0.349  -8.414  -8.752  0.00  0.00    +0.209 HD
ENDBRANCH  38  39
ENDBRANCH  37  38
ENDBRANCH  36  37
ENDBRANCH  35  36
ENDBRANCH  34  35
ENDBRANCH   6  34
TORSDOF 14
