REMARK  Name = ZINC35518961
REMARK  7 active torsions:
REMARK  status: ('A' for Active; 'I' for Inactive)
REMARK    1  A    between atoms: C_4  and  C_29
REMARK    2  A    between atoms: C_6  and  N_7
REMARK    3  A    between atoms: C_8  and  C_10
REMARK    4  A    between atoms: C_10  and  C_27
REMARK    5  A    between atoms: C_11  and  C_12
REMARK    6  A    between atoms: C_15  and  C_17
REMARK    7  A    between atoms: C_20  and  N_24
REMARK                            x       y       z     vdW  Elec       q    Type
REMARK                         _______ _______ _______ _____ _____    ______ ____
ROOT
ATOM      1  C   UNL     1      -3.624  -0.826   0.246  0.00  0.00    +0.117 C 
ATOM      2  C   UNL     1      -4.833  -0.154   0.366  0.00  0.00    +0.070 C 
ENDROOT
BRANCH   2   3
ATOM      3  C   UNL     1      -6.030  -0.878   0.480  0.00  0.00    +0.130 A 
ATOM      4  C   UNL     1      -7.302  -0.335   0.601  0.00  0.00    +0.050 A 
ATOM      5  C   UNL     1      -8.190  -1.406   0.685  0.00  0.00    +0.050 A 
ATOM      6  C   UNL     1      -7.440  -2.561   0.614  0.00  0.00    +0.137 A 
ATOM      7  O   UNL     1      -6.145  -2.224   0.485  0.00  0.00    -0.455 OA
BRANCH   6   8
ATOM      8  C   UNL     1      -7.970  -3.936   0.666  0.00  0.00    +0.036 A 
ATOM      9  C   UNL     1      -8.860  -4.308   1.677  0.00  0.00    +0.015 A 
ATOM     10  C   UNL     1      -9.352  -5.596   1.718  0.00  0.00    +0.033 A 
ATOM     11  C   UNL     1      -8.967  -6.519   0.762  0.00  0.00    +0.128 A 
ATOM     12  C   UNL     1      -8.086  -6.160  -0.242  0.00  0.00    +0.053 A 
ATOM     13  C   UNL     1      -7.589  -4.873  -0.300  0.00  0.00    +0.054 A 
ATOM     14 CL   UNL     1      -6.490  -4.420  -1.565  0.00  0.00    -0.083 Cl
BRANCH  11  15
ATOM     15  N   UNL     1      -9.499  -7.900   0.815  0.00  0.00    +0.056 N 
ATOM     16  O   UNL     1     -10.269  -8.218   1.691  0.00  0.00    -0.126 OA
ATOM     17  O   UNL     1      -9.165  -8.709  -0.019  0.00  0.00    -0.126 OA
ENDBRANCH  11  15
ENDBRANCH   6   8
ENDBRANCH   2   3
BRANCH   1  19
ATOM     18  N   UNL     1      -1.199  -0.721   0.010  0.00  0.00    -0.281 N 
ATOM     19  C   UNL     1      -2.373  -0.069   0.127  0.00  0.00    +0.259 C 
ATOM     20  O   UNL     1      -2.394   1.148   0.134  0.00  0.00    -0.269 OA
ATOM     21  H   UNL     1      -1.187  -1.688  -0.072  0.00  0.00    +0.155 HD
BRANCH  18  27
ATOM     22  C   UNL     1       0.122   1.155   0.763  0.00  0.00    +0.025 A 
ATOM     23  C   UNL     1       1.310   1.860   0.759  0.00  0.00    +0.022 A 
ATOM     24  C   UNL     1       2.379   1.413   0.004  0.00  0.00    +0.053 A 
ATOM     25  C   UNL     1       2.262   0.258  -0.750  0.00  0.00    +0.075 A 
ATOM     26  C   UNL     1       1.077  -0.451  -0.750  0.00  0.00    +0.037 A 
ATOM     27  C   UNL     1       0.002  -0.005   0.008  0.00  0.00    +0.034 A 
ATOM     28 CL   UNL     1       3.870   2.302   0.001  0.00  0.00    -0.083 Cl
BRANCH  25  29
ATOM     29  C   UNL     1       3.429  -0.226  -1.572  0.00  0.00    +0.419 C 
ATOM     30  F   UNL     1       3.073  -1.402  -2.241  0.00  0.00    -0.166 F 
ATOM     31  F   UNL     1       3.779   0.754  -2.507  0.00  0.00    -0.166 F 
ATOM     32  F   UNL     1       4.519  -0.479  -0.732  0.00  0.00    -0.166 F 
ENDBRANCH  25  29
ENDBRANCH  18  27
ENDBRANCH   1  19
BRANCH   1  33
ATOM     33  C   UNL     1      -3.598  -2.257   0.238  0.00  0.00    +0.104 C 
ATOM     34  N   UNL     1      -3.578  -3.393   0.231  0.00  0.00    -0.191 NA
ENDBRANCH   1  33
TORSDOF 7
