REMARK  Name = ZINC39673869
REMARK  9 active torsions:
REMARK  status: ('A' for Active; 'I' for Inactive)
REMARK    1  A    between atoms: C_1  and  C_2
REMARK    2  A    between atoms: C_2  and  C_3
REMARK    3  A    between atoms: C_3  and  C_4
REMARK    4  A    between atoms: C_4  and  C_6
REMARK    5  A    between atoms: C_4  and  N_7
REMARK    6  A    between atoms: C_8  and  C_10
REMARK    7  A    between atoms: C_21  and  C_23
REMARK    8  A    between atoms: C_24  and  C_34
REMARK    9  A    between atoms: C_27  and  C_28
REMARK                            x       y       z     vdW  Elec       q    Type
REMARK                         _______ _______ _______ _____ _____    ______ ____
ROOT
ATOM      1  C   UNL     1      -2.345  -4.283  -1.025  0.00  0.00    +0.100 C 
ATOM      2  C   UNL     1      -2.797  -4.293  -2.503  0.00  0.00    +0.121 C 
ATOM      3  N   UNL     1      -2.517  -5.671  -2.971  0.00  0.00    -0.296 N 
ATOM      4  C   UNL     1      -2.888  -6.533  -1.824  0.00  0.00    +0.115 C 
ATOM      5  C   UNL     1      -2.409  -5.755  -0.583  0.00  0.00    -0.004 C 
ATOM      6  C   UNL     1      -1.026  -6.240  -0.159  0.00  0.00    -0.010 C 
ATOM      7  C   UNL     1      -1.126  -7.687   0.331  0.00  0.00    -0.082 C 
ATOM      8  N   UNL     1      -2.060  -7.760   1.461  0.00  0.00    +0.379 N 
ATOM      9  C   UNL     1      -3.408  -7.380   1.022  0.00  0.00    -0.082 C 
ATOM     10  C   UNL     1      -3.405  -5.920   0.561  0.00  0.00    -0.010 C 
ATOM     11  C   UNL     1      -2.033  -6.053  -4.169  0.00  0.00    +0.252 C 
ATOM     12  O   UNL     1      -1.856  -7.233  -4.405  0.00  0.00    -0.270 OA
ATOM     13  H   UNL     1      -2.078  -8.703   1.821  0.00  0.00    -0.086 HD
ATOM     14  H   UNL     1      -1.755  -7.131   2.189  0.00  0.00    -0.086 HD
ENDROOT
BRANCH  11  15
ATOM     15  C   UNL     1      -1.718  -5.043  -5.193  0.00  0.00    +0.106 A 
ATOM     16  C   UNL     1      -0.522  -4.413  -5.375  0.00  0.00    +0.147 A 
ATOM     17  O   UNL     1      -0.644  -3.571  -6.404  0.00  0.00    -0.359 OA
ATOM     18  N   UNL     1      -1.958  -3.644  -6.920  0.00  0.00    -0.077 NA
ATOM     19  C   UNL     1      -2.632  -4.522  -6.222  0.00  0.00    +0.126 A 
ATOM     20  C   UNL     1       0.723  -4.630  -4.554  0.00  0.00    +0.090 C 
BRANCH  19  21
ATOM     21  C   UNL     1      -4.047  -4.915  -6.426  0.00  0.00    +0.004 A 
ATOM     22  C   UNL     1      -4.450  -6.229  -6.191  0.00  0.00    +0.010 A 
ATOM     23  C   UNL     1      -5.768  -6.588  -6.383  0.00  0.00    +0.001 A 
ATOM     24  C   UNL     1      -6.690  -5.648  -6.808  0.00  0.00    +0.000 A 
ATOM     25  C   UNL     1      -6.296  -4.343  -7.043  0.00  0.00    +0.001 A 
ATOM     26  C   UNL     1      -4.981  -3.971  -6.849  0.00  0.00    +0.010 A 
ENDBRANCH  19  21
ENDBRANCH  11  15
BRANCH   1  28
ATOM     27  N   UNL     1      -0.528  -3.161   0.223  0.00  0.00    -0.312 N 
ATOM     28  C   UNL     1      -0.935  -3.763  -0.912  0.00  0.00    +0.218 C 
ATOM     29  O   UNL     1      -0.167  -3.885  -1.843  0.00  0.00    -0.275 OA
ATOM     30  H   UNL     1      -1.142  -3.063   0.968  0.00  0.00    +0.149 HD
BRANCH  27  31
ATOM     31  C   UNL     1       0.842  -2.655   0.333  0.00  0.00    +0.070 C 
ATOM     32  C   UNL     1       0.916  -1.248  -0.265  0.00  0.00    +0.028 C 
BRANCH  31  33
ATOM     33  C   UNL     1       1.251  -2.604   1.807  0.00  0.00    +0.022 C 
BRANCH  33  35
ATOM     34  C   UNL     1       1.706  -3.975   3.846  0.00  0.00    +0.004 C 
ATOM     35  C   UNL     1       1.298  -4.025   2.372  0.00  0.00    -0.002 C 
ENDBRANCH  33  35
ENDBRANCH  31  33
ENDBRANCH  27  31
ENDBRANCH   1  28
TORSDOF 6
