REMARK  Name = ZINC63686702
REMARK  7 active torsions:
REMARK  status: ('A' for Active; 'I' for Inactive)
REMARK    1  A    between atoms: C_2  and  C_3
REMARK    2  A    between atoms: C_3  and  N_4
REMARK    3  A    between atoms: N_11  and  C_16
REMARK    4  A    between atoms: C_16  and  C_17
REMARK    5  A    between atoms: N_19  and  C_20
REMARK    6  A    between atoms: C_20  and  C_21
REMARK    7  A    between atoms: C_21  and  C_22
REMARK                            x       y       z     vdW  Elec       q    Type
REMARK                         _______ _______ _______ _____ _____    ______ ____
ROOT
ATOM      1  C   UNL     1      -0.140  -4.213  -5.268  0.00  0.00    +0.233 C 
ATOM      2  O   UNL     1       0.717  -3.437  -4.903  0.00  0.00    -0.274 OA
ATOM      3  N   UNL     1       0.049  -4.950  -6.381  0.00  0.00    -0.314 N 
ATOM      4  H   UNL     1      -0.637  -5.572  -6.673  0.00  0.00    +0.149 HD
ENDROOT
BRANCH   1   5
ATOM      5  C   UNL     1      -1.416  -4.354  -4.479  0.00  0.00    +0.221 C 
BRANCH   5  13
ATOM      6  N   UNL     1      -1.318  -1.700  -1.126  0.00  0.00    -0.299 N 
ATOM      7  C   UNL     1      -1.836  -1.284  -2.349  0.00  0.00    +0.069 A 
ATOM      8  C   UNL     1      -2.329   0.010  -2.485  0.00  0.00    +0.028 A 
ATOM      9  C   UNL     1      -2.845   0.429  -3.693  0.00  0.00    +0.002 A 
ATOM     10  C   UNL     1      -2.875  -0.434  -4.776  0.00  0.00    +0.002 A 
ATOM     11  C   UNL     1      -2.390  -1.720  -4.654  0.00  0.00    +0.028 A 
ATOM     12  C   UNL     1      -1.866  -2.154  -3.440  0.00  0.00    +0.069 A 
ATOM     13  N   UNL     1      -1.378  -3.452  -3.325  0.00  0.00    -0.293 N 
ATOM     14  C   UNL     1      -0.871  -3.882  -2.151  0.00  0.00    +0.317 A 
ATOM     15  O   UNL     1      -0.444  -5.014  -2.046  0.00  0.00    -0.262 OA
ATOM     16  C   UNL     1      -0.833  -2.950  -0.987  0.00  0.00    +0.317 A 
ATOM     17  O   UNL     1      -0.375  -3.316   0.077  0.00  0.00    -0.262 OA
BRANCH   6  18
ATOM     18  C   UNL     1      -1.293  -0.775   0.010  0.00  0.00    +0.152 C 
BRANCH  18  20
ATOM     19  C   UNL     1      -0.016   1.306   0.009  0.00  0.00    +0.005 C 
ATOM     20  C   UNL     1       0.002  -0.004   0.002  0.00  0.00    -0.013 C 
ENDBRANCH  18  20
ENDBRANCH   6  18
ENDBRANCH   5  13
ENDBRANCH   1   5
BRANCH   3  21
ATOM     21  C   UNL     1       1.289  -4.814  -7.148  0.00  0.00    +0.108 C 
BRANCH  21  22
ATOM     22  C   UNL     1       1.249  -5.755  -8.354  0.00  0.00    +0.052 C 
BRANCH  22  23
ATOM     23  C   UNL     1       2.525  -5.615  -9.143  0.00  0.00    -0.040 C 
ATOM     24  C   UNL     1       3.633  -6.385  -9.042  0.00  0.00    +0.000 A 
ATOM     25  C   UNL     1       3.968  -7.538  -8.198  0.00  0.00    +0.030 A 
ATOM     26  C   UNL     1       5.187  -8.113  -8.326  0.00  0.00    +0.042 A 
ATOM     27  C   UNL     1       6.135  -7.634  -9.243  0.00  0.00    +0.022 A 
ATOM     28  C   UNL     1       5.899  -6.579 -10.051  0.00  0.00    +0.027 A 
ATOM     29  C   UNL     1       4.651  -5.899 -10.001  0.00  0.00    +0.043 A 
ATOM     30  N   UNL     1       4.190  -4.869 -10.669  0.00  0.00    -0.380 N 
ATOM     31  C   UNL     1       2.824  -4.589 -10.213  0.00  0.00    +0.144 C 
ATOM     32 CL   UNL     1       5.587  -9.477  -7.331  0.00  0.00    -0.084 Cl
ATOM     33  H   UNL     1       4.671  -4.378 -11.353  0.00  0.00    +0.160 HD
ENDBRANCH  22  23
ENDBRANCH  21  22
ENDBRANCH   3  21
TORSDOF 7
