REMARK  Name = ZINC40013914
REMARK  16 active torsions:
REMARK  status: ('A' for Active; 'I' for Inactive)
REMARK    1  A    between atoms: C_1  and  C_2
REMARK    2  A    between atoms: C_2  and  C_3
REMARK    3  A    between atoms: C_3  and  C_4
REMARK    4  A    between atoms: C_4  and  N_5
REMARK    5  A    between atoms: N_5  and  C_6
REMARK    6  A    between atoms: N_5  and  C_10
REMARK    7  A    between atoms: C_6  and  C_7
REMARK    8  A    between atoms: C_7  and  C_8
REMARK    9  A    between atoms: C_8  and  C_9
REMARK   10  A    between atoms: C_10  and  C_11
REMARK   11  A    between atoms: C_11  and  C_12
REMARK   12  A    between atoms: C_12  and  N_13
REMARK   13  A    between atoms: C_14  and  C_30
REMARK   14  A    between atoms: C_33  and  O_36
REMARK   15  A    between atoms: O_36  and  C_37
REMARK   16  A    between atoms: C_37  and  C_38
REMARK                            x       y       z     vdW  Elec       q    Type
REMARK                         _______ _______ _______ _____ _____    ______ ____
ROOT
ATOM      1  N   UNL     1      -2.042  -5.995  -3.175  0.00  0.00    -0.284 N 
ATOM      2  C   UNL     1      -2.938  -6.324  -2.055  0.00  0.00    +0.144 C 
ATOM      3  C   UNL     1      -4.290  -6.519  -2.658  0.00  0.00    +0.072 A 
ATOM      4  C   UNL     1      -5.578  -6.870  -2.050  0.00  0.00    +0.199 A 
ATOM      5  O   UNL     1      -5.762  -6.894  -0.846  0.00  0.00    -0.287 OA
ATOM      6  C   UNL     1      -6.635  -7.193  -3.041  0.00  0.00    +0.067 A 
ATOM      7  C   UNL     1      -7.850  -7.736  -2.625  0.00  0.00    +0.053 A 
ATOM      8  C   UNL     1      -8.819  -8.035  -3.560  0.00  0.00    +0.124 A 
ATOM      9  C   UNL     1      -8.581  -7.795  -4.909  0.00  0.00    +0.042 A 
ATOM     10  C   UNL     1      -7.386  -7.259  -5.329  0.00  0.00    +0.050 A 
ATOM     11  C   UNL     1      -6.391  -6.946  -4.402  0.00  0.00    +0.140 A 
ATOM     12  O   UNL     1      -5.230  -6.409  -4.842  0.00  0.00    -0.450 OA
ATOM     13  C   UNL     1      -4.179  -6.314  -4.004  0.00  0.00    +0.199 A 
ATOM     14  C   UNL     1      -2.775  -5.986  -4.307  0.00  0.00    +0.283 C 
ATOM     15  O   UNL     1      -2.341  -5.746  -5.416  0.00  0.00    -0.267 OA
ATOM     16  F   UNL     1      -9.999  -8.561  -3.165  0.00  0.00    -0.205 F 
ENDROOT
BRANCH   2  17
ATOM     17  C   UNL     1      -2.968  -5.189  -1.063  0.00  0.00    -0.022 A 
ATOM     18  C   UNL     1      -2.991  -3.882  -1.511  0.00  0.00    +0.009 A 
ATOM     19  C   UNL     1      -3.018  -2.840  -0.604  0.00  0.00    +0.046 A 
ATOM     20  C   UNL     1      -3.023  -3.107   0.757  0.00  0.00    +0.121 A 
ATOM     21  C   UNL     1      -3.001  -4.420   1.204  0.00  0.00    +0.046 A 
ATOM     22  C   UNL     1      -2.979  -5.458   0.293  0.00  0.00    +0.009 A 
BRANCH  20  23
ATOM     23  O   UNL     1      -3.050  -2.084   1.652  0.00  0.00    -0.492 OA
BRANCH  23  24
ATOM     24  C   UNL     1      -3.054  -2.434   3.037  0.00  0.00    +0.225 C 
ATOM     25  C   UNL     1      -3.085  -1.160   3.885  0.00  0.00    +0.048 C 
ENDBRANCH  23  24
ENDBRANCH  20  23
ENDBRANCH   2  17
BRANCH   1  26
ATOM     26  C   UNL     1      -0.607  -5.718  -3.078  0.00  0.00    +0.107 C 
BRANCH  26  27
ATOM     27  C   UNL     1      -0.390  -4.221  -2.851  0.00  0.00    +0.000 C 
BRANCH  27  28
ATOM     28  C   UNL     1       1.109  -3.932  -2.749  0.00  0.00    -0.077 C 
BRANCH  28  29
ATOM     29  N   UNL     1       1.317  -2.494  -2.531  0.00  0.00    +0.380 N 
ATOM     30  H   UNL     1       0.856  -1.973  -3.261  0.00  0.00    -0.082 HD
BRANCH  29  31
ATOM     31  C   UNL     1       0.758  -2.111  -1.228  0.00  0.00    -0.079 C 
BRANCH  31  32
ATOM     32  C   UNL     1       0.847  -0.592  -1.062  0.00  0.00    -0.019 C 
BRANCH  32  34
ATOM     33  C   UNL     1       0.234   1.339   0.400  0.00  0.00    +0.004 C 
ATOM     34  C   UNL     1       0.145  -0.179   0.234  0.00  0.00    -0.005 C 
ENDBRANCH  32  34
ENDBRANCH  31  32
ENDBRANCH  29  31
BRANCH  29  35
ATOM     35  C   UNL     1       2.756  -2.199  -2.552  0.00  0.00    -0.079 C 
BRANCH  35  36
ATOM     36  C   UNL     1       3.310  -2.463  -3.954  0.00  0.00    -0.019 C 
BRANCH  36  37
ATOM     37  C   UNL     1       4.776  -2.030  -4.013  0.00  0.00    -0.005 C 
ATOM     38  C   UNL     1       5.330  -2.294  -5.414  0.00  0.00    +0.004 C 
ENDBRANCH  36  37
ENDBRANCH  35  36
ENDBRANCH  29  35
ENDBRANCH  28  29
ENDBRANCH  27  28
ENDBRANCH  26  27
ENDBRANCH   1  26
TORSDOF 13
