REMARK  Name = ZINC18066177
REMARK  6 active torsions:
REMARK  status: ('A' for Active; 'I' for Inactive)
REMARK    1  A    between atoms: C_3  and  C_10
REMARK    2  A    between atoms: C_5  and  N_7
REMARK    3  A    between atoms: N_11  and  N_12
REMARK    4  A    between atoms: C_13  and  S_15
REMARK    5  A    between atoms: S_15  and  C_16
REMARK    6  A    between atoms: N_21  and  C_24
REMARK                            x       y       z     vdW  Elec       q    Type
REMARK                         _______ _______ _______ _____ _____    ______ ____
ROOT
ATOM      1  N   UNL     1       5.732   3.962  -0.373  0.00  0.00    -0.217 N 
ATOM      2  C   UNL     1       5.456   5.310  -0.303  0.00  0.00    +0.146 C 
ATOM      3  N   UNL     1       4.221   5.727  -0.361  0.00  0.00    -0.380 N 
ATOM      4  H   UNL     1       4.027   6.676  -0.313  0.00  0.00    +0.158 HD
ATOM      5  H   UNL     1       6.651   3.653  -0.330  0.00  0.00    +0.176 HD
ATOM      6  H   UNL     1       3.498   5.087  -0.453  0.00  0.00    +0.158 HD
ENDROOT
BRANCH   1   8
ATOM      7  C   UNL     1       4.947   1.770  -0.571  0.00  0.00    +0.138 C 
ATOM      8  N   UNL     1       4.687   3.039  -0.506  0.00  0.00    -0.188 NA
BRANCH   7  11
ATOM      9  C   UNL     1       1.499   0.325  -0.904  0.00  0.00    +0.003 A 
ATOM     10  C   UNL     1       2.523   1.240  -0.773  0.00  0.00    +0.009 A 
ATOM     11  C   UNL     1       3.847   0.798  -0.711  0.00  0.00    -0.003 A 
ATOM     12  C   UNL     1       4.123  -0.570  -0.782  0.00  0.00    +0.042 A 
ATOM     13  C   UNL     1       3.089  -1.473  -0.913  0.00  0.00    +0.127 A 
ATOM     14  C   UNL     1       1.780  -1.027  -0.974  0.00  0.00    +0.033 A 
BRANCH  13  15
ATOM     15  N   UNL     1       3.380  -2.922  -0.989  0.00  0.00    +0.056 N 
ATOM     16  O   UNL     1       4.523  -3.313  -0.936  0.00  0.00    -0.126 OA
ATOM     17  O   UNL     1       2.474  -3.715  -1.104  0.00  0.00    -0.126 OA
ENDBRANCH  13  15
ENDBRANCH   7  11
ENDBRANCH   1   8
BRANCH   2  18
ATOM     18  S   UNL     1       6.771   6.471  -0.137  0.00  0.00    -0.078 S 
BRANCH  18  19
ATOM     19  C   UNL     1       5.933   8.079  -0.089  0.00  0.00    +0.149 C 
ATOM     20  C   UNL     1       6.952   9.216   0.128  0.00  0.00    +0.120 C 
ATOM     21  C   UNL     1       6.811  10.062  -1.119  0.00  0.00    +0.228 C 
ATOM     22  O   UNL     1       7.439  11.070  -1.358  0.00  0.00    -0.275 OA
ATOM     23  N   UNL     1       5.882   9.520  -1.916  0.00  0.00    -0.209 N 
ATOM     24  C   UNL     1       5.319   8.400  -1.434  0.00  0.00    +0.240 C 
ATOM     25  O   UNL     1       4.459   7.749  -1.988  0.00  0.00    -0.274 OA
BRANCH  23  26
ATOM     26  C   UNL     1       5.524  10.077  -3.152  0.00  0.00    +0.044 A 
ATOM     27  C   UNL     1       4.259  10.621  -3.329  0.00  0.00    +0.025 A 
ATOM     28  C   UNL     1       3.909  11.169  -4.548  0.00  0.00    +0.017 A 
ATOM     29  C   UNL     1       4.817  11.175  -5.591  0.00  0.00    +0.018 A 
ATOM     30  C   UNL     1       6.078  10.633  -5.417  0.00  0.00    +0.017 A 
ATOM     31  C   UNL     1       6.435  10.089  -4.199  0.00  0.00    +0.025 A 
ATOM     32 BR   UNL     1       4.334  11.926  -7.258  0.00  0.00    -0.050 Br
ENDBRANCH  23  26
ENDBRANCH  18  19
ENDBRANCH   2  18
TORSDOF 6
