REMARK  Name = ZINC66852057
REMARK  6 active torsions:
REMARK  status: ('A' for Active; 'I' for Inactive)
REMARK    1  A    between atoms: C_1  and  C_2
REMARK    2  A    between atoms: C_6  and  C_23
REMARK    3  A    between atoms: N_9  and  C_10
REMARK    4  A    between atoms: C_10  and  C_11
REMARK    5  A    between atoms: N_13  and  C_14
REMARK    6  A    between atoms: C_14  and  C_21
REMARK                            x       y       z     vdW  Elec       q    Type
REMARK                         _______ _______ _______ _____ _____    ______ ____
ROOT
ATOM      1  C   UNL     1       2.112  -0.051   1.190  0.00  0.00    +0.180 C 
ENDROOT
BRANCH   1   8
ATOM      2  C   UNL     1      -0.019   1.526   0.010  0.00  0.00    +0.026 C 
ATOM      3  C   UNL     1       0.002  -0.004   0.002  0.00  0.00    +0.080 C 
ATOM      4  C   UNL     1      -1.434  -0.535   0.015  0.00  0.00    +0.179 C 
ATOM      5  O   UNL     1      -2.075  -0.132   1.228  0.00  0.00    -0.369 OA
ATOM      6  C   UNL     1      -1.412  -0.590   2.410  0.00  0.00    +0.162 C 
ATOM      7  C   UNL     1       0.024  -0.060   2.421  0.00  0.00    +0.121 C 
ATOM      8  N   UNL     1       0.711  -0.492   1.194  0.00  0.00    -0.286 NA
BRANCH   6   9
ATOM      9  C   UNL     1      -2.145  -0.086   3.626  0.00  0.00    -0.018 A 
ATOM     10  C   UNL     1      -2.747   1.158   3.603  0.00  0.00    +0.006 A 
ATOM     11  C   UNL     1      -3.420   1.621   4.719  0.00  0.00    +0.000 A 
ATOM     12  C   UNL     1      -3.490   0.839   5.857  0.00  0.00    +0.000 A 
ATOM     13  C   UNL     1      -2.889  -0.406   5.879  0.00  0.00    +0.000 A 
ATOM     14  C   UNL     1      -2.220  -0.870   4.762  0.00  0.00    +0.006 A 
ENDBRANCH   6   9
ENDBRANCH   1   8
BRANCH   1  15
ATOM     15  C   UNL     1       2.866  -0.763   2.283  0.00  0.00    +0.228 C 
ATOM     16  O   UNL     1       2.293  -1.560   2.995  0.00  0.00    -0.274 OA
ATOM     17  N   UNL     1       4.178  -0.515   2.470  0.00  0.00    -0.296 N 
ATOM     18  H   UNL     1       4.636   0.122   1.900  0.00  0.00    +0.150 HD
BRANCH  17  19
ATOM     19  C   UNL     1       4.911  -1.208   3.532  0.00  0.00    +0.121 C 
ATOM     20  C   UNL     1       4.217  -0.928   4.881  0.00  0.00    +0.041 C 
ATOM     21  C   UNL     1       4.622  -1.999   5.858  0.00  0.00    +0.003 C 
ATOM     22  C   UNL     1       5.830  -1.586   6.719  0.00  0.00    +0.000 C 
ATOM     23  C   UNL     1       6.920  -0.858   5.909  0.00  0.00    +0.000 C 
ATOM     24  C   UNL     1       7.160  -1.493   4.566  0.00  0.00    +0.003 C 
ATOM     25  C   UNL     1       6.296  -0.762   3.517  0.00  0.00    +0.041 C 
BRANCH  19  26
ATOM     26  C   UNL     1       4.873  -2.656   3.271  0.00  0.00    +0.088 C 
ATOM     27  N   UNL     1       4.844  -3.774   3.069  0.00  0.00    -0.194 NA
ENDBRANCH  19  26
ENDBRANCH  17  19
ENDBRANCH   1  15
TORSDOF 5
