REMARK  Name = ZINC15947382
REMARK  6 active torsions:
REMARK  status: ('A' for Active; 'I' for Inactive)
REMARK    1  A    between atoms: C_4  and  C_7
REMARK    2  A    between atoms: C_7  and  N_8
REMARK    3  A    between atoms: C_16  and  O_35
REMARK    4  A    between atoms: C_18  and  C_21
REMARK    5  A    between atoms: C_24  and  C_26
REMARK    6  A    between atoms: C_31  and  N_32
REMARK                            x       y       z     vdW  Elec       q    Type
REMARK                         _______ _______ _______ _____ _____    ______ ____
ROOT
ATOM      1  N   UNL     1       4.153  -0.953   1.342  0.00  0.00    +0.386 N 
ATOM      2  C   UNL     1       5.491  -1.559   1.326  0.00  0.00    -0.073 C 
ATOM      3  C   UNL     1       6.098  -1.536   2.732  0.00  0.00    +0.018 C 
ATOM      4  C   UNL     1       5.088  -2.156   3.689  0.00  0.00    -0.027 A 
ATOM      5  C   UNL     1       3.792  -2.285   3.315  0.00  0.00    -0.021 A 
ATOM      6  S   UNL     1       2.997  -3.039   4.705  0.00  0.00    -0.080 S 
ATOM      7  C   UNL     1       4.297  -3.173   5.726  0.00  0.00    +0.080 A 
ATOM      8  C   UNL     1       5.385  -2.645   5.020  0.00  0.00    +0.067 A 
ATOM      9  C   UNL     1       6.707  -2.650   5.697  0.00  0.00    +0.220 C 
ATOM     10  N   UNL     1       6.732  -2.906   6.977  0.00  0.00    -0.220 NA
ATOM     11  C   UNL     1       5.549  -3.125   7.799  0.00  0.00    +0.260 C 
ATOM     12  N   UNL     1       4.428  -3.662   7.006  0.00  0.00    -0.311 N 
ATOM     13  C   UNL     1       3.204  -1.866   2.006  0.00  0.00    -0.035 C 
ATOM     14  H   UNL     1       3.817  -4.324   7.366  0.00  0.00    +0.149 HD
ATOM     15  H   UNL     1       4.187  -0.079   1.845  0.00  0.00    -0.081 HD
ENDROOT
BRANCH  11  16
ATOM     16  C   UNL     1       5.130  -1.815   8.415  0.00  0.00    +0.148 A 
ATOM     17  C   UNL     1       5.953  -0.797   8.733  0.00  0.00    +0.049 A 
ATOM     18  C   UNL     1       5.153   0.225   9.281  0.00  0.00    +0.050 A 
ATOM     19  C   UNL     1       3.872  -0.230   9.267  0.00  0.00    +0.138 A 
ATOM     20  O   UNL     1       3.873  -1.467   8.734  0.00  0.00    -0.456 OA
BRANCH  19  21
ATOM     21  C   UNL     1       2.685   0.507   9.749  0.00  0.00    +0.047 A 
ATOM     22  C   UNL     1       2.694   1.103  11.011  0.00  0.00    +0.014 A 
ATOM     23  C   UNL     1       1.582   1.788  11.455  0.00  0.00    +0.001 A 
ATOM     24  C   UNL     1       0.460   1.887  10.651  0.00  0.00    +0.002 A 
ATOM     25  C   UNL     1       0.444   1.298   9.399  0.00  0.00    +0.033 A 
ATOM     26  C   UNL     1       1.552   0.615   8.941  0.00  0.00    +0.137 A 
BRANCH  26  27
ATOM     27  N   UNL     1       1.536  -0.008   7.598  0.00  0.00    +0.057 N 
ATOM     28  O   UNL     1       0.554   0.086   6.900  0.00  0.00    -0.126 OA
ATOM     29  O   UNL     1       2.505  -0.612   7.200  0.00  0.00    -0.126 OA
ENDBRANCH  26  27
ENDBRANCH  19  21
ENDBRANCH  11  16
BRANCH   9  30
ATOM     30  O   UNL     1       7.846  -2.398   5.011  0.00  0.00    -0.492 OA
ATOM     31  H   UNL     1       8.647  -2.428   5.553  0.00  0.00    +0.294 HD
ENDBRANCH   9  30
BRANCH   1  32
ATOM     32  C   UNL     1       3.711  -0.707  -0.038  0.00  0.00    -0.043 C 
BRANCH  32  36
ATOM     33  C   UNL     1      -0.017   1.378   0.010  0.00  0.00    +0.000 A 
ATOM     34  C   UNL     1       1.171   2.086   0.002  0.00  0.00    +0.000 A 
ATOM     35  C   UNL     1       2.377   1.411  -0.013  0.00  0.00    +0.002 A 
ATOM     36  C   UNL     1       2.396   0.029  -0.020  0.00  0.00    -0.064 A 
ATOM     37  C   UNL     1       1.208  -0.679  -0.012  0.00  0.00    +0.002 A 
ATOM     38  C   UNL     1       0.002  -0.004   0.002  0.00  0.00    +0.000 A 
ENDBRANCH  32  36
ENDBRANCH   1  32
TORSDOF 6
