REMARK  Name = ZINC36167895
REMARK  12 active torsions:
REMARK  status: ('A' for Active; 'I' for Inactive)
REMARK    1  A    between atoms: C_1  and  C_2
REMARK    2  A    between atoms: C_2  and  C_3
REMARK    3  A    between atoms: C_2  and  C_4
REMARK    4  A    between atoms: C_4  and  N_5
REMARK    5  A    between atoms: N_5  and  C_6
REMARK    6  A    between atoms: N_5  and  C_14
REMARK    7  A    between atoms: C_6  and  C_7
REMARK    8  A    between atoms: C_14  and  C_15
REMARK    9  A    between atoms: C_18  and  C_20
REMARK   10  A    between atoms: C_20  and  C_21
REMARK   11  A    between atoms: C_20  and  C_28
REMARK   12  A    between atoms: C_20  and  O_35
REMARK                            x       y       z     vdW  Elec       q    Type
REMARK                         _______ _______ _______ _____ _____    ______ ____
ROOT
ATOM      1  C   UNL     1       1.932   1.562   3.354  0.00  0.00    +0.089 A 
ATOM      2  C   UNL     1       2.393   2.721   3.856  0.00  0.00    +0.043 A 
ATOM      3  C   UNL     1       3.791   2.734   3.642  0.00  0.00    +0.048 A 
ATOM      4  C   UNL     1       4.100   1.581   3.022  0.00  0.00    +0.146 A 
ATOM      5  O   UNL     1       2.971   0.873   2.855  0.00  0.00    -0.463 OA
ENDROOT
BRANCH   1   6
ATOM      6  C   UNL     1       0.494   1.110   3.356  0.00  0.00    -0.003 C 
BRANCH   6   7
ATOM      7  N   UNL     1      -0.164   1.567   2.125  0.00  0.00    +0.387 N 
ATOM      8  H   UNL     1      -0.057   2.566   2.037  0.00  0.00    -0.081 HD
BRANCH   7   9
ATOM      9  C   UNL     1       0.449   0.904   0.967  0.00  0.00    -0.075 C 
BRANCH   9  11
ATOM     10  C   UNL     1       0.278   2.956  -0.448  0.00  0.00    +0.005 C 
ATOM     11  C   UNL     1      -0.133   1.488  -0.322  0.00  0.00    -0.034 C 
ATOM     12  C   UNL     1       0.401   0.705  -1.524  0.00  0.00    +0.005 C 
ENDBRANCH   9  11
ENDBRANCH   7   9
BRANCH   7  13
ATOM     13  C   UNL     1      -1.593   1.231   2.181  0.00  0.00    -0.040 C 
BRANCH  13  14
ATOM     14  C   UNL     1      -2.250   2.013   3.289  0.00  0.00    -0.029 A 
ATOM     15  C   UNL     1      -2.609   1.380   4.464  0.00  0.00    +0.004 A 
ATOM     16  C   UNL     1      -3.211   2.098   5.480  0.00  0.00    +0.000 A 
ATOM     17  C   UNL     1      -3.456   3.449   5.322  0.00  0.00    +0.003 A 
ATOM     18  C   UNL     1      -3.099   4.084   4.148  0.00  0.00    +0.038 A 
ATOM     19  C   UNL     1      -2.490   3.368   3.132  0.00  0.00    +0.125 A 
ATOM     20  F   UNL     1      -2.136   3.988   1.985  0.00  0.00    -0.205 F 
ENDBRANCH  13  14
ENDBRANCH   7  13
ENDBRANCH   6   7
ENDBRANCH   1   6
BRANCH   4  21
ATOM     21  C   UNL     1       5.480   1.155   2.592  0.00  0.00    +0.174 C 
BRANCH  21  22
ATOM     22  C   UNL     1       5.576  -0.349   2.632  0.00  0.00    -0.002 A 
ATOM     23  C   UNL     1       6.518  -0.960   3.440  0.00  0.00    +0.007 A 
ATOM     24  C   UNL     1       6.607  -2.338   3.478  0.00  0.00    +0.003 A 
ATOM     25  C   UNL     1       5.756  -3.108   2.708  0.00  0.00    +0.038 A 
ATOM     26  C   UNL     1       4.813  -2.498   1.899  0.00  0.00    +0.124 A 
ATOM     27  C   UNL     1       4.720  -1.117   1.866  0.00  0.00    +0.045 A 
ATOM     28  F   UNL     1       3.981  -3.249   1.145  0.00  0.00    -0.205 F 
ENDBRANCH  21  22
BRANCH  21  29
ATOM     29  C   UNL     1       5.741   1.637   1.188  0.00  0.00    -0.002 A 
ATOM     30  C   UNL     1       4.750   1.539   0.229  0.00  0.00    +0.007 A 
ATOM     31  C   UNL     1       4.987   1.981  -1.059  0.00  0.00    +0.003 A 
ATOM     32  C   UNL     1       6.216   2.522  -1.389  0.00  0.00    +0.038 A 
ATOM     33  C   UNL     1       7.209   2.620  -0.429  0.00  0.00    +0.124 A 
ATOM     34  C   UNL     1       6.968   2.183   0.862  0.00  0.00    +0.045 A 
ATOM     35  F   UNL     1       8.410   3.148  -0.751  0.00  0.00    -0.205 F 
ENDBRANCH  21  29
BRANCH  21  36
ATOM     36  O   UNL     1       6.450   1.718   3.477  0.00  0.00    -0.372 OA
ATOM     37  H   UNL     1       6.343   1.450   4.400  0.00  0.00    +0.212 HD
ENDBRANCH  21  36
ENDBRANCH   4  21
TORSDOF 10
