REMARK  Name = ZINC09516689
REMARK  10 active torsions:
REMARK  status: ('A' for Active; 'I' for Inactive)
REMARK    1  A    between atoms: C_1  and  C_2
REMARK    2  A    between atoms: C_5  and  N_9
REMARK    3  A    between atoms: C_6  and  C_8
REMARK    4  A    between atoms: N_9  and  S_10
REMARK    5  A    between atoms: S_10  and  C_13
REMARK    6  A    between atoms: C_16  and  N_22
REMARK    7  A    between atoms: C_17  and  N_19
REMARK    8  A    between atoms: C_27  and  C_28
REMARK    9  A    between atoms: C_27  and  N_61
REMARK   10  A    between atoms: C_30  and  C_33
REMARK                            x       y       z     vdW  Elec       q    Type
REMARK                         _______ _______ _______ _____ _____    ______ ____
ROOT
ATOM      1  C   UNL     1      -5.367  -0.569   7.459  0.00  0.00    +0.111 A 
ATOM      2  C   UNL     1      -6.148  -0.705   6.325  0.00  0.00    +0.031 A 
ATOM      3  C   UNL     1      -5.564  -0.665   5.074  0.00  0.00    +0.027 A 
ATOM      4  C   UNL     1      -4.191  -0.488   4.956  0.00  0.00    +0.060 A 
ATOM      5  C   UNL     1      -3.410  -0.359   6.097  0.00  0.00    +0.149 A 
ATOM      6  C   UNL     1      -4.001  -0.394   7.345  0.00  0.00    +0.063 A 
ENDROOT
BRANCH   4   7
ATOM      7  N   UNL     1      -3.597  -0.448   3.692  0.00  0.00    -0.332 N 
ATOM      8  C   UNL     1      -3.739  -1.737   3.002  0.00  0.00    +0.086 C 
ATOM      9  C   UNL     1      -3.008  -1.676   1.658  0.00  0.00    -0.059 C 
ATOM     10  C   UNL     1      -3.426   0.705   1.539  0.00  0.00    -0.059 C 
ATOM     11  C   UNL     1      -4.156   0.644   2.883  0.00  0.00    +0.086 C 
ATOM     12  N   UNL     1      -3.595  -0.590   0.846  0.00  0.00    +0.386 N 
ATOM     13  H   UNL     1      -4.597  -0.772   0.719  0.00  0.00    -0.081 HD
BRANCH  12  14
ATOM     14  C   UNL     1      -2.943  -0.541  -0.480  0.00  0.00    -0.000 C 
BRANCH  14  15
ATOM     15  C   UNL     1      -3.701   0.418  -1.361  0.00  0.00    +0.121 A 
ATOM     16  C   UNL     1      -3.466   1.744  -1.506  0.00  0.00    +0.068 A 
ATOM     17  C   UNL     1      -4.443   2.164  -2.438  0.00  0.00    +0.081 A 
ATOM     18  N   UNL     1      -5.138   1.106  -2.744  0.00  0.00    -0.083 NA
ATOM     19  O   UNL     1      -4.743   0.128  -2.153  0.00  0.00    -0.361 OA
ATOM     20  C   UNL     1      -4.640   3.559  -2.972  0.00  0.00    +0.069 C 
ENDBRANCH  14  15
ENDBRANCH  12  14
ENDBRANCH   4   7
BRANCH   1  21
ATOM     21  S   UNL     1      -6.117  -0.620   9.053  0.00  0.00    +0.072 S 
ATOM     22  O   UNL     1      -5.245   0.075   9.934  0.00  0.00    -0.150 OA
ATOM     23  O   UNL     1      -7.476  -0.247   8.875  0.00  0.00    -0.150 OA
BRANCH  21  24
ATOM     24  N   UNL     1      -6.120  -2.203   9.542  0.00  0.00    -0.216 N 
ATOM     25  H   UNL     1      -6.960  -2.649   9.734  0.00  0.00    +0.174 HD
BRANCH  24  30
ATOM     26  C   UNL     1      -1.225  -5.011  10.097  0.00  0.00    +0.044 C 
ATOM     27  C   UNL     1      -2.526  -4.264   9.949  0.00  0.00    -0.050 A 
ATOM     28  C   UNL     1      -2.590  -2.920  10.268  0.00  0.00    +0.005 A 
ATOM     29  C   UNL     1      -3.780  -2.234  10.135  0.00  0.00    +0.025 A 
ATOM     30  C   UNL     1      -4.914  -2.894   9.678  0.00  0.00    +0.051 A 
ATOM     31  C   UNL     1      -4.847  -4.245   9.362  0.00  0.00    -0.028 A 
ATOM     32  C   UNL     1      -3.652  -4.925   9.494  0.00  0.00    +0.008 A 
ATOM     33  C   UNL     1      -6.076  -4.967   8.873  0.00  0.00    +0.046 C 
ENDBRANCH  24  30
ENDBRANCH  21  24
ENDBRANCH   1  21
BRANCH   5  34
ATOM     34  N   UNL     1      -1.946  -0.177   5.975  0.00  0.00    +0.058 N 
ATOM     35  O   UNL     1      -1.250  -0.156   6.975  0.00  0.00    -0.126 OA
ATOM     36  O   UNL     1      -1.437  -0.048   4.876  0.00  0.00    -0.126 OA
ENDBRANCH   5  34
TORSDOF 7
