REMARK  Name = ZINC34921424
REMARK  19 active torsions:
REMARK  status: ('A' for Active; 'I' for Inactive)
REMARK    1  A    between atoms: C_1  and  C_2
REMARK    2  A    between atoms: C_2  and  O_3
REMARK    3  A    between atoms: O_3  and  C_4
REMARK    4  A    between atoms: C_7  and  C_10
REMARK    5  A    between atoms: C_10  and  C_11
REMARK    6  A    between atoms: C_12  and  C_23
REMARK    7  A    between atoms: N_14  and  C_19
REMARK    8  A    between atoms: C_19  and  C_20
REMARK    9  A    between atoms: C_20  and  O_21
REMARK   10  A    between atoms: O_21  and  C_22
REMARK   11  A    between atoms: C_26  and  O_32
REMARK   12  A    between atoms: C_27  and  O_29
REMARK   13  A    between atoms: O_29  and  C_30
REMARK   14  A    between atoms: C_30  and  C_31
REMARK   15  A    between atoms: O_32  and  C_33
REMARK   16  A    between atoms: C_33  and  C_34
REMARK   17  A    between atoms: C_34  and  C_35
REMARK   18  A    between atoms: C_35  and  C_36
REMARK   19  A    between atoms: C_35  and  C_37
REMARK                            x       y       z     vdW  Elec       q    Type
REMARK                         _______ _______ _______ _____ _____    ______ ____
ROOT
ATOM      1  C   UNL     1       1.931  -6.908  -3.034  0.00  0.00    +0.076 C 
ATOM      2  C   UNL     1       2.384  -5.954  -4.115  0.00  0.00    +0.145 C 
ATOM      3  N   UNL     1       2.760  -6.786  -5.264  0.00  0.00    -0.281 N 
ATOM      4  C   UNL     1       2.562  -8.073  -4.925  0.00  0.00    +0.288 C 
ATOM      5  O   UNL     1       2.774  -9.025  -5.649  0.00  0.00    -0.266 OA
ATOM      6  C   UNL     1       2.051  -8.158  -3.541  0.00  0.00    +0.249 C 
ATOM      7  O   UNL     1       1.751  -9.302  -2.885  0.00  0.00    -0.282 OA
ENDROOT
BRANCH   2   8
ATOM      8  C   UNL     1       3.573  -5.160  -3.639  0.00  0.00    -0.019 A 
ATOM      9  C   UNL     1       4.796  -5.782  -3.472  0.00  0.00    +0.009 A 
ATOM     10  C   UNL     1       5.889  -5.057  -3.035  0.00  0.00    +0.050 A 
ATOM     11  C   UNL     1       5.761  -3.704  -2.766  0.00  0.00    +0.162 A 
ATOM     12  C   UNL     1       4.530  -3.078  -2.935  0.00  0.00    +0.162 A 
ATOM     13  C   UNL     1       3.439  -3.809  -3.377  0.00  0.00    +0.055 A 
BRANCH  12  14
ATOM     14  O   UNL     1       4.399  -1.750  -2.671  0.00  0.00    -0.489 OA
BRANCH  14  15
ATOM     15  C   UNL     1       3.144  -1.146  -2.989  0.00  0.00    +0.226 C 
ATOM     16  C   UNL     1       3.224   0.361  -2.738  0.00  0.00    +0.048 C 
ENDBRANCH  14  15
ENDBRANCH  12  14
BRANCH  11  17
ATOM     17  O   UNL     1       6.836  -2.990  -2.336  0.00  0.00    -0.488 OA
BRANCH  17  18
ATOM     18  C   UNL     1       8.067  -3.699  -2.185  0.00  0.00    +0.229 C 
BRANCH  18  19
ATOM     19  C   UNL     1       9.153  -2.737  -1.697  0.00  0.00    +0.044 C 
BRANCH  19  20
ATOM     20  C   UNL     1      10.472  -3.496  -1.535  0.00  0.00    -0.014 C 
ATOM     21  C   UNL     1      11.585  -2.513  -1.169  0.00  0.00    +0.007 C 
ATOM     22  C   UNL     1      10.327  -4.539  -0.425  0.00  0.00    +0.007 C 
ENDBRANCH  19  20
ENDBRANCH  18  19
ENDBRANCH  17  18
ENDBRANCH  11  17
ENDBRANCH   2   8
BRANCH   1  23
ATOM     23  C   UNL     1       1.458  -6.550  -1.694  0.00  0.00    +0.195 C 
ATOM     24  O   UNL     1       2.115  -6.853  -0.715  0.00  0.00    -0.287 OA
BRANCH  23  28
ATOM     25  C   UNL     1      -2.208  -4.457  -1.224  0.00  0.00    +0.121 A 
ATOM     26  C   UNL     1      -1.486  -4.851  -0.103  0.00  0.00    +0.046 A 
ATOM     27  C   UNL     1      -0.297  -5.530  -0.251  0.00  0.00    +0.015 A 
ATOM     28  C   UNL     1       0.183  -5.823  -1.530  0.00  0.00    +0.022 A 
ATOM     29  C   UNL     1      -0.546  -5.425  -2.655  0.00  0.00    +0.015 A 
ATOM     30  C   UNL     1      -1.736  -4.752  -2.498  0.00  0.00    +0.046 A 
BRANCH  25  31
ATOM     31  O   UNL     1      -3.379  -3.789  -1.074  0.00  0.00    -0.492 OA
BRANCH  31  33
ATOM     32  C   UNL     1      -5.136  -2.764   0.232  0.00  0.00    +0.048 C 
ATOM     33  C   UNL     1      -3.806  -3.519   0.263  0.00  0.00    +0.225 C 
ENDBRANCH  31  33
ENDBRANCH  25  31
ENDBRANCH  23  28
ENDBRANCH   1  23
BRANCH   3  34
ATOM     34  C   UNL     1       3.262  -6.301  -6.552  0.00  0.00    +0.137 C 
BRANCH  34  35
ATOM     35  C   UNL     1       4.789  -6.209  -6.502  0.00  0.00    +0.178 C 
BRANCH  35  36
ATOM     36  O   UNL     1       5.340  -7.519  -6.350  0.00  0.00    -0.381 OA
ATOM     37  C   UNL     1       6.768  -7.545  -6.292  0.00  0.00    +0.194 C 
ENDBRANCH  35  36
ENDBRANCH  34  35
ENDBRANCH   3  34
TORSDOF 14
