REMARK  Name = ZINC02669780
REMARK  8 active torsions:
REMARK  status: ('A' for Active; 'I' for Inactive)
REMARK    1  A    between atoms: C_1  and  O_2
REMARK    2  A    between atoms: O_2  and  C_3
REMARK    3  A    between atoms: C_3  and  C_5
REMARK    4  A    between atoms: C_9  and  N_10
REMARK    5  A    between atoms: C_11  and  C_13
REMARK    6  A    between atoms: C_13  and  C_28
REMARK    7  A    between atoms: C_14  and  C_15
REMARK    8  A    between atoms: C_18  and  C_20
REMARK                            x       y       z     vdW  Elec       q    Type
REMARK                         _______ _______ _______ _____ _____    ______ ____
ROOT
ATOM      1  N   UNL     1       1.143   1.903   0.001  0.00  0.00    -0.275 N 
ATOM      2  C   UNL     1      -0.014   1.213   0.009  0.00  0.00    +0.259 C 
ATOM      3  O   UNL     1       0.002  -0.004   0.002  0.00  0.00    -0.269 OA
ATOM      4  H   UNL     1       1.130   2.873   0.007  0.00  0.00    +0.156 HD
ENDROOT
BRANCH   1   9
ATOM      5  C   UNL     1       3.636   1.755  -0.029  0.00  0.00    +0.091 A 
ATOM      6  C   UNL     1       4.747   0.818  -0.038  0.00  0.00    -0.021 A 
ATOM      7  C   UNL     1       4.399  -0.487  -0.043  0.00  0.00    -0.004 A 
ATOM      8  S   UNL     1       2.629  -0.483  -0.026  0.00  0.00    -0.077 S 
ATOM      9  C   UNL     1       2.352   1.227  -0.014  0.00  0.00    +0.087 A 
ATOM     10  C   UNL     1       5.320  -1.668  -0.059  0.00  0.00    +0.043 C 
ATOM     11  C   UNL     1       6.724  -1.181  -0.449  0.00  0.00    +0.005 C 
ATOM     12  C   UNL     1       7.069   0.052   0.392  0.00  0.00    +0.005 C 
ATOM     13  C   UNL     1       6.212   1.239  -0.049  0.00  0.00    +0.037 C 
BRANCH   5  14
ATOM     14  C   UNL     1       3.863   3.202  -0.031  0.00  0.00    +0.342 C 
ATOM     15  O   UNL     1       3.970   3.802   1.022  0.00  0.00    -0.245 OA
BRANCH  14  17
ATOM     16  C   UNL     1       4.178   5.301  -1.125  0.00  0.00    +0.280 C 
ATOM     17  O   UNL     1       3.953   3.869  -1.199  0.00  0.00    -0.464 OA
ENDBRANCH  14  17
ENDBRANCH   5  14
ENDBRANCH   1   9
BRANCH   2  18
ATOM     18  C   UNL     1      -1.295   1.929   0.019  0.00  0.00    +0.117 C 
ATOM     19  C   UNL     1      -2.488   1.218   0.021  0.00  0.00    +0.070 C 
BRANCH  19  20
ATOM     20  C   UNL     1      -3.713   1.904   0.030  0.00  0.00    +0.130 A 
ATOM     21  C   UNL     1      -4.972   1.320   0.027  0.00  0.00    +0.050 A 
ATOM     22  C   UNL     1      -5.898   2.361   0.043  0.00  0.00    +0.050 A 
ATOM     23  C   UNL     1      -5.181   3.540   0.046  0.00  0.00    +0.137 A 
ATOM     24  O   UNL     1      -3.870   3.245   0.038  0.00  0.00    -0.455 OA
BRANCH  23  25
ATOM     25  C   UNL     1      -5.758   4.898   0.055  0.00  0.00    +0.036 A 
ATOM     26  C   UNL     1      -6.747   5.247  -0.869  0.00  0.00    +0.014 A 
ATOM     27  C   UNL     1      -7.285   6.516  -0.851  0.00  0.00    +0.021 A 
ATOM     28  C   UNL     1      -6.840   7.448   0.071  0.00  0.00    +0.042 A 
ATOM     29  C   UNL     1      -5.856   7.112   0.986  0.00  0.00    +0.040 A 
ATOM     30  C   UNL     1      -5.313   5.843   0.984  0.00  0.00    +0.053 A 
ATOM     31 CL   UNL     1      -4.079   5.423   2.131  0.00  0.00    -0.083 Cl
ATOM     32 CL   UNL     1      -7.519   9.046   0.081  0.00  0.00    -0.083 Cl
ENDBRANCH  23  25
ENDBRANCH  19  20
BRANCH  18  33
ATOM     33  C   UNL     1      -1.314   3.361   0.026  0.00  0.00    +0.104 C 
ATOM     34  N   UNL     1      -1.329   4.497   0.033  0.00  0.00    -0.191 NA
ENDBRANCH  18  33
ENDBRANCH   2  18
TORSDOF 7
