REMARK  Name = ZINC63362131
REMARK  4 active torsions:
REMARK  status: ('A' for Active; 'I' for Inactive)
REMARK    1  A    between atoms: C_1  and  C_2
REMARK    2  A    between atoms: C_5  and  C_8
REMARK    3  A    between atoms: N_26  and  C_29
REMARK    4  A    between atoms: C_31  and  C_36
REMARK                            x       y       z     vdW  Elec       q    Type
REMARK                         _______ _______ _______ _____ _____    ______ ____
ROOT
ATOM      1  C   UNL     1       0.059  -4.275  -0.021  0.00  0.00    +0.135 C 
ATOM      2  C   UNL     1       1.502  -4.782   0.125  0.00  0.00    +0.131 C 
ATOM      3  C   UNL     1       1.421  -6.259   0.486  0.00  0.00    -0.034 C 
ATOM      4  C   UNL     1       2.115  -6.909  -0.443  0.00  0.00    -0.001 A 
ATOM      5  C   UNL     1       2.447  -8.335  -0.596  0.00  0.00    +0.010 A 
ATOM      6  C   UNL     1       3.182  -8.664  -1.692  0.00  0.00    +0.001 A 
ATOM      7  C   UNL     1       3.615  -7.729  -2.637  0.00  0.00    +0.002 A 
ATOM      8  C   UNL     1       3.358  -6.399  -2.573  0.00  0.00    +0.026 A 
ATOM      9  C   UNL     1       2.596  -5.930  -1.464  0.00  0.00    +0.043 A 
ATOM     10  N   UNL     1       2.227  -4.702  -1.145  0.00  0.00    -0.375 N 
ATOM     11  C   UNL     1       0.619  -6.784   1.654  0.00  0.00    +0.065 C 
ATOM     12  C   UNL     1      -0.804  -6.220   1.496  0.00  0.00    +0.169 C 
ATOM     13  N   UNL     1      -0.695  -4.793   1.128  0.00  0.00    -0.264 N 
ATOM     14  C   UNL     1      -1.383  -4.103   2.046  0.00  0.00    +0.317 C 
ATOM     15  O   UNL     1      -1.594  -2.908   1.977  0.00  0.00    -0.252 OA
ATOM     16  N   UNL     1      -1.811  -4.882   3.048  0.00  0.00    -0.191 N 
ATOM     17  C   UNL     1      -1.502  -6.201   2.838  0.00  0.00    +0.248 C 
ATOM     18  O   UNL     1      -1.730  -7.149   3.559  0.00  0.00    -0.273 OA
ATOM     19  H   UNL     1       2.395  -3.893  -1.653  0.00  0.00    +0.160 HD
ENDROOT
BRANCH   1  24
ATOM     20  C   UNL     1      -0.018   1.503   0.012  0.00  0.00    +0.044 C 
ATOM     21  C   UNL     1       0.002  -0.004   0.003  0.00  0.00    -0.050 A 
ATOM     22  C   UNL     1      -0.535  -0.696  -1.066  0.00  0.00    +0.004 A 
ATOM     23  C   UNL     1      -0.516  -2.079  -1.074  0.00  0.00    +0.006 A 
ATOM     24  C   UNL     1       0.040  -2.768  -0.013  0.00  0.00    -0.025 A 
ATOM     25  C   UNL     1       0.578  -2.076   1.056  0.00  0.00    +0.006 A 
ATOM     26  C   UNL     1       0.563  -0.694   1.062  0.00  0.00    +0.004 A 
ENDBRANCH   1  24
BRANCH  16  27
ATOM     27  C   UNL     1      -2.500  -4.409   4.175  0.00  0.00    +0.064 A 
ATOM     28  C   UNL     1      -3.886  -4.340   4.165  0.00  0.00    +0.037 A 
ATOM     29  C   UNL     1      -4.561  -3.874   5.276  0.00  0.00    +0.057 A 
ATOM     30  C   UNL     1      -3.858  -3.475   6.398  0.00  0.00    +0.014 A 
ATOM     31  C   UNL     1      -2.477  -3.542   6.412  0.00  0.00    +0.022 A 
ATOM     32  C   UNL     1      -1.796  -4.013   5.305  0.00  0.00    +0.063 A 
ATOM     33 CL   UNL     1      -0.062  -4.104   5.326  0.00  0.00    -0.082 Cl
BRANCH  29  34
ATOM     34  C   UNL     1      -6.066  -3.800   5.265  0.00  0.00    +0.417 C 
ATOM     35  F   UNL     1      -6.596  -5.005   5.738  0.00  0.00    -0.166 F 
ATOM     36  F   UNL     1      -6.487  -2.750   6.089  0.00  0.00    -0.166 F 
ATOM     37  F   UNL     1      -6.513  -3.575   3.958  0.00  0.00    -0.166 F 
ENDBRANCH  29  34
ENDBRANCH  16  27
TORSDOF 3
