REMARK  Name = ZINC00388410
REMARK  4 active torsions:
REMARK  status: ('A' for Active; 'I' for Inactive)
REMARK    1  A    between atoms: C_1  and  C_2
REMARK    2  A    between atoms: C_1  and  C_7
REMARK    3  A    between atoms: C_2  and  C_4
REMARK    4  A    between atoms: C_4  and  C_5
REMARK                            x       y       z     vdW  Elec       q    Type
REMARK                         _______ _______ _______ _____ _____    ______ ____
ROOT
ATOM      1  C   UNL     1      -2.462   0.945   0.019  0.00  0.00    +0.155 C 
ATOM      2  O   UNL     1      -2.225  -0.239   0.011  0.00  0.00    -0.296 OA
ENDROOT
BRANCH   1   3
ATOM      3  C   UNL     1      -3.889   1.428   0.028  0.00  0.00    +0.199 C 
BRANCH   3   4
ATOM      4  C   UNL     1      -4.820   0.243   0.026  0.00  0.00    +0.363 C 
ATOM      5  O   UNL     1      -4.371  -0.878   0.018  0.00  0.00    -0.246 OA
ATOM      6  O   UNL     1      -6.149   0.434   0.034  0.00  0.00    -0.246 OA
ENDBRANCH   3   4
ENDBRANCH   1   3
BRANCH   1   7
ATOM      7  C   UNL     1      -1.329   1.940   0.019  0.00  0.00    +0.199 C 
BRANCH   7   8
ATOM      8  C   UNL     1      -0.014   1.204   0.009  0.00  0.00    +0.363 C 
ATOM      9  O   UNL     1       0.002  -0.004   0.002  0.00  0.00    -0.246 OA
ATOM     10  O   UNL     1       1.139   1.891   0.001  0.00  0.00    -0.246 OA
ENDBRANCH   7   8
ENDBRANCH   1   7
TORSDOF 4
