REMARK  Name = ZINC09076597
REMARK  7 active torsions:
REMARK  status: ('A' for Active; 'I' for Inactive)
REMARK    1  A    between atoms: C_1  and  C_2
REMARK    2  A    between atoms: C_2  and  C_3
REMARK    3  A    between atoms: C_2  and  C_4
REMARK    4  A    between atoms: C_2  and  C_5
REMARK    5  A    between atoms: C_5  and  C_7
REMARK    6  A    between atoms: C_9  and  C_32
REMARK    7  A    between atoms: C_32  and  C_34
REMARK                            x       y       z     vdW  Elec       q    Type
REMARK                         _______ _______ _______ _____ _____    ______ ____
ROOT
ATOM      1  C   UNL     1      -3.406  -0.765   0.696  0.00  0.00    +0.153 C 
ATOM      2  C   UNL     1      -3.078   0.707   1.077  0.00  0.00    +0.109 C 
ATOM      3  C   UNL     1      -2.839   1.413  -0.274  0.00  0.00    +0.108 C 
ATOM      4  C   UNL     1      -1.469   1.994  -0.361  0.00  0.00    -0.008 A 
ATOM      5  C   UNL     1      -0.218   1.420  -0.285  0.00  0.00    +0.006 A 
ATOM      6  C   UNL     1       0.876   2.270  -0.400  0.00  0.00    +0.000 A 
ATOM      7  C   UNL     1       0.716   3.629  -0.578  0.00  0.00    +0.002 A 
ATOM      8  C   UNL     1      -0.538   4.215  -0.651  0.00  0.00    +0.023 A 
ATOM      9  C   UNL     1      -1.645   3.374  -0.536  0.00  0.00    +0.038 A 
ATOM     10  N   UNL     1      -2.994   3.686  -0.575  0.00  0.00    -0.284 N 
ATOM     11  C   UNL     1      -3.771   2.590  -0.429  0.00  0.00    +0.231 C 
ATOM     12  O   UNL     1      -4.983   2.558  -0.423  0.00  0.00    -0.274 OA
ATOM     13  C   UNL     1      -3.094   0.346  -1.327  0.00  0.00    +0.117 C 
ATOM     14  N   UNL     1      -2.777  -0.925  -0.620  0.00  0.00    -0.311 N 
ATOM     15  C   UNL     1      -3.140  -1.991  -1.407  0.00  0.00    +0.038 A 
ATOM     16  C   UNL     1      -3.800  -3.106  -0.927  0.00  0.00    +0.024 A 
ATOM     17  C   UNL     1      -4.143  -4.129  -1.793  0.00  0.00    +0.002 A 
ATOM     18  C   UNL     1      -3.829  -4.046  -3.139  0.00  0.00    +0.001 A 
ATOM     19  C   UNL     1      -3.167  -2.940  -3.636  0.00  0.00    +0.010 A 
ATOM     20  C   UNL     1      -2.816  -1.906  -2.779  0.00  0.00    -0.004 A 
ATOM     21  C   UNL     1      -2.100  -0.702  -3.265  0.00  0.00    +0.007 C 
ATOM     22  C   UNL     1      -2.232   0.430  -2.550  0.00  0.00    -0.003 C 
ATOM     23  H   UNL     1      -3.340   4.584  -0.692  0.00  0.00    +0.155 HD
ENDROOT
BRANCH   1  24
ATOM     24  C   UNL     1      -4.896  -0.969   0.601  0.00  0.00    +0.160 C 
ATOM     25  O   UNL     1      -5.458  -0.830  -0.459  0.00  0.00    -0.295 OA
BRANCH  24  27
ATOM     26  C   UNL     1      -7.142  -1.601   1.440  0.00  0.00    +0.018 C 
ATOM     27  C   UNL     1      -5.684  -1.348   1.828  0.00  0.00    +0.022 C 
ATOM     28  C   UNL     1      -5.093  -2.618   2.443  0.00  0.00    +0.018 C 
ATOM     29  C   UNL     1      -5.619  -0.209   2.848  0.00  0.00    +0.018 C 
ENDBRANCH  24  27
ENDBRANCH   1  24
BRANCH   2  30
ATOM     30  C   UNL     1      -1.836   0.766   1.928  0.00  0.00    +0.170 C 
ATOM     31  O   UNL     1      -1.034  -0.144   1.895  0.00  0.00    -0.292 OA
BRANCH  30  32
ATOM     32  C   UNL     1      -1.595   1.927   2.799  0.00  0.00    +0.018 A 
ATOM     33  C   UNL     1      -2.557   2.937   2.906  0.00  0.00    +0.013 A 
ATOM     34  C   UNL     1      -2.327   4.018   3.728  0.00  0.00    +0.020 A 
ATOM     35  C   UNL     1      -1.142   4.113   4.439  0.00  0.00    +0.041 A 
ATOM     36  C   UNL     1      -0.181   3.119   4.333  0.00  0.00    +0.020 A 
ATOM     37  C   UNL     1      -0.400   2.029   3.519  0.00  0.00    +0.013 A 
ATOM     38 CL   UNL     1      -0.858   5.482   5.467  0.00  0.00    -0.084 Cl
ENDBRANCH  30  32
ENDBRANCH   2  30
TORSDOF 4
