REMARK  Name = ZINC11787008
REMARK  12 active torsions:
REMARK  status: ('A' for Active; 'I' for Inactive)
REMARK    1  A    between atoms: C_1  and  C_2
REMARK    2  A    between atoms: C_5  and  C_35
REMARK    3  A    between atoms: C_6  and  C_8
REMARK    4  A    between atoms: C_8  and  N_66
REMARK    5  A    between atoms: C_10  and  N_19
REMARK    6  A    between atoms: C_13  and  C_15
REMARK    7  A    between atoms: C_15  and  O_17
REMARK    8  A    between atoms: O_17  and  C_18
REMARK    9  A    between atoms: C_20  and  C_22
REMARK   10  A    between atoms: C_26  and  N_28
REMARK   11  A    between atoms: C_29  and  C_34
REMARK   12  A    between atoms: C_31  and  C_33
REMARK                            x       y       z     vdW  Elec       q    Type
REMARK                         _______ _______ _______ _____ _____    ______ ____
ROOT
ATOM      1  C   UNL     1      -0.774  10.921   2.089  0.00  0.00    -0.055 C 
ATOM      2  C   UNL     1      -1.375   9.918   3.106  0.00  0.00    +0.056 C 
ATOM      3  C   UNL     1      -2.756  10.534   3.424  0.00  0.00    +0.016 C 
ATOM      4  C   UNL     1      -2.625  12.025   3.062  0.00  0.00    +0.045 C 
ATOM      5  N   UNL     1      -1.243  12.212   2.606  0.00  0.00    +0.392 N 
ATOM      6  H   UNL     1      -0.653  12.504   3.394  0.00  0.00    -0.080 HD
ENDROOT
BRANCH   2   7
ATOM      7  N   UNL     1      -1.525   8.592   2.499  0.00  0.00    -0.310 N 
ATOM      8  C   UNL     1      -0.531   7.688   2.601  0.00  0.00    +0.244 C 
ATOM      9  O   UNL     1       0.490   7.972   3.196  0.00  0.00    -0.270 OA
ATOM     10  H   UNL     1      -2.340   8.366   2.025  0.00  0.00    +0.149 HD
BRANCH   8  11
ATOM     11  C   UNL     1      -0.683   6.351   1.989  0.00  0.00    +0.039 A 
ATOM     12  C   UNL     1      -1.856   6.022   1.306  0.00  0.00    +0.013 A 
ATOM     13  C   UNL     1      -1.995   4.773   0.736  0.00  0.00    +0.003 A 
ATOM     14  C   UNL     1      -0.977   3.844   0.839  0.00  0.00    +0.028 A 
ATOM     15  C   UNL     1       0.193   4.161   1.517  0.00  0.00    +0.066 A 
ATOM     16  C   UNL     1       0.341   5.411   2.098  0.00  0.00    +0.040 A 
BRANCH  15  17
ATOM     17  N   UNL     1       1.223   3.214   1.620  0.00  0.00    -0.237 N 
ATOM     18  C   UNL     1       1.952   2.948   2.727  0.00  0.00    +0.042 A 
ATOM     19  C   UNL     1       2.841   1.978   2.411  0.00  0.00    +0.047 A 
ATOM     20  C   UNL     1       2.643   1.632   1.070  0.00  0.00    +0.061 A 
ATOM     21  N   UNL     1       1.673   2.373   0.595  0.00  0.00    -0.171 NA
ATOM     22  C   UNL     1       3.413   0.588   0.304  0.00  0.00    +0.067 C 
ATOM     23  C   UNL     1       1.804   3.615   4.070  0.00  0.00    +0.066 C 
ENDBRANCH  15  17
ENDBRANCH   8  11
ENDBRANCH   2   7
BRANCH   4  24
ATOM     24  C   UNL     1      -2.894  12.874   4.277  0.00  0.00    +0.293 C 
ATOM     25  O   UNL     1      -2.031  13.601   4.710  0.00  0.00    -0.253 OA
BRANCH  24  26
ATOM     26  O   UNL     1      -4.093  12.823   4.880  0.00  0.00    -0.469 OA
ATOM     27  C   UNL     1      -4.281  13.668   6.045  0.00  0.00    +0.280 C 
ENDBRANCH  24  26
ENDBRANCH   4  24
BRANCH   5  28
ATOM     28  C   UNL     1      -1.187  13.256   1.539  0.00  0.00    -0.042 C 
BRANCH  28  34
ATOM     29  C   UNL     1       2.648  12.748  -1.635  0.00  0.00    +0.044 C 
ATOM     30  C   UNL     1       2.084  13.286  -0.346  0.00  0.00    -0.050 A 
ATOM     31  C   UNL     1       2.883  14.032   0.500  0.00  0.00    +0.003 A 
ATOM     32  C   UNL     1       2.366  14.526   1.683  0.00  0.00    +0.004 A 
ATOM     33  C   UNL     1       1.047  14.280   2.016  0.00  0.00    -0.049 A 
ATOM     34  C   UNL     1       0.249  13.530   1.173  0.00  0.00    -0.061 A 
ATOM     35  C   UNL     1       0.767  13.035  -0.010  0.00  0.00    +0.005 A 
ATOM     36  C   UNL     1       0.480  14.824   3.303  0.00  0.00    +0.044 C 
ENDBRANCH  28  34
ENDBRANCH   5  28
TORSDOF 7
