REMARK  Name = ZINC16310184
REMARK  12 active torsions:
REMARK  status: ('A' for Active; 'I' for Inactive)
REMARK    1  A    between atoms: C_1  and  C_2
REMARK    2  A    between atoms: C_5  and  S_8
REMARK    3  A    between atoms: S_8  and  N_11
REMARK    4  A    between atoms: N_14  and  C_15
REMARK    5  A    between atoms: C_15  and  C_16
REMARK    6  A    between atoms: C_16  and  N_17
REMARK    7  A    between atoms: N_17  and  C_18
REMARK    8  A    between atoms: C_18  and  C_19
REMARK    9  A    between atoms: C_19  and  O_20
REMARK   10  A    between atoms: N_23  and  S_24
REMARK   11  A    between atoms: S_24  and  C_27
REMARK   12  A    between atoms: C_30  and  C_33
REMARK                            x       y       z     vdW  Elec       q    Type
REMARK                         _______ _______ _______ _____ _____    ______ ____
ROOT
ATOM      1  N   UNL     1      -1.823   3.576  -2.629  0.00  0.00    -0.281 N 
ATOM      2  C   UNL     1      -1.107   3.195  -1.553  0.00  0.00    +0.322 C 
ATOM      3  O   UNL     1      -0.649   4.032  -0.799  0.00  0.00    -0.251 OA
ATOM      4  N   UNL     1      -0.897   1.885  -1.312  0.00  0.00    -0.169 N 
ATOM      5  H   UNL     1      -1.263   1.218  -1.913  0.00  0.00    +0.178 HD
ENDROOT
BRANCH   4   6
ATOM      6  S   UNL     1      -0.017   1.417   0.010  0.00  0.00    +0.076 S 
ATOM      7  O   UNL     1       0.002  -0.004   0.002  0.00  0.00    -0.150 OA
ATOM      8  O   UNL     1       1.172   2.195   0.003  0.00  0.00    -0.150 OA
BRANCH   6   9
ATOM      9  C   UNL     1      -0.927   1.900   1.439  0.00  0.00    +0.109 A 
ATOM     10  C   UNL     1      -0.717   3.145   2.004  0.00  0.00    +0.029 A 
ATOM     11  C   UNL     1      -1.434   3.526   3.123  0.00  0.00    +0.005 A 
ATOM     12  C   UNL     1      -2.353   2.659   3.683  0.00  0.00    -0.050 A 
ATOM     13  C   UNL     1      -2.559   1.412   3.121  0.00  0.00    +0.005 A 
ATOM     14  C   UNL     1      -1.846   1.033   2.000  0.00  0.00    +0.029 A 
ATOM     15  C   UNL     1      -3.131   3.072   4.906  0.00  0.00    +0.044 C 
ENDBRANCH   6   9
ENDBRANCH   4   6
BRANCH   1  16
ATOM     16  C   UNL     1      -2.050   5.000  -2.890  0.00  0.00    +0.128 C 
BRANCH  16  17
ATOM     17  C   UNL     1      -0.922   5.544  -3.769  0.00  0.00    +0.125 C 
BRANCH  17  21
ATOM     18  N   UNL     1      -0.485   8.970  -5.028  0.00  0.00    -0.169 N 
ATOM     19  C   UNL     1      -0.276   7.661  -4.787  0.00  0.00    +0.319 C 
ATOM     20  O   UNL     1       0.700   7.105  -5.253  0.00  0.00    -0.251 OA
ATOM     21  N   UNL     1      -1.149   6.967  -4.030  0.00  0.00    -0.297 N 
ATOM     22  H   UNL     1      -1.264   9.413  -4.656  0.00  0.00    +0.178 HD
ATOM     23  H   UNL     1      -1.927   7.410  -3.658  0.00  0.00    +0.150 HD
BRANCH  18  24
ATOM     24  S   UNL     1       0.587   9.823  -5.958  0.00  0.00    +0.076 S 
ATOM     25  O   UNL     1       0.083  11.148  -6.048  0.00  0.00    -0.150 OA
ATOM     26  O   UNL     1       1.883   9.533  -5.453  0.00  0.00    -0.150 OA
BRANCH  24  31
ATOM     27  C   UNL     1       0.352   7.509 -11.526  0.00  0.00    +0.044 C 
ATOM     28  C   UNL     1       0.411   8.087 -10.136  0.00  0.00    -0.050 A 
ATOM     29  C   UNL     1      -0.428   9.128  -9.784  0.00  0.00    +0.005 A 
ATOM     30  C   UNL     1      -0.374   9.658  -8.508  0.00  0.00    +0.029 A 
ATOM     31  C   UNL     1       0.518   9.147  -7.584  0.00  0.00    +0.109 A 
ATOM     32  C   UNL     1       1.360   8.109  -7.938  0.00  0.00    +0.029 A 
ATOM     33  C   UNL     1       1.303   7.576  -9.212  0.00  0.00    +0.005 A 
ENDBRANCH  24  31
ENDBRANCH  18  24
ENDBRANCH  17  21
ENDBRANCH  16  17
ENDBRANCH   1  16
BRANCH   1  34
ATOM     34  C   UNL     1      -2.374   2.568  -3.537  0.00  0.00    +0.137 C 
BRANCH  34  35
ATOM     35  C   UNL     1      -3.774   2.168  -3.066  0.00  0.00    +0.175 C 
BRANCH  35  36
ATOM     36  O   UNL     1      -4.651   3.292  -3.171  0.00  0.00    -0.393 OA
ATOM     37  H   UNL     1      -5.558   3.111  -2.889  0.00  0.00    +0.209 HD
ENDBRANCH  35  36
ENDBRANCH  34  35
ENDBRANCH   1  34
TORSDOF 10
