REMARK  Name = ZINC33393998
REMARK  4 active torsions:
REMARK  status: ('A' for Active; 'I' for Inactive)
REMARK    1  A    between atoms: C_10  and  C_11
REMARK    2  A    between atoms: C_22  and  C_24
REMARK    3  A    between atoms: C_22  and  C_28
REMARK    4  A    between atoms: C_24  and  C_25
REMARK                            x       y       z     vdW  Elec       q    Type
REMARK                         _______ _______ _______ _____ _____    ______ ____
ROOT
ATOM      1  C   UNL     1       4.960   0.161  -0.046  0.00  0.00    -0.026 C 
ATOM      2  C   UNL     1       5.339   0.593   1.366  0.00  0.00    +0.078 C 
ATOM      3  C   UNL     1       6.857   0.900   1.073  0.00  0.00    +0.088 C 
ATOM      4  C   UNL     1       7.223   1.731   2.192  0.00  0.00    +0.242 C 
ATOM      5  O   UNL     1       8.434   1.837   2.760  0.00  0.00    -0.273 OA
ATOM      6  N   UNL     1       6.109   2.375   2.548  0.00  0.00    -0.145 NA
ATOM      7  C   UNL     1       4.983   1.949   1.889  0.00  0.00    +0.242 C 
ATOM      8  O   UNL     1       3.930   2.538   1.751  0.00  0.00    -0.273 OA
ATOM      9  C   UNL     1       7.313  -0.292   0.348  0.00  0.00    +0.058 C 
ATOM     10  N   UNL     1       6.104  -0.720  -0.453  0.00  0.00    +0.396 N 
ATOM     11  H   UNL     1       5.887  -1.683  -0.241  0.00  0.00    -0.083 HD
ATOM     12  H   UNL     1       6.281  -0.617  -1.441  0.00  0.00    -0.083 HD
ENDROOT
BRANCH   1  22
ATOM     13  C   UNL     1       0.022   1.284  -0.788  0.00  0.00    +0.001 A 
ATOM     14  C   UNL     1       1.207   2.017  -0.800  0.00  0.00    +0.001 A 
ATOM     15  C   UNL     1       2.404   1.418  -0.558  0.00  0.00    +0.009 A 
ATOM     16  C   UNL     1       2.451   0.039  -0.291  0.00  0.00    -0.016 A 
ATOM     17  C   UNL     1       1.246  -0.707  -0.279  0.00  0.00    -0.018 A 
ATOM     18  C   UNL     1       0.028  -0.053  -0.534  0.00  0.00    +0.008 A 
ATOM     19  C   UNL     1       1.292  -2.086  -0.012  0.00  0.00    +0.008 A 
ATOM     20  C   UNL     1       2.490  -2.685   0.230  0.00  0.00    +0.001 A 
ATOM     21  C   UNL     1       3.674  -1.952   0.218  0.00  0.00    +0.002 A 
ATOM     22  C   UNL     1       3.668  -0.615  -0.037  0.00  0.00    -0.053 A 
ENDBRANCH   1  22
BRANCH   9  23
ATOM     23  C   UNL     1       7.741  -1.364   1.317  0.00  0.00    +0.347 C 
ATOM     24  O   UNL     1       7.182  -2.447   1.313  0.00  0.00    -0.248 OA
ATOM     25  O   UNL     1       8.648  -1.149   2.103  0.00  0.00    -0.248 OA
ENDBRANCH   9  23
BRANCH   9  26
ATOM     26  C   UNL     1       8.461   0.064  -0.598  0.00  0.00    +0.125 C 
BRANCH  26  27
ATOM     27  C   UNL     1       8.830  -1.145  -1.418  0.00  0.00    +0.355 C 
ATOM     28  O   UNL     1       8.230  -2.195  -1.261  0.00  0.00    -0.246 OA
ATOM     29  O   UNL     1       9.729  -1.073  -2.240  0.00  0.00    -0.246 OA
ENDBRANCH  26  27
ENDBRANCH   9  26
TORSDOF 4
