REMARK  Name = ZINC22430378
REMARK  16 active torsions:
REMARK  status: ('A' for Active; 'I' for Inactive)
REMARK    1  A    between atoms: C_1  and  C_2
REMARK    2  A    between atoms: C_5  and  S_8
REMARK    3  A    between atoms: S_8  and  N_11
REMARK    4  A    between atoms: N_11  and  C_12
REMARK    5  A    between atoms: N_11  and  C_30
REMARK    6  A    between atoms: C_12  and  C_13
REMARK    7  A    between atoms: N_15  and  C_16
REMARK    8  A    between atoms: C_16  and  C_18
REMARK    9  A    between atoms: C_16  and  C_22
REMARK   10  A    between atoms: C_18  and  C_19
REMARK   11  A    between atoms: C_19  and  C_20
REMARK   12  A    between atoms: C_19  and  C_21
REMARK   13  A    between atoms: C_25  and  O_28
REMARK   14  A    between atoms: O_28  and  C_29
REMARK   15  A    between atoms: C_33  and  C_37
REMARK   16  A    between atoms: C_35  and  C_36
REMARK                            x       y       z     vdW  Elec       q    Type
REMARK                         _______ _______ _______ _____ _____    ______ ____
ROOT
ATOM      1  N   UNL     1      -3.064   1.438  -3.425  0.00  0.00    -0.194 N 
ENDROOT
BRANCH   1   2
ATOM      2  C   UNL     1      -1.845   1.861  -3.962  0.00  0.00    +0.055 A 
ATOM      3  C   UNL     1      -0.653   1.329  -3.486  0.00  0.00    +0.025 A 
ATOM      4  C   UNL     1       0.549   1.749  -4.018  0.00  0.00    +0.005 A 
ATOM      5  C   UNL     1       0.568   2.697  -5.025  0.00  0.00    -0.050 A 
ATOM      6  C   UNL     1      -0.616   3.229  -5.501  0.00  0.00    +0.008 A 
ATOM      7  C   UNL     1      -1.823   2.809  -4.976  0.00  0.00    -0.028 A 
ATOM      8  C   UNL     1      -3.114   3.384  -5.499  0.00  0.00    +0.046 C 
ATOM      9  C   UNL     1       1.883   3.153  -5.605  0.00  0.00    +0.044 C 
ENDBRANCH   1   2
BRANCH   1  10
ATOM     10  S   UNL     1      -3.888   0.186  -4.129  0.00  0.00    +0.075 S 
ATOM     11  O   UNL     1      -2.965  -0.482  -4.979  0.00  0.00    -0.150 OA
ATOM     12  O   UNL     1      -4.583  -0.481  -3.085  0.00  0.00    -0.150 OA
BRANCH  10  17
ATOM     13  C   UNL     1      -8.089   2.611  -7.718  0.00  0.00    +0.044 C 
ATOM     14  C   UNL     1      -7.040   2.005  -6.822  0.00  0.00    -0.050 A 
ATOM     15  C   UNL     1      -5.832   1.593  -7.353  0.00  0.00    +0.005 A 
ATOM     16  C   UNL     1      -4.870   1.037  -6.530  0.00  0.00    +0.029 A 
ATOM     17  C   UNL     1      -5.115   0.895  -5.177  0.00  0.00    +0.109 A 
ATOM     18  C   UNL     1      -6.325   1.302  -4.648  0.00  0.00    +0.029 A 
ATOM     19  C   UNL     1      -7.285   1.862  -5.469  0.00  0.00    +0.005 A 
ENDBRANCH  10  17
ENDBRANCH   1  10
BRANCH   1  20
ATOM     20  C   UNL     1      -3.612   2.102  -2.240  0.00  0.00    +0.227 C 
BRANCH  20  21
ATOM     21  C   UNL     1      -3.018   1.486  -1.000  0.00  0.00    +0.233 C 
ATOM     22  O   UNL     1      -2.215   0.582  -1.096  0.00  0.00    -0.274 OA
ATOM     23  N   UNL     1      -3.378   1.940   0.217  0.00  0.00    -0.307 N 
ATOM     24  H   UNL     1      -4.106   2.760   0.305  0.00  0.00    +0.149 HD
BRANCH  23  25
ATOM     25  C   UNL     1      -2.800   1.342   1.423  0.00  0.00    +0.103 C 
BRANCH  25  26
ATOM     26  C   UNL     1      -3.740   1.542   2.583  0.00  0.00    -0.027 A 
ATOM     27  C   UNL     1      -4.408   2.744   2.732  0.00  0.00    +0.009 A 
ATOM     28  C   UNL     1      -5.275   2.928   3.791  0.00  0.00    +0.046 A 
ATOM     29  C   UNL     1      -5.467   1.909   4.714  0.00  0.00    +0.120 A 
ATOM     30  C   UNL     1      -4.792   0.706   4.566  0.00  0.00    +0.046 A 
ATOM     31  C   UNL     1      -3.931   0.525   3.501  0.00  0.00    +0.009 A 
BRANCH  29  32
ATOM     32  O   UNL     1      -6.314   2.090   5.760  0.00  0.00    -0.495 OA
ATOM     33  C   UNL     1      -6.975   3.354   5.850  0.00  0.00    +0.277 C 
ENDBRANCH  29  32
ENDBRANCH  25  26
BRANCH  25  34
ATOM     34  C   UNL     1      -1.459   2.012   1.732  0.00  0.00    +0.030 C 
BRANCH  34  35
ATOM     35  C   UNL     1      -0.465   1.703   0.611  0.00  0.00    -0.015 C 
ATOM     36  C   UNL     1      -0.172   0.202   0.588  0.00  0.00    +0.007 C 
ATOM     37  C   UNL     1       0.835   2.473   0.856  0.00  0.00    +0.007 C 
ENDBRANCH  34  35
ENDBRANCH  25  34
ENDBRANCH  23  25
ENDBRANCH  20  21
ENDBRANCH   1  20
TORSDOF 10
