REMARK  Name = ZINC03460768
REMARK  5 active torsions:
REMARK  status: ('A' for Active; 'I' for Inactive)
REMARK    1  A    between atoms: C_1  and  C_2
REMARK    2  A    between atoms: C_2  and  C_20
REMARK    3  A    between atoms: N_5  and  C_9
REMARK    4  A    between atoms: C_9  and  C_10
REMARK    5  A    between atoms: N_12  and  C_13
REMARK                            x       y       z     vdW  Elec       q    Type
REMARK                         _______ _______ _______ _____ _____    ______ ____
ROOT
ATOM      1  C   UNL     1      -1.213  -2.953   1.070  0.00  0.00    +0.047 C 
ATOM      2  C   UNL     1       0.034  -2.204   0.595  0.00  0.00    +0.135 C 
ATOM      3  C   UNL     1       0.017  -0.771   1.088  0.00  0.00    +0.251 C 
ATOM      4  O   UNL     1       0.014  -0.393   2.240  0.00  0.00    -0.272 OA
ATOM      5  N   UNL     1       0.003  -0.004  -0.020  0.00  0.00    -0.215 N 
ATOM      6  C   UNL     1       0.005  -0.746  -1.134  0.00  0.00    +0.310 C 
ATOM      7  O   UNL     1      -0.010  -0.280  -2.256  0.00  0.00    -0.252 OA
ATOM      8  N   UNL     1       0.028  -2.066  -0.872  0.00  0.00    -0.281 N 
ATOM      9  H   UNL     1       0.036  -2.786  -1.522  0.00  0.00    +0.152 HD
ENDROOT
BRANCH   2  10
ATOM     10  C   UNL     1       1.285  -2.908   1.055  0.00  0.00    -0.016 A 
ATOM     11  C   UNL     1       1.889  -2.537   2.242  0.00  0.00    +0.006 A 
ATOM     12  C   UNL     1       3.034  -3.186   2.667  0.00  0.00    +0.000 A 
ATOM     13  C   UNL     1       3.579  -4.199   1.901  0.00  0.00    +0.000 A 
ATOM     14  C   UNL     1       2.977  -4.567   0.712  0.00  0.00    +0.000 A 
ATOM     15  C   UNL     1       1.830  -3.921   0.289  0.00  0.00    +0.006 A 
ENDBRANCH   2  10
BRANCH   5  16
ATOM     16  C   UNL     1      -0.017   1.460  -0.007  0.00  0.00    +0.214 C 
BRANCH  16  17
ATOM     17  C   UNL     1       1.397   1.982  -0.007  0.00  0.00    +0.235 C 
ATOM     18  O   UNL     1       2.329   1.207  -0.016  0.00  0.00    -0.274 OA
ATOM     19  N   UNL     1       1.624   3.311   0.004  0.00  0.00    -0.283 N 
ATOM     20  H   UNL     1       0.881   3.931  -0.054  0.00  0.00    +0.155 HD
BRANCH  19  21
ATOM     21  C   UNL     1       2.934   3.795   0.100  0.00  0.00    +0.047 A 
ATOM     22  C   UNL     1       3.977   3.106  -0.505  0.00  0.00    +0.024 A 
ATOM     23  C   UNL     1       5.268   3.587  -0.409  0.00  0.00    +0.002 A 
ATOM     24  C   UNL     1       5.523   4.754   0.289  0.00  0.00    +0.001 A 
ATOM     25  C   UNL     1       4.487   5.443   0.892  0.00  0.00    +0.017 A 
ATOM     26  C   UNL     1       3.192   4.970   0.796  0.00  0.00    +0.039 A 
ATOM     27 BR   UNL     1       1.775   5.917   1.615  0.00  0.00    -0.048 Br
ENDBRANCH  19  21
ENDBRANCH  16  17
ENDBRANCH   5  16
TORSDOF 4
