REMARK  Name = ZINC34787534
REMARK  4 active torsions:
REMARK  status: ('A' for Active; 'I' for Inactive)
REMARK    1  A    between atoms: C_6  and  C_7
REMARK    2  A    between atoms: N_16  and  C_17
REMARK    3  A    between atoms: C_17  and  C_18
REMARK    4  A    between atoms: C_27  and  C_29
REMARK                            x       y       z     vdW  Elec       q    Type
REMARK                         _______ _______ _______ _____ _____    ______ ____
ROOT
ATOM      1  C   UNL     1      -7.345  -0.209   7.165  0.00  0.00    +0.020 C 
ENDROOT
BRANCH   1   2
ATOM      2  C   UNL     1      -6.456  -0.946   6.197  0.00  0.00    +0.199 C 
ATOM      3  O   UNL     1      -6.946  -1.630   5.324  0.00  0.00    -0.278 OA
ATOM      4  N   UNL     1      -5.116  -0.844   6.301  0.00  0.00    -0.301 N 
ATOM      5  C   UNL     1      -4.248  -1.520   5.402  0.00  0.00    +0.109 C 
ATOM      6  C   UNL     1      -3.952  -3.009   5.778  0.00  0.00    +0.038 C 
ATOM      7  C   UNL     1      -3.829  -3.079   7.335  0.00  0.00    +0.109 C 
ATOM      8  N   UNL     1      -3.179  -1.963   7.929  0.00  0.00    -0.300 N 
ATOM      9  C   UNL     1      -4.047  -0.879   8.457  0.00  0.00    +0.126 C 
ATOM     10  C   UNL     1      -4.481  -0.015   7.358  0.00  0.00    +0.126 C 
ATOM     11  C   UNL     1      -1.836  -1.890   8.009  0.00  0.00    +0.219 C 
ATOM     12  O   UNL     1      -1.156  -2.830   7.653  0.00  0.00    -0.275 OA
BRANCH  11  13
ATOM     13  C   UNL     1      -1.179  -0.643   8.540  0.00  0.00    +0.075 C 
ATOM     14  C   UNL     1       0.158  -0.427   7.827  0.00  0.00    +0.013 C 
ATOM     15  C   UNL     1       0.825   0.840   8.366  0.00  0.00    +0.001 C 
ATOM     16  C   UNL     1       1.067   0.688   9.869  0.00  0.00    +0.000 C 
ATOM     17  C   UNL     1      -0.269   0.473  10.582  0.00  0.00    +0.001 C 
ATOM     18  C   UNL     1      -0.936  -0.794  10.043  0.00  0.00    +0.013 C 
ENDBRANCH  11  13
ENDBRANCH   1   2
BRANCH   1  27
ATOM     19  C   UNL     1      -9.613   0.331   7.709  0.00  0.00    -0.005 C 
ATOM     20  C   UNL     1     -11.070  -0.033   7.439  0.00  0.00    -0.047 A 
ATOM     21  C   UNL     1     -12.151   0.778   7.776  0.00  0.00    +0.010 A 
ATOM     22  C   UNL     1     -13.412   0.375   7.495  0.00  0.00    +0.045 A 
ATOM     23  S   UNL     1     -13.129  -1.212   6.722  0.00  0.00    -0.101 S 
ATOM     24  C   UNL     1     -11.363  -1.217   6.833  0.00  0.00    -0.010 A 
ATOM     25  C   UNL     1     -10.382  -2.251   6.385  0.00  0.00    +0.024 C 
ATOM     26  C   UNL     1      -9.026  -1.913   7.028  0.00  0.00    -0.072 C 
ATOM     27  N   UNL     1      -8.752  -0.481   6.841  0.00  0.00    +0.393 N 
ATOM     28  H   UNL     1      -8.924  -0.234   5.878  0.00  0.00    -0.080 HD
BRANCH  19  34
ATOM     29  C   UNL     1      -9.361   2.710   8.447  0.00  0.00    +0.004 A 
ATOM     30  C   UNL     1      -9.160   4.050   8.176  0.00  0.00    +0.020 A 
ATOM     31  C   UNL     1      -8.991   4.474   6.870  0.00  0.00    +0.041 A 
ATOM     32  C   UNL     1      -9.025   3.555   5.836  0.00  0.00    +0.020 A 
ATOM     33  C   UNL     1      -9.226   2.216   6.108  0.00  0.00    +0.004 A 
ATOM     34  C   UNL     1      -9.394   1.793   7.413  0.00  0.00    -0.057 A 
ATOM     35 CL   UNL     1      -8.739   6.157   6.529  0.00  0.00    -0.084 Cl
ENDBRANCH  19  34
ENDBRANCH   1  27
TORSDOF 4
