REMARK  Name = ZINC13495803
REMARK  11 active torsions:
REMARK  status: ('A' for Active; 'I' for Inactive)
REMARK    1  A    between atoms: C_1  and  C_2
REMARK    2  A    between atoms: C_2  and  C_3
REMARK    3  A    between atoms: C_3  and  C_5
REMARK    4  A    between atoms: C_3  and  N_69
REMARK    5  A    between atoms: N_9  and  C_10
REMARK    6  A    between atoms: C_15  and  C_16
REMARK    7  A    between atoms: C_15  and  N_69
REMARK    8  A    between atoms: C_16  and  C_17
REMARK    9  A    between atoms: C_23  and  C_24
REMARK   10  A    between atoms: C_23  and  N_69
REMARK   11  A    between atoms: C_30  and  C_36
REMARK                            x       y       z     vdW  Elec       q    Type
REMARK                         _______ _______ _______ _____ _____    ______ ____
ROOT
ATOM      1  N   UNL     1      -2.267   1.776  -1.196  0.00  0.00    +0.389 N 
ATOM      2  H   UNL     1      -2.046   1.602  -2.183  0.00  0.00    -0.080 HD
ENDROOT
BRANCH   1   3
ATOM      3  C   UNL     1      -1.005   1.848  -0.428  0.00  0.00    +0.003 C 
BRANCH   3   4
ATOM      4  C   UNL     1      -0.131   0.685  -0.823  0.00  0.00    +0.138 A 
ATOM      5  N   UNL     1      -0.502  -0.566  -0.949  0.00  0.00    -0.115 NA
ATOM      6  N   UNL     1       0.528  -1.252  -1.305  0.00  0.00    -0.023 NA
ATOM      7  N   UNL     1       1.547  -0.472  -1.409  0.00  0.00    -0.044 NA
ATOM      8  N   UNL     1       1.181   0.731  -1.120  0.00  0.00    -0.228 N 
BRANCH   8   9
ATOM      9  C   UNL     1       2.033   1.923  -1.117  0.00  0.00    +0.111 C 
ATOM     10  C   UNL     1       2.668   2.122  -2.509  0.00  0.00    +0.027 C 
ATOM     11  C   UNL     1       4.095   2.644  -2.203  0.00  0.00    +0.002 C 
ATOM     12  C   UNL     1       4.496   1.830  -0.948  0.00  0.00    +0.002 C 
ATOM     13  C   UNL     1       3.194   1.737  -0.125  0.00  0.00    +0.027 C 
ENDBRANCH   8   9
ENDBRANCH   3   4
BRANCH   3  15
ATOM     14  C   UNL     1       0.015   1.998   1.847  0.00  0.00    +0.002 C 
ATOM     15  C   UNL     1      -1.288   1.786   1.074  0.00  0.00    -0.011 C 
ENDBRANCH   3  15
ENDBRANCH   1   3
BRANCH   1  16
ATOM     16  C   UNL     1      -3.104   0.669  -0.688  0.00  0.00    -0.073 C 
BRANCH  16  17
ATOM     17  C   UNL     1      -4.198   0.370  -1.715  0.00  0.00    +0.016 C 
BRANCH  17  18
ATOM     18  C   UNL     1      -5.077  -0.742  -1.203  0.00  0.00    -0.049 A 
ATOM     19  C   UNL     1      -4.771  -2.057  -1.498  0.00  0.00    +0.003 A 
ATOM     20  C   UNL     1      -5.574  -3.077  -1.024  0.00  0.00    +0.000 A 
ATOM     21  C   UNL     1      -6.691  -2.781  -0.264  0.00  0.00    +0.000 A 
ATOM     22  C   UNL     1      -7.001  -1.466   0.025  0.00  0.00    +0.000 A 
ATOM     23  C   UNL     1      -6.194  -0.446  -0.444  0.00  0.00    +0.003 A 
ENDBRANCH  17  18
ENDBRANCH  16  17
ENDBRANCH   1  16
BRANCH   1  24
ATOM     24  C   UNL     1      -2.998   3.055  -1.085  0.00  0.00    -0.037 C 
BRANCH  24  25
ATOM     25  C   UNL     1      -2.351   4.062  -2.001  0.00  0.00    +0.001 A 
ATOM     26  C   UNL     1      -2.809   4.217  -3.267  0.00  0.00    +0.017 A 
ATOM     27  C   UNL     1      -2.161   5.207  -4.130  0.00  0.00    -0.001 A 
ATOM     28  C   UNL     1      -2.593   5.415  -5.444  0.00  0.00    +0.010 A 
ATOM     29  C   UNL     1      -1.965   6.344  -6.224  0.00  0.00    +0.001 A 
ATOM     30  C   UNL     1      -0.900   7.082  -5.725  0.00  0.00    +0.005 A 
ATOM     31  C   UNL     1      -0.457   6.893  -4.433  0.00  0.00    -0.026 A 
ATOM     32  C   UNL     1      -1.083   5.954  -3.620  0.00  0.00    +0.052 A 
ATOM     33  N   UNL     1      -0.661   5.745  -2.324  0.00  0.00    -0.322 N 
ATOM     34  H   UNL     1       0.083   6.260  -1.975  0.00  0.00    +0.169 HD
ATOM     35  C   UNL     1      -1.265   4.837  -1.538  0.00  0.00    +0.251 A 
ATOM     36  O   UNL     1      -0.866   4.679  -0.397  0.00  0.00    -0.268 OA
ATOM     37  C   UNL     1       0.700   7.701  -3.905  0.00  0.00    +0.046 C 
ENDBRANCH  24  25
ENDBRANCH   1  24
TORSDOF 9
