REMARK  Name = ZINC09777856
REMARK  10 active torsions:
REMARK  status: ('A' for Active; 'I' for Inactive)
REMARK    1  A    between atoms: C_1  and  C_2
REMARK    2  A    between atoms: C_2  and  O_3
REMARK    3  A    between atoms: O_3  and  C_4
REMARK    4  A    between atoms: C_9  and  O_10
REMARK    5  A    between atoms: O_10  and  C_11
REMARK    6  A    between atoms: C_11  and  C_12
REMARK    7  A    between atoms: C_16  and  N_17
REMARK    8  A    between atoms: C_16  and  N_67
REMARK    9  A    between atoms: C_20  and  C_24
REMARK   10  A    between atoms: C_20  and  C_25
REMARK                            x       y       z     vdW  Elec       q    Type
REMARK                         _______ _______ _______ _____ _____    ______ ____
ROOT
ATOM      1  C   UNL     1      -4.968   1.299  -2.749  0.00  0.00    +0.043 C 
ENDROOT
BRANCH   1  11
ATOM      2  C   UNL     1      -2.100   3.092  -8.221  0.00  0.00    +0.162 A 
ATOM      3  C   UNL     1      -3.027   3.735  -7.419  0.00  0.00    +0.053 A 
ATOM      4  C   UNL     1      -3.557   3.096  -6.309  0.00  0.00    -0.044 A 
ATOM      5  C   UNL     1      -3.164   1.811  -6.000  0.00  0.00    -0.057 A 
ATOM      6  C   UNL     1      -2.234   1.163  -6.800  0.00  0.00    +0.051 A 
ATOM      7  C   UNL     1      -1.701   1.796  -7.909  0.00  0.00    +0.162 A 
ATOM      8  C   UNL     1      -3.716   1.075  -4.807  0.00  0.00    -0.040 C 
ATOM      9  C   UNL     1      -5.319   2.860  -4.570  0.00  0.00    -0.071 C 
ATOM     10  C   UNL     1      -4.560   3.840  -5.464  0.00  0.00    +0.017 C 
ATOM     11  N   UNL     1      -4.322   2.029  -3.864  0.00  0.00    +0.393 N 
ATOM     12  H   UNL     1      -3.588   2.638  -3.483  0.00  0.00    -0.079 HD
BRANCH   2  13
ATOM     13  O   UNL     1      -1.583   3.723  -9.309  0.00  0.00    -0.489 OA
BRANCH  13  15
ATOM     14  C   UNL     1      -1.352   5.595 -10.820  0.00  0.00    +0.048 C 
ATOM     15  C   UNL     1      -2.041   5.052  -9.566  0.00  0.00    +0.226 C 
ENDBRANCH  13  15
ENDBRANCH   2  13
BRANCH   7  16
ATOM     16  O   UNL     1      -0.789   1.156  -8.689  0.00  0.00    -0.489 OA
BRANCH  16  17
ATOM     17  C   UNL     1      -0.427  -0.172  -8.306  0.00  0.00    +0.226 C 
ATOM     18  C   UNL     1       0.601  -0.725  -9.295  0.00  0.00    +0.048 C 
ENDBRANCH  16  17
ENDBRANCH   7  16
ENDBRANCH   1  11
BRANCH   1  19
ATOM     19  N   UNL     1      -3.946   0.948  -1.760  0.00  0.00    -0.241 N 
ATOM     20  C   UNL     1      -3.591   1.737  -0.726  0.00  0.00    +0.249 C 
ATOM     21  O   UNL     1      -4.039   2.829  -0.450  0.00  0.00    -0.272 OA
ATOM     22  C   UNL     1      -2.513   0.975   0.019  0.00  0.00    +0.135 C 
ATOM     23  N   UNL     1      -2.372  -0.274  -0.750  0.00  0.00    -0.281 N 
ATOM     24  C   UNL     1      -3.250  -0.194  -1.771  0.00  0.00    +0.308 C 
ATOM     25  O   UNL     1      -3.394  -1.065  -2.606  0.00  0.00    -0.252 OA
ATOM     26  C   UNL     1      -2.958   0.677   1.452  0.00  0.00    +0.047 C 
ATOM     27  H   UNL     1      -1.766  -1.006  -0.559  0.00  0.00    +0.152 HD
BRANCH  22  28
ATOM     28  C   UNL     1      -1.219   1.748   0.017  0.00  0.00    -0.015 A 
ATOM     29  C   UNL     1      -1.239   3.130   0.030  0.00  0.00    +0.006 A 
ATOM     30  C   UNL     1      -0.052   3.836   0.022  0.00  0.00    +0.004 A 
ATOM     31  C   UNL     1       1.159   3.164   0.008  0.00  0.00    -0.044 A 
ATOM     32  C   UNL     1       1.179   1.782   0.000  0.00  0.00    -0.044 A 
ATOM     33  C   UNL     1      -0.013   1.076   0.008  0.00  0.00    +0.010 A 
ATOM     34  C   UNL     1       2.610   1.291  -0.016  0.00  0.00    +0.036 C 
ATOM     35  C   UNL     1       3.450   2.509  -0.459  0.00  0.00    +0.009 C 
ATOM     36  C   UNL     1       2.576   3.696  -0.004  0.00  0.00    +0.036 C 
ENDBRANCH  22  28
ENDBRANCH   1  19
TORSDOF 7
