REMARK  Name = ZINC21730954
REMARK  9 active torsions:
REMARK  status: ('A' for Active; 'I' for Inactive)
REMARK    1  A    between atoms: C_1  and  C_2
REMARK    2  A    between atoms: C_2  and  C_4
REMARK    3  A    between atoms: C_2  and  S_23
REMARK    4  A    between atoms: N_6  and  C_7
REMARK    5  A    between atoms: S_23  and  C_24
REMARK    6  A    between atoms: N_28  and  C_29
REMARK    7  A    between atoms: C_29  and  C_30
REMARK    8  A    between atoms: C_29  and  C_31
REMARK    9  A    between atoms: C_29  and  C_32
REMARK                            x       y       z     vdW  Elec       q    Type
REMARK                         _______ _______ _______ _____ _____    ______ ____
ROOT
ATOM      1  C   UNL     1      -3.773  10.168  -0.019  0.00  0.00    +0.230 C 
ATOM      2  O   UNL     1      -4.816   9.548  -0.013  0.00  0.00    -0.274 OA
ATOM      3  N   UNL     1      -2.599   9.513   0.069  0.00  0.00    -0.285 N 
ATOM      4  H   UNL     1      -1.658  10.078   0.139  0.00  0.00    +0.155 HD
ENDROOT
BRANCH   3   5
ATOM      5  C   UNL     1      -2.577   8.119   0.073  0.00  0.00    +0.034 A 
ATOM      6  C   UNL     1      -1.532   7.441  -0.544  0.00  0.00    +0.024 A 
ATOM      7  C   UNL     1      -1.500   6.061  -0.547  0.00  0.00    +0.014 A 
ATOM      8  C   UNL     1      -2.520   5.339   0.071  0.00  0.00    +0.033 A 
ATOM      9  C   UNL     1      -3.580   6.021   0.697  0.00  0.00    +0.035 A 
ATOM     10  C   UNL     1      -3.603   7.411   0.694  0.00  0.00    +0.035 A 
ATOM     11  C   UNL     1      -4.664   5.261   1.355  0.00  0.00    +0.195 C 
ATOM     12  O   UNL     1      -5.580   5.849   1.894  0.00  0.00    -0.287 OA
ATOM     13  C   UNL     1      -4.632   3.783   1.354  0.00  0.00    +0.033 A 
ATOM     14  C   UNL     1      -5.647   3.058   1.971  0.00  0.00    +0.012 A 
ATOM     15  C   UNL     1      -5.609   1.675   1.966  0.00  0.00    +0.001 A 
ATOM     16  C   UNL     1      -4.566   1.006   1.351  0.00  0.00    +0.001 A 
ATOM     17  C   UNL     1      -3.545   1.711   0.738  0.00  0.00    +0.012 A 
ATOM     18  C   UNL     1      -3.572   3.103   0.729  0.00  0.00    +0.033 A 
ATOM     19  C   UNL     1      -2.489   3.864   0.071  0.00  0.00    +0.195 C 
ATOM     20  O   UNL     1      -1.573   3.275  -0.470  0.00  0.00    -0.287 OA
ENDBRANCH   3   5
BRANCH   1  22
ATOM     21  C   UNL     1      -3.620  12.080  -1.591  0.00  0.00    +0.029 C 
ATOM     22  C   UNL     1      -3.791  11.671  -0.127  0.00  0.00    +0.137 C 
BRANCH  22  23
ATOM     23  S   UNL     1      -5.370  12.302   0.495  0.00  0.00    -0.072 S 
BRANCH  23  24
ATOM     24  C   UNL     1      -5.066  14.035   0.398  0.00  0.00    +0.211 A 
ATOM     25  N   UNL     1      -3.963  14.613  -0.025  0.00  0.00    -0.101 NA
ATOM     26  N   UNL     1      -4.073  15.891   0.034  0.00  0.00    -0.022 NA
ATOM     27  N   UNL     1      -5.233  16.220   0.490  0.00  0.00    -0.043 NA
ATOM     28  N   UNL     1      -5.927  15.023   0.739  0.00  0.00    -0.215 N 
BRANCH  28  29
ATOM     29  C   UNL     1      -7.289  14.876   1.259  0.00  0.00    +0.060 C 
ATOM     30  C   UNL     1      -7.251  14.094   2.574  0.00  0.00    +0.036 C 
ATOM     31  C   UNL     1      -7.893  16.260   1.507  0.00  0.00    +0.036 C 
ATOM     32  C   UNL     1      -8.145  14.120   0.241  0.00  0.00    +0.036 C 
ENDBRANCH  28  29
ENDBRANCH  23  24
ENDBRANCH  22  23
ENDBRANCH   1  22
TORSDOF 5
