REMARK  Name = ZINC40392322
REMARK  16 active torsions:
REMARK  status: ('A' for Active; 'I' for Inactive)
REMARK    1  A    between atoms: C_1  and  C_2
REMARK    2  A    between atoms: C_2  and  N_3
REMARK    3  A    between atoms: N_3  and  C_4
REMARK    4  A    between atoms: C_4  and  C_5
REMARK    5  A    between atoms: C_6  and  C_8
REMARK    6  A    between atoms: C_9  and  C_37
REMARK    7  A    between atoms: C_11  and  C_36
REMARK    8  A    between atoms: C_12  and  C_24
REMARK    9  A    between atoms: C_13  and  C_15
REMARK   10  A    between atoms: C_18  and  N_21
REMARK   11  A    between atoms: N_19  and  C_20
REMARK   12  A    between atoms: C_24  and  O_26
REMARK   13  A    between atoms: O_26  and  C_27
REMARK   14  A    between atoms: C_27  and  C_28
REMARK   15  A    between atoms: C_28  and  C_29
REMARK   16  A    between atoms: C_29  and  C_30
REMARK                            x       y       z     vdW  Elec       q    Type
REMARK                         _______ _______ _______ _____ _____    ______ ____
ROOT
ATOM      1  C   UNL     1       0.587  -1.016  -3.605  0.00  0.00    +0.046 C 
ATOM      2  C   UNL     1      -0.207  -1.240  -4.664  0.00  0.00    +0.014 C 
ATOM      3  N   UNL     1       0.319  -1.639  -5.864  0.00  0.00    -0.321 N 
ATOM      4  C   UNL     1       1.583  -2.158  -5.923  0.00  0.00    +0.016 C 
ATOM      5  C   UNL     1       2.453  -1.972  -4.915  0.00  0.00    +0.068 C 
ATOM      6  C   UNL     1       2.078  -1.176  -3.695  0.00  0.00    +0.130 C 
ATOM      7  C   UNL     1       2.006  -2.950  -7.134  0.00  0.00    +0.061 C 
ATOM      8  C   UNL     1      -1.697  -1.052  -4.531  0.00  0.00    +0.061 C 
ATOM      9  H   UNL     1      -0.206  -1.553  -6.674  0.00  0.00    +0.152 HD
ENDROOT
BRANCH   6  10
ATOM     10  C   UNL     1       2.720   0.185  -3.767  0.00  0.00    +0.123 A 
ATOM     11  N   UNL     1       2.452   1.107  -4.651  0.00  0.00    -0.237 NA
ATOM     12  C   UNL     1       3.211   2.186  -4.409  0.00  0.00    +0.164 A 
ATOM     13  C   UNL     1       3.979   1.923  -3.334  0.00  0.00    +0.215 A 
ATOM     14  N   UNL     1       3.664   0.656  -2.923  0.00  0.00    -0.311 N 
ATOM     15  C   UNL     1       4.245  -0.058  -1.784  0.00  0.00    +0.152 C 
BRANCH  13  16
ATOM     16  N   UNL     1       4.969   2.831  -2.713  0.00  0.00    +0.075 N 
ATOM     17  O   UNL     1       5.149   3.934  -3.174  0.00  0.00    -0.125 OA
ATOM     18  O   UNL     1       5.597   2.470  -1.745  0.00  0.00    -0.125 OA
ENDBRANCH  13  16
ENDBRANCH   6  10
BRANCH   1  20
ATOM     19  N   UNL     1      -0.475  -1.538  -1.524  0.00  0.00    -0.298 N 
ATOM     20  C   UNL     1       0.006  -0.613  -2.377  0.00  0.00    +0.245 C 
ATOM     21  O   UNL     1      -0.057   0.569  -2.092  0.00  0.00    -0.270 OA
BRANCH  19  23
ATOM     22  C   UNL     1      -0.141  -0.977   0.833  0.00  0.00    +0.024 C 
ATOM     23  C   UNL     1      -1.161  -1.119  -0.299  0.00  0.00    +0.104 C 
ENDBRANCH  19  23
BRANCH  19  24
ATOM     24  C   UNL     1      -0.313  -2.963  -1.821  0.00  0.00    +0.104 C 
ATOM     25  C   UNL     1      -1.552  -3.474  -2.560  0.00  0.00    +0.024 C 
ENDBRANCH  19  24
ENDBRANCH   1  20
BRANCH   5  26
ATOM     26  C   UNL     1       3.749  -2.530  -5.007  0.00  0.00    +0.338 C 
ATOM     27  O   UNL     1       4.066  -3.172  -5.990  0.00  0.00    -0.245 OA
BRANCH  26  28
ATOM     28  O   UNL     1       4.633  -2.351  -4.003  0.00  0.00    -0.461 OA
BRANCH  28  29
ATOM     29  C   UNL     1       5.923  -2.944  -4.162  0.00  0.00    +0.233 C 
BRANCH  29  30
ATOM     30  C   UNL     1       6.781  -2.636  -2.933  0.00  0.00    +0.046 C 
BRANCH  30  31
ATOM     31  C   UNL     1       8.163  -3.270  -3.103  0.00  0.00    +0.038 C 
BRANCH  31  32
ATOM     32  C   UNL     1       9.007  -2.967  -1.893  0.00  0.00    -0.047 A 
ATOM     33  C   UNL     1       9.785  -1.825  -1.860  0.00  0.00    +0.003 A 
ATOM     34  C   UNL     1      10.559  -1.547  -0.750  0.00  0.00    +0.000 A 
ATOM     35  C   UNL     1      10.556  -2.411   0.329  0.00  0.00    +0.000 A 
ATOM     36  C   UNL     1       9.778  -3.554   0.297  0.00  0.00    +0.000 A 
ATOM     37  C   UNL     1       9.000  -3.829  -0.812  0.00  0.00    +0.003 A 
ENDBRANCH  31  32
ENDBRANCH  30  31
ENDBRANCH  29  30
ENDBRANCH  28  29
ENDBRANCH  26  28
ENDBRANCH   5  26
TORSDOF 11
