REMARK  Name = ZINC21620887
REMARK  9 active torsions:
REMARK  status: ('A' for Active; 'I' for Inactive)
REMARK    1  A    between atoms: C_1  and  C_2
REMARK    2  A    between atoms: C_5  and  C_17
REMARK    3  A    between atoms: N_8  and  C_10
REMARK    4  A    between atoms: C_17  and  O_19
REMARK    5  A    between atoms: O_19  and  C_20
REMARK    6  A    between atoms: C_20  and  C_22
REMARK    7  A    between atoms: C_20  and  C_23
REMARK    8  A    between atoms: N_25  and  C_26
REMARK    9  A    between atoms: C_27  and  C_31
REMARK                            x       y       z     vdW  Elec       q    Type
REMARK                         _______ _______ _______ _____ _____    ______ ____
ROOT
ATOM      1  C   UNL     1       7.134   2.412  -2.466  0.00  0.00    +0.347 C 
ATOM      2  O   UNL     1       8.157   1.755  -2.427  0.00  0.00    -0.244 OA
ENDROOT
BRANCH   1   7
ATOM      3  C   UNL     1       4.584  -1.696   0.915  0.00  0.00    +0.068 C 
ATOM      4  C   UNL     1       3.911  -0.450   0.397  0.00  0.00    +0.069 A 
ATOM      5  C   UNL     1       4.530   0.548  -0.424  0.00  0.00    +0.031 A 
ATOM      6  C   UNL     1       5.772   0.813  -1.020  0.00  0.00    +0.034 A 
ATOM      7  C   UNL     1       5.937   1.945  -1.764  0.00  0.00    +0.099 A 
ATOM      8  S   UNL     1       4.330   2.714  -1.665  0.00  0.00    -0.062 S 
ATOM      9  C   UNL     1       3.524   1.500  -0.654  0.00  0.00    +0.113 A 
ATOM     10  N   UNL     1       2.404   1.105  -0.015  0.00  0.00    -0.225 N 
ATOM     11  N   UNL     1       2.678  -0.111   0.624  0.00  0.00    -0.170 NA
BRANCH  10  12
ATOM     12  C   UNL     1       1.180   1.787   0.000  0.00  0.00    +0.067 A 
ATOM     13  C   UNL     1      -0.013   1.076   0.008  0.00  0.00    +0.029 A 
ATOM     14  C   UNL     1      -1.218   1.751   0.017  0.00  0.00    +0.022 A 
ATOM     15  C   UNL     1      -1.237   3.134   0.030  0.00  0.00    +0.041 A 
ATOM     16  C   UNL     1      -0.050   3.845   0.023  0.00  0.00    +0.022 A 
ATOM     17  C   UNL     1       1.158   3.175   0.008  0.00  0.00    +0.029 A 
ATOM     18 CL   UNL     1      -2.753   3.979   0.049  0.00  0.00    -0.084 Cl
ENDBRANCH  10  12
ENDBRANCH   1   7
BRANCH   1  19
ATOM     19  O   UNL     1       7.102   3.570  -3.156  0.00  0.00    -0.448 OA
BRANCH  19  20
ATOM     20  C   UNL     1       8.325   3.972  -3.828  0.00  0.00    +0.259 C 
ATOM     21  C   UNL     1       8.340   3.397  -5.245  0.00  0.00    +0.062 C 
BRANCH  20  22
ATOM     22  C   UNL     1       8.391   5.476  -3.894  0.00  0.00    +0.258 C 
ATOM     23  O   UNL     1       7.495   6.144  -3.422  0.00  0.00    -0.271 OA
ATOM     24  N   UNL     1       9.445   6.079  -4.479  0.00  0.00    -0.276 N 
ATOM     25  H   UNL     1      10.258   5.473  -4.907  0.00  0.00    +0.155 HD
BRANCH  24  26
ATOM     26  C   UNL     1       9.506   7.463  -4.540  0.00  0.00    +0.084 A 
ATOM     27  C   UNL     1      10.503   8.259  -5.090  0.00  0.00    +0.065 A 
ATOM     28  C   UNL     1      10.306   9.688  -5.019  0.00  0.00    +0.022 A 
ATOM     29  C   UNL     1       9.184  10.124  -4.419  0.00  0.00    +0.048 A 
ATOM     30  S   UNL     1       8.362   8.617  -3.943  0.00  0.00    -0.081 S 
BRANCH  27  31
ATOM     31  C   UNL     1      11.694   7.678  -5.716  0.00  0.00    +0.244 C 
ATOM     32  O   UNL     1      11.829   6.469  -5.763  0.00  0.00    -0.270 OA
ATOM     33  N   UNL     1      12.641   8.482  -6.240  0.00  0.00    -0.325 N 
ATOM     34  H   UNL     1      13.535   8.045  -6.710  0.00  0.00    +0.145 HD
ATOM     35  H   UNL     1      12.520   9.574  -6.198  0.00  0.00    +0.145 HD
ENDBRANCH  27  31
ENDBRANCH  24  26
ENDBRANCH  20  22
ENDBRANCH  19  20
ENDBRANCH   1  19
TORSDOF 7
