REMARK  Name = ZINC16136549
REMARK  8 active torsions:
REMARK  status: ('A' for Active; 'I' for Inactive)
REMARK    1  A    between atoms: C_1  and  C_2
REMARK    2  A    between atoms: C_2  and  C_9
REMARK    3  A    between atoms: C_3  and  C_4
REMARK    4  A    between atoms: N_10  and  N_11
REMARK    5  A    between atoms: C_12  and  C_14
REMARK    6  A    between atoms: C_14  and  S_15
REMARK    7  A    between atoms: S_15  and  C_16
REMARK    8  A    between atoms: N_29  and  C_30
REMARK                            x       y       z     vdW  Elec       q    Type
REMARK                         _______ _______ _______ _____ _____    ______ ____
ROOT
ATOM      1  C   UNL     1      -0.344  -4.934   0.109  0.00  0.00    +0.178 A 
ATOM      2  N   UNL     1      -1.461  -4.344   0.511  0.00  0.00    -0.215 NA
ATOM      3  C   UNL     1      -1.455  -3.019   0.592  0.00  0.00    +0.117 A 
ATOM      4  C   UNL     1      -0.336  -2.215   0.278  0.00  0.00    +0.076 A 
ATOM      5  C   UNL     1      -0.518  -0.780   0.427  0.00  0.00    -0.023 A 
ATOM      6  C   UNL     1      -1.733  -0.363   0.850  0.00  0.00    -0.004 A 
ATOM      7  S   UNL     1      -2.684  -1.846   1.067  0.00  0.00    -0.073 S 
ATOM      8  C   UNL     1      -2.177   1.048   1.083  0.00  0.00    +0.043 C 
ATOM      9  C   UNL     1      -0.934   1.949   1.126  0.00  0.00    +0.005 C 
ATOM     10  C   UNL     1      -0.041   1.609  -0.071  0.00  0.00    +0.005 C 
ATOM     11  C   UNL     1       0.588   0.229   0.127  0.00  0.00    +0.037 C 
ATOM     12  C   UNL     1       0.855  -2.886  -0.153  0.00  0.00    +0.268 A 
ATOM     13  O   UNL     1       1.870  -2.279  -0.445  0.00  0.00    -0.267 OA
ATOM     14  N   UNL     1       0.782  -4.236  -0.214  0.00  0.00    -0.255 N 
ENDROOT
BRANCH  14  15
ATOM     15  C   UNL     1       1.915  -4.949  -0.629  0.00  0.00    +0.052 A 
ATOM     16  C   UNL     1       2.374  -4.827  -1.933  0.00  0.00    +0.026 A 
ATOM     17  C   UNL     1       3.495  -5.527  -2.337  0.00  0.00    +0.002 A 
ATOM     18  C   UNL     1       4.152  -6.357  -1.448  0.00  0.00    +0.000 A 
ATOM     19  C   UNL     1       3.693  -6.484  -0.149  0.00  0.00    +0.002 A 
ATOM     20  C   UNL     1       2.577  -5.783   0.263  0.00  0.00    +0.026 A 
ENDBRANCH  14  15
BRANCH   1  21
ATOM     21  S   UNL     1      -0.313  -6.692  -0.012  0.00  0.00    -0.078 S 
BRANCH  21  22
ATOM     22  C   UNL     1      -2.002  -7.073   0.514  0.00  0.00    +0.174 C 
BRANCH  22  24
ATOM     23  N   UNL     1      -3.404  -9.085   0.845  0.00  0.00    -0.206 N 
ATOM     24  C   UNL     1      -2.212  -8.565   0.489  0.00  0.00    +0.242 C 
ATOM     25  O   UNL     1      -1.308  -9.299   0.148  0.00  0.00    -0.273 OA
ATOM     26  H   UNL     1      -4.126  -8.498   1.117  0.00  0.00    +0.177 HD
BRANCH  23  28
ATOM     27  C   UNL     1      -4.751 -10.974   1.165  0.00  0.00    +0.133 C 
ATOM     28  N   UNL     1      -3.598 -10.472   0.821  0.00  0.00    -0.188 NA
BRANCH  27  30
ATOM     29  C   UNL     1      -3.825 -13.287   0.717  0.00  0.00    +0.045 C 
ATOM     30  C   UNL     1      -4.948 -12.376   1.140  0.00  0.00    -0.027 C 
ATOM     31  C   UNL     1      -6.145 -12.897   1.498  0.00  0.00    +0.051 C 
BRANCH  31  32
ATOM     32  C   UNL     1      -6.303 -14.345   1.624  0.00  0.00    +0.128 A 
ATOM     33  C   UNL     1      -7.425 -14.997   2.055  0.00  0.00    +0.049 A 
ATOM     34  C   UNL     1      -7.134 -16.371   2.017  0.00  0.00    +0.042 A 
ATOM     35  C   UNL     1      -5.866 -16.497   1.573  0.00  0.00    +0.195 A 
ATOM     36  O   UNL     1      -5.369 -15.273   1.331  0.00  0.00    -0.464 OA
ENDBRANCH  31  32
ENDBRANCH  27  30
ENDBRANCH  23  28
ENDBRANCH  22  24
ENDBRANCH  21  22
ENDBRANCH   1  21
TORSDOF 7
