REMARK  Name = ZINC35667123
REMARK  8 active torsions:
REMARK  status: ('A' for Active; 'I' for Inactive)
REMARK    1  A    between atoms: C_1  and  C_2
REMARK    2  A    between atoms: C_6  and  C_8
REMARK    3  A    between atoms: C_8  and  O_9
REMARK    4  A    between atoms: O_9  and  C_10
REMARK    5  A    between atoms: C_13  and  C_17
REMARK    6  A    between atoms: CA_18  and  C_19
REMARK    7  A    between atoms: CA_18  and  N_22
REMARK    8  A    between atoms: C_23  and  C_25
REMARK                            x       y       z     vdW  Elec       q    Type
REMARK                         _______ _______ _______ _____ _____    ______ ____
ROOT
ATOM      1  C   UNL     1       2.588  -3.309   4.293  0.00  0.00    +0.149 A 
ATOM      2  C   UNL     1       3.003  -2.796   5.518  0.00  0.00    +0.061 A 
ATOM      3  C   UNL     1       2.971  -3.588   6.645  0.00  0.00    +0.027 A 
ATOM      4  C   UNL     1       2.519  -4.910   6.556  0.00  0.00    -0.021 A 
ATOM      5  C   UNL     1       2.102  -5.421   5.321  0.00  0.00    +0.027 A 
ATOM      6  C   UNL     1       2.133  -4.620   4.201  0.00  0.00    +0.061 A 
ATOM      7 BR   UNL     1       1.563  -5.306   2.534  0.00  0.00    -0.046 Br
ATOM      8 BR   UNL     1       3.613  -1.010   5.635  0.00  0.00    -0.046 Br
ENDROOT
BRANCH   4   9
ATOM      9  C   UNL     1       2.484  -5.758   7.755  0.00  0.00    +0.038 C 
ATOM     10  CA  UNL     1       2.790  -7.077   7.662  0.00  0.00    +0.123 C 
BRANCH  10  11
ATOM     11  N   UNL     1       2.618  -7.916   8.771  0.00  0.00    -0.280 N 
ATOM     12  C   UNL     1       2.841  -9.240   8.655  0.00  0.00    +0.214 C 
ATOM     13  O   UNL     1       3.288  -9.692   7.622  0.00  0.00    -0.276 OA
ATOM     14  C   UNL     1       2.534 -10.159   9.809  0.00  0.00    +0.109 C 
ATOM     15  H   UNL     1       2.338  -7.544   9.622  0.00  0.00    +0.155 HD
ENDBRANCH  10  11
BRANCH  10  16
ATOM     16  C   UNL     1       3.302  -7.622   6.404  0.00  0.00    +0.400 C 
ATOM     17  O   UNL     1       4.482  -7.479   6.109  0.00  0.00    -0.239 OA
ATOM     18  OXT UNL     1       2.550  -8.223   5.646  0.00  0.00    -0.239 OA
ENDBRANCH  10  16
ENDBRANCH   4   9
BRANCH   1  19
ATOM     19  O   UNL     1       2.621  -2.525   3.185  0.00  0.00    -0.485 OA
BRANCH  19  20
ATOM     20  C   UNL     1       1.451  -1.756   2.899  0.00  0.00    +0.264 C 
BRANCH  20  26
ATOM     21  C   UNL     1       2.991   2.441   0.650  0.00  0.00    +0.044 C 
ATOM     22  C   UNL     1       2.408   1.054   0.566  0.00  0.00    -0.050 A 
ATOM     23  C   UNL     1       2.075   0.517  -0.663  0.00  0.00    +0.003 A 
ATOM     24  C   UNL     1       1.540  -0.755  -0.740  0.00  0.00    +0.001 A 
ATOM     25  C   UNL     1       1.338  -1.491   0.413  0.00  0.00    +0.007 A 
ATOM     26  C   UNL     1       1.672  -0.954   1.642  0.00  0.00    -0.010 A 
ATOM     27  C   UNL     1       2.211   0.317   1.719  0.00  0.00    +0.010 A 
ENDBRANCH  20  26
ENDBRANCH  19  20
ENDBRANCH   1  19
TORSDOF 6
