REMARK  Name = ZINC33659548
REMARK  13 active torsions:
REMARK  status: ('A' for Active; 'I' for Inactive)
REMARK    1  A    between atoms: C_1  and  C_2
REMARK    2  A    between atoms: C_5  and  C_8
REMARK    3  A    between atoms: N_10  and  C_11
REMARK    4  A    between atoms: N_10  and  C_15
REMARK    5  A    between atoms: C_11  and  C_12
REMARK    6  A    between atoms: C_12  and  C_13
REMARK    7  A    between atoms: C_12  and  C_14
REMARK    8  A    between atoms: C_15  and  C_16
REMARK    9  A    between atoms: N_18  and  C_19
REMARK   10  A    between atoms: N_18  and  C_33
REMARK   11  A    between atoms: C_19  and  C_20
REMARK   12  A    between atoms: N_24  and  C_25
REMARK   13  A    between atoms: C_25  and  C_26
REMARK                            x       y       z     vdW  Elec       q    Type
REMARK                         _______ _______ _______ _____ _____    ______ ____
ROOT
ATOM      1  C   UNL     1       2.650  -4.326  -2.249  0.00  0.00    +0.234 C 
ATOM      2  O   UNL     1       2.665  -3.324  -1.566  0.00  0.00    -0.274 OA
ATOM      3  N   UNL     1       2.608  -5.539  -1.665  0.00  0.00    -0.291 N 
ENDROOT
BRANCH   3   4
ATOM      4  C   UNL     1       2.446  -5.648  -0.212  0.00  0.00    +0.077 C 
ATOM      5  C   UNL     1       1.082  -5.086   0.192  0.00  0.00    +0.022 C 
ATOM      6  C   UNL     1       0.913  -5.199   1.708  0.00  0.00    +0.002 C 
ATOM      7  C   UNL     1       2.019  -4.404   2.406  0.00  0.00    +0.000 C 
ATOM      8  C   UNL     1       3.383  -4.966   2.001  0.00  0.00    +0.002 C 
ATOM      9  C   UNL     1       3.552  -4.853   0.485  0.00  0.00    +0.022 C 
ENDBRANCH   3   4
BRANCH   1  10
ATOM     10  C   UNL     1       2.676  -4.214  -3.752  0.00  0.00    +0.204 C 
BRANCH  10  13
ATOM     11  C   UNL     1       3.126  -1.925  -4.457  0.00  0.00    +0.247 C 
ATOM     12  O   UNL     1       2.759  -0.786  -4.669  0.00  0.00    -0.270 OA
ATOM     13  N   UNL     1       2.224  -2.878  -4.150  0.00  0.00    -0.288 N 
BRANCH  11  18
ATOM     14  C   UNL     1       8.719  -3.248  -4.764  0.00  0.00    +0.044 C 
ATOM     15  C   UNL     1       7.254  -2.901  -4.683  0.00  0.00    -0.050 A 
ATOM     16  C   UNL     1       6.743  -1.885  -5.470  0.00  0.00    +0.004 A 
ATOM     17  C   UNL     1       5.403  -1.563  -5.401  0.00  0.00    +0.013 A 
ATOM     18  C   UNL     1       4.563  -2.265  -4.536  0.00  0.00    +0.037 A 
ATOM     19  C   UNL     1       5.085  -3.290  -3.745  0.00  0.00    +0.013 A 
ATOM     20  C   UNL     1       6.427  -3.602  -3.823  0.00  0.00    +0.004 A 
ENDBRANCH  11  18
BRANCH  13  21
ATOM     21  C   UNL     1       0.792  -2.579  -4.215  0.00  0.00    +0.111 C 
BRANCH  21  22
ATOM     22  C   UNL     1       0.236  -3.034  -5.566  0.00  0.00    +0.000 C 
ATOM     23  C   UNL     1      -1.284  -2.860  -5.576  0.00  0.00    +0.009 C 
ATOM     24  C   UNL     1       0.854  -2.189  -6.682  0.00  0.00    +0.009 C 
ENDBRANCH  21  22
ENDBRANCH  13  21
ENDBRANCH  10  13
ENDBRANCH   1  10
BRANCH   3  25
ATOM     25  C   UNL     1       2.725  -6.750  -2.481  0.00  0.00    +0.161 C 
BRANCH  25  26
ATOM     26  C   UNL     1       4.150  -7.241  -2.450  0.00  0.00    +0.036 A 
ATOM     27  C   UNL     1       4.953  -7.270  -1.367  0.00  0.00    +0.024 A 
ATOM     28  C   UNL     1       6.193  -7.799  -1.776  0.00  0.00    +0.019 A 
ATOM     29  C   UNL     1       6.101  -8.072  -3.093  0.00  0.00    +0.086 A 
ATOM     30  N   UNL     1       4.847  -7.738  -3.511  0.00  0.00    -0.345 N 
BRANCH  30  31
ATOM     31  C   UNL     1       4.335  -7.884  -4.876  0.00  0.00    +0.158 C 
BRANCH  31  32
ATOM     32  C   UNL     1       3.527  -9.152  -4.976  0.00  0.00    -0.009 A 
ATOM     33  C   UNL     1       2.153  -9.109  -4.832  0.00  0.00    +0.007 A 
ATOM     34  C   UNL     1       1.412 -10.272  -4.924  0.00  0.00    +0.000 A 
ATOM     35  C   UNL     1       2.044 -11.479  -5.160  0.00  0.00    +0.001 A 
ATOM     36  C   UNL     1       3.418 -11.523  -5.305  0.00  0.00    +0.020 A 
ATOM     37  C   UNL     1       4.160 -10.358  -5.218  0.00  0.00    +0.046 A 
ATOM     38 CL   UNL     1       5.885 -10.411  -5.407  0.00  0.00    -0.083 Cl
ENDBRANCH  31  32
ENDBRANCH  30  31
ENDBRANCH  25  26
ENDBRANCH   3  25
TORSDOF 10
