REMARK  Name = ZINC31163236
REMARK  14 active torsions:
REMARK  status: ('A' for Active; 'I' for Inactive)
REMARK    1  A    between atoms: C_3  and  O_39
REMARK    2  A    between atoms: C_6  and  C_7
REMARK    3  A    between atoms: C_8  and  C_9
REMARK    4  A    between atoms: C_9  and  O_11
REMARK    5  A    between atoms: O_11  and  C_12
REMARK    6  A    between atoms: C_12  and  C_13
REMARK    7  A    between atoms: C_15  and  O_38
REMARK    8  A    between atoms: C_17  and  O_37
REMARK    9  A    between atoms: C_19  and  O_36
REMARK   10  A    between atoms: C_21  and  O_24
REMARK   11  A    between atoms: O_24  and  C_25
REMARK   12  A    between atoms: C_25  and  C_27
REMARK   13  A    between atoms: C_28  and  C_29
REMARK   14  A    between atoms: C_32  and  O_35
REMARK                            x       y       z     vdW  Elec       q    Type
REMARK                         _______ _______ _______ _____ _____    ______ ____
ROOT
ATOM      1  C   UNL     1       3.260  -0.893  -1.348  0.00  0.00    +0.191 C 
ATOM      2  C   UNL     1       3.163  -2.419  -1.284  0.00  0.00    +0.178 C 
ATOM      3  C   UNL     1       2.481  -2.825   0.026  0.00  0.00    +0.180 C 
ATOM      4  C   UNL     1       1.108  -2.152   0.104  0.00  0.00    +0.214 C 
ATOM      5  C   UNL     1       1.284  -0.635  -0.014  0.00  0.00    +0.343 C 
ATOM      6  O   UNL     1       1.951  -0.329  -1.239  0.00  0.00    -0.330 OA
ENDROOT
BRANCH   4   7
ATOM      7  O   UNL     1       0.493  -2.465   1.355  0.00  0.00    -0.383 OA
ATOM      8  H   UNL     1      -0.505  -2.067   1.593  0.00  0.00    +0.210 HD
ENDBRANCH   4   7
BRANCH   3   9
ATOM      9  O   UNL     1       2.321  -4.245   0.062  0.00  0.00    -0.386 OA
ATOM     10  H   UNL     1       1.847  -4.723   0.932  0.00  0.00    +0.210 HD
ENDBRANCH   3   9
BRANCH   2  11
ATOM     11  O   UNL     1       4.475  -2.983  -1.335  0.00  0.00    -0.386 OA
ATOM     12  H   UNL     1       4.606  -4.075  -1.300  0.00  0.00    +0.210 HD
ENDBRANCH   2  11
BRANCH   1  13
ATOM     13  C   UNL     1       3.886  -0.476  -2.681  0.00  0.00    +0.266 C 
BRANCH  13  14
ATOM     14  O   UNL     1       4.082   0.939  -2.694  0.00  0.00    -0.459 OA
BRANCH  14  15
ATOM     15  C   UNL     1       4.629   1.472  -3.806  0.00  0.00    +0.332 C 
ATOM     16  O   UNL     1       4.931   0.752  -4.740  0.00  0.00    -0.246 OA
BRANCH  15  18
ATOM     17  C   UNL     1       5.400   3.403  -5.001  0.00  0.00    +0.015 C 
ATOM     18  C   UNL     1       4.852   2.869  -3.887  0.00  0.00    +0.092 C 
BRANCH  17  24
ATOM     19  C   UNL     1       5.279   5.682  -4.014  0.00  0.00    +0.011 A 
ATOM     20  C   UNL     1       5.503   7.038  -4.096  0.00  0.00    +0.046 A 
ATOM     21  C   UNL     1       6.066   7.584  -5.243  0.00  0.00    +0.117 A 
ATOM     22  C   UNL     1       6.413   6.764  -6.311  0.00  0.00    +0.046 A 
ATOM     23  C   UNL     1       6.199   5.407  -6.238  0.00  0.00    +0.011 A 
ATOM     24  C   UNL     1       5.631   4.851  -5.085  0.00  0.00    -0.025 A 
BRANCH  21  25
ATOM     25  O   UNL     1       6.280   8.922  -5.321  0.00  0.00    -0.507 OA
ATOM     26  H   UNL     1       6.726   9.356  -6.228  0.00  0.00    +0.292 HD
ENDBRANCH  21  25
ENDBRANCH  17  24
ENDBRANCH  15  18
ENDBRANCH  14  15
ENDBRANCH  13  14
ENDBRANCH   1  13
BRANCH   5  27
ATOM     27  O   UNL     1       0.002  -0.004   0.002  0.00  0.00    -0.429 OA
BRANCH  27  28
ATOM     28  C   UNL     1      -0.016   1.345   0.009  0.00  0.00    +0.334 C 
ATOM     29  O   UNL     1       1.029   1.968   0.003  0.00  0.00    -0.246 OA
BRANCH  28  30
ATOM     30  C   UNL     1      -1.254   2.037   0.019  0.00  0.00    +0.092 C 
ATOM     31  C   UNL     1      -1.272   3.388   0.026  0.00  0.00    +0.015 C 
BRANCH  31  32
ATOM     32  C   UNL     1      -2.554   4.105   0.036  0.00  0.00    -0.025 A 
ATOM     33  C   UNL     1      -3.759   3.392   0.033  0.00  0.00    +0.011 A 
ATOM     34  C   UNL     1      -4.957   4.068   0.048  0.00  0.00    +0.046 A 
ATOM     35  C   UNL     1      -4.973   5.458   0.056  0.00  0.00    +0.117 A 
ATOM     36  C   UNL     1      -3.780   6.172   0.054  0.00  0.00    +0.046 A 
ATOM     37  C   UNL     1      -2.576   5.505   0.044  0.00  0.00    +0.011 A 
BRANCH  35  38
ATOM     38  O   UNL     1      -6.158   6.121   0.066  0.00  0.00    -0.507 OA
ATOM     39  H   UNL     1      -6.173   7.221   0.072  0.00  0.00    +0.292 HD
ENDBRANCH  35  38
ENDBRANCH  31  32
ENDBRANCH  28  30
ENDBRANCH  27  28
ENDBRANCH   5  27
TORSDOF 14
