REMARK  Name = ZINC11881918
REMARK  11 active torsions:
REMARK  status: ('A' for Active; 'I' for Inactive)
REMARK    1  A    between atoms: C_1  and  C_2
REMARK    2  A    between atoms: C_4  and  C_38
REMARK    3  A    between atoms: C_8  and  C_37
REMARK    4  A    between atoms: C_9  and  C_12
REMARK    5  A    between atoms: N_14  and  C_15
REMARK    6  A    between atoms: C_15  and  C_16
REMARK    7  A    between atoms: C_17  and  C_36
REMARK    8  A    between atoms: C_19  and  C_21
REMARK    9  A    between atoms: C_26  and  N_27
REMARK   10  A    between atoms: C_28  and  C_30
REMARK   11  A    between atoms: C_30  and  C_31
REMARK                            x       y       z     vdW  Elec       q    Type
REMARK                         _______ _______ _______ _____ _____    ______ ____
ROOT
ATOM      1  C   UNL     1      -0.269   1.364   2.551  0.00  0.00    +0.100 A 
ATOM      2  C   UNL     1      -0.835   1.151   1.349  0.00  0.00    +0.127 A 
ATOM      3  O   UNL     1      -2.122   1.543   1.438  0.00  0.00    -0.440 OA
ATOM      4  C   UNL     1      -2.330   1.981   2.692  0.00  0.00    +0.229 A 
ATOM      5  N   UNL     1      -1.207   1.875   3.363  0.00  0.00    -0.212 NA
ATOM      6  C   UNL     1      -0.155   0.586   0.129  0.00  0.00    +0.088 C 
ENDROOT
BRANCH   4   7
ATOM      7  C   UNL     1      -3.606   2.500   3.223  0.00  0.00    +0.058 A 
ATOM      8  C   UNL     1      -3.723   2.826   4.575  0.00  0.00    +0.015 A 
ATOM      9  C   UNL     1      -4.917   3.311   5.066  0.00  0.00    +0.001 A 
ATOM     10  C   UNL     1      -6.003   3.477   4.222  0.00  0.00    +0.002 A 
ATOM     11  C   UNL     1      -5.901   3.159   2.882  0.00  0.00    +0.024 A 
ATOM     12  C   UNL     1      -4.706   2.674   2.371  0.00  0.00    +0.046 A 
BRANCH  12  13
ATOM     13  N   UNL     1      -4.600   2.357   1.016  0.00  0.00    -0.285 N 
ATOM     14  C   UNL     1      -5.678   1.910   0.342  0.00  0.00    +0.217 C 
ATOM     15  O   UNL     1      -6.759   1.862   0.890  0.00  0.00    -0.275 OA
ATOM     16  H   UNL     1      -3.750   2.458   0.559  0.00  0.00    +0.155 HD
BRANCH  14  17
ATOM     17  C   UNL     1      -5.541   1.471  -1.093  0.00  0.00    +0.099 C 
BRANCH  17  18
ATOM     18  C   UNL     1      -6.902   1.013  -1.619  0.00  0.00    -0.002 C 
ATOM     19  C   UNL     1      -7.335  -0.285  -0.906  0.00  0.00    +0.004 C 
ATOM     20  C   UNL     1      -8.041  -1.108  -2.011  0.00  0.00    +0.000 C 
ATOM     21  C   UNL     1      -7.180  -0.810  -3.263  0.00  0.00    +0.000 C 
ATOM     22  C   UNL     1      -6.804   0.679  -3.118  0.00  0.00    +0.004 C 
ENDBRANCH  17  18
ENDBRANCH  14  17
ENDBRANCH  12  13
ENDBRANCH   4   7
BRANCH   1  23
ATOM     23  C   UNL     1       1.165   1.079   2.919  0.00  0.00    +0.163 C 
BRANCH  23  26
ATOM     24  C   UNL     1       3.307   2.240   2.900  0.00  0.00    +0.261 C 
ATOM     25  O   UNL     1       3.821   1.236   3.356  0.00  0.00    -0.269 OA
ATOM     26  N   UNL     1       1.984   2.263   2.646  0.00  0.00    -0.304 N 
ATOM     27  H   UNL     1       1.573   3.063   2.282  0.00  0.00    +0.149 HD
BRANCH  24  36
ATOM     28  C   UNL     1       8.515   7.481   1.981  0.00  0.00    +0.044 C 
ATOM     29  C   UNL     1       7.185   6.773   1.989  0.00  0.00    -0.050 A 
ATOM     30  C   UNL     1       6.049   7.436   1.541  0.00  0.00    +0.008 A 
ATOM     31  C   UNL     1       4.824   6.807   1.540  0.00  0.00    -0.026 A 
ATOM     32  C   UNL     1       4.719   5.495   1.992  0.00  0.00    +0.050 A 
ATOM     33  C   UNL     1       5.872   4.825   2.446  0.00  0.00    +0.004 A 
ATOM     34  C   UNL     1       7.107   5.486   2.437  0.00  0.00    +0.013 A 
ATOM     35  C   UNL     1       5.466   3.528   2.843  0.00  0.00    -0.013 A 
ATOM     36  C   UNL     1       4.129   3.428   2.625  0.00  0.00    +0.106 A 
ATOM     37  N   UNL     1       3.663   4.622   2.110  0.00  0.00    -0.350 N 
ATOM     38  H   UNL     1       2.743   4.814   1.871  0.00  0.00    +0.166 HD
ATOM     39  C   UNL     1       6.358   2.450   3.404  0.00  0.00    +0.047 C 
ATOM     40  C   UNL     1       3.600   7.538   1.050  0.00  0.00    +0.046 C 
ENDBRANCH  24  36
ENDBRANCH  23  26
ENDBRANCH   1  23
TORSDOF 7
