REMARK  Name = ZINC08966023
REMARK  7 active torsions:
REMARK  status: ('A' for Active; 'I' for Inactive)
REMARK    1  A    between atoms: C_4  and  N_7
REMARK    2  A    between atoms: C_8  and  C_29
REMARK    3  A    between atoms: C_11  and  S_12
REMARK    4  A    between atoms: S_12  and  C_13
REMARK    5  A    between atoms: C_13  and  C_14
REMARK    6  A    between atoms: N_16  and  C_17
REMARK    7  A    between atoms: C_17  and  C_18
REMARK                            x       y       z     vdW  Elec       q    Type
REMARK                         _______ _______ _______ _____ _____    ______ ____
ROOT
ATOM      1  S   UNL     1      -6.131   6.511   0.867  0.00  0.00    -0.076 S 
ENDROOT
BRANCH   1   6
ATOM      2  N   UNL     1      -6.718   9.042   1.911  0.00  0.00    -0.268 N 
ATOM      3  C   UNL     1      -6.117   9.915   2.795  0.00  0.00    +0.205 A 
ATOM      4  N   UNL     1      -5.002   9.345   3.199  0.00  0.00    -0.125 NA
ATOM      5  N   UNL     1      -4.870   8.194   2.644  0.00  0.00    -0.122 NA
ATOM      6  C   UNL     1      -5.885   7.957   1.843  0.00  0.00    +0.197 A 
BRANCH   2  10
ATOM      7  C   UNL     1     -10.315   9.592  -0.120  0.00  0.00    +0.000 A 
ATOM      8  C   UNL     1     -10.200   8.584   0.819  0.00  0.00    +0.002 A 
ATOM      9  C   UNL     1      -9.010   8.399   1.494  0.00  0.00    +0.026 A 
ATOM     10  C   UNL     1      -7.927   9.226   1.228  0.00  0.00    +0.051 A 
ATOM     11  C   UNL     1      -8.047  10.241   0.288  0.00  0.00    +0.026 A 
ATOM     12  C   UNL     1      -9.239  10.418  -0.387  0.00  0.00    +0.002 A 
ENDBRANCH   2  10
BRANCH   3  13
ATOM     13  C   UNL     1      -6.625  11.232   3.205  0.00  0.00    +0.172 A 
ATOM     14  C   UNL     1      -6.192  11.960   4.274  0.00  0.00    +0.053 A 
ATOM     15  C   UNL     1      -6.949  13.147   4.289  0.00  0.00    +0.042 A 
ATOM     16  C   UNL     1      -7.797  13.089   3.243  0.00  0.00    +0.196 A 
ATOM     17  O   UNL     1      -7.595  11.934   2.587  0.00  0.00    -0.460 OA
ENDBRANCH   3  13
ENDBRANCH   1   6
BRANCH   1  18
ATOM     18  C   UNL     1      -4.645   5.577   1.309  0.00  0.00    +0.173 C 
BRANCH  18  19
ATOM     19  C   UNL     1      -4.640   4.262   0.572  0.00  0.00    +0.223 C 
ATOM     20  O   UNL     1      -5.551   3.984  -0.178  0.00  0.00    -0.275 OA
ATOM     21  N   UNL     1      -3.622   3.396   0.747  0.00  0.00    -0.311 N 
ATOM     22  H   UNL     1      -2.893   3.618   1.347  0.00  0.00    +0.149 HD
BRANCH  21  23
ATOM     23  C   UNL     1      -3.617   2.118   0.030  0.00  0.00    +0.152 C 
BRANCH  23  24
ATOM     24  C   UNL     1      -2.361   1.329   0.404  0.00  0.00    +0.228 C 
ATOM     25  C   UNL     1      -2.350  -0.011  -0.344  0.00  0.00    +0.275 C 
ATOM     26  O   UNL     1      -1.158  -0.717   0.017  0.00  0.00    -0.485 OA
ATOM     27  C   UNL     1       0.002  -0.004   0.002  0.00  0.00    +0.162 A 
ATOM     28  C   UNL     1       1.214  -0.677  -0.017  0.00  0.00    +0.049 A 
ATOM     29  C   UNL     1       2.400   0.032  -0.027  0.00  0.00    +0.004 A 
ATOM     30  C   UNL     1       2.382   1.415  -0.017  0.00  0.00    +0.004 A 
ATOM     31  C   UNL     1       1.177   2.091   0.002  0.00  0.00    +0.049 A 
ATOM     32  C   UNL     1      -0.017   1.385   0.010  0.00  0.00    +0.163 A 
ATOM     33  O   UNL     1      -1.195   2.066   0.019  0.00  0.00    -0.480 OA
ENDBRANCH  23  24
ENDBRANCH  21  23
ENDBRANCH  18  19
ENDBRANCH   1  18
TORSDOF 7
