REMARK  Name = ZINC63818464
REMARK  12 active torsions:
REMARK  status: ('A' for Active; 'I' for Inactive)
REMARK    1  A    between atoms: C_1  and  C_2
REMARK    2  A    between atoms: C_2  and  C_3
REMARK    3  A    between atoms: C_2  and  C_4
REMARK    4  A    between atoms: C_11  and  C_40
REMARK    5  A    between atoms: C_19  and  C_20
REMARK    6  A    between atoms: C_19  and  C_21
REMARK    7  A    between atoms: N_23  and  C_24
REMARK    8  A    between atoms: C_24  and  C_26
REMARK    9  A    between atoms: C_24  and  C_36
REMARK   10  A    between atoms: C_26  and  C_27
REMARK   11  A    between atoms: C_36  and  O_38
REMARK   12  A    between atoms: O_38  and  C_39
REMARK                            x       y       z     vdW  Elec       q    Type
REMARK                         _______ _______ _______ _____ _____    ______ ____
ROOT
ATOM      1  C   UNL     1      -6.455  -5.421  -1.734  0.00  0.00    +0.220 C 
ATOM      2  O   UNL     1      -5.353  -5.881  -1.947  0.00  0.00    -0.275 OA
ATOM      3  N   UNL     1      -7.550  -6.189  -1.902  0.00  0.00    -0.302 N 
ATOM      4  H   UNL     1      -8.431  -5.822  -1.731  0.00  0.00    +0.150 HD
ENDROOT
BRANCH   1  18
ATOM      5  C   UNL     1      -1.011  -0.760  -0.205  0.00  0.00    -0.067 C 
ATOM      6  C   UNL     1      -1.378  -1.547  -1.202  0.00  0.00    +0.003 C 
ATOM      7  C   UNL     1      -2.774  -2.034  -1.288  0.00  0.00    -0.048 C 
ATOM      8  C   UNL     1      -3.179  -2.649  -2.381  0.00  0.00    -0.023 C 
ATOM      9  C   UNL     1      -4.581  -3.172  -2.552  0.00  0.00    +0.032 C 
ATOM     10  C   UNL     1      -5.219  -3.366  -1.176  0.00  0.00    +0.014 C 
ATOM     11  C   UNL     1      -5.127  -2.067  -0.383  0.00  0.00    -0.021 C 
ATOM     12  C   UNL     1      -3.651  -1.801  -0.092  0.00  0.00    +0.025 C 
ATOM     13  C   UNL     1      -3.399  -0.387   0.424  0.00  0.00    +0.013 C 
ATOM     14  C   UNL     1      -1.937  -0.300   0.881  0.00  0.00    +0.031 C 
ATOM     15  C   UNL     1      -5.857  -2.194   0.956  0.00  0.00    +0.007 C 
ATOM     16  C   UNL     1      -7.300  -2.640   0.739  0.00  0.00    +0.002 C 
ATOM     17  C   UNL     1      -7.310  -4.016   0.079  0.00  0.00    +0.016 C 
ATOM     18  C   UNL     1      -6.602  -3.975  -1.276  0.00  0.00    +0.048 C 
ATOM     19  C   UNL     1      -7.491  -3.266  -2.296  0.00  0.00    +0.021 C 
ATOM     20  C   UNL     1      -5.694  -0.883  -1.163  0.00  0.00    +0.012 C 
BRANCH   5  22
ATOM     21  C   UNL     1       0.463   1.234  -0.223  0.00  0.00    +0.012 C 
ATOM     22  C   UNL     1       0.421  -0.294  -0.159  0.00  0.00    +0.009 C 
ATOM     23  C   UNL     1       1.070  -0.769   1.142  0.00  0.00    +0.012 C 
ENDBRANCH   5  22
ENDBRANCH   1  18
BRANCH   3  24
ATOM     24  C   UNL     1      -7.408  -7.580  -2.342  0.00  0.00    +0.186 C 
BRANCH  24  25
ATOM     25  C   UNL     1      -7.323  -7.624  -3.846  0.00  0.00    +0.328 C 
ATOM     26  O   UNL     1      -7.375  -6.600  -4.484  0.00  0.00    -0.249 OA
BRANCH  25  27
ATOM     27  O   UNL     1      -7.190  -8.802  -4.476  0.00  0.00    -0.467 OA
ATOM     28  C   UNL     1      -7.116  -8.770  -5.902  0.00  0.00    +0.280 C 
ENDBRANCH  25  27
ENDBRANCH  24  25
BRANCH  24  29
ATOM     29  C   UNL     1      -8.621  -8.388  -1.875  0.00  0.00    +0.067 C 
BRANCH  29  30
ATOM     30  C   UNL     1      -8.636  -8.446  -0.369  0.00  0.00    -0.039 C 
ATOM     31  C   UNL     1      -9.317  -7.632   0.469  0.00  0.00    -0.001 A 
ATOM     32  C   UNL     1     -10.212  -6.491   0.238  0.00  0.00    +0.010 A 
ATOM     33  C   UNL     1     -10.757  -5.859   1.303  0.00  0.00    +0.001 A 
ATOM     34  C   UNL     1     -10.489  -6.265   2.617  0.00  0.00    +0.002 A 
ATOM     35  C   UNL     1      -9.677  -7.304   2.909  0.00  0.00    +0.026 A 
ATOM     36  C   UNL     1      -9.051  -8.041   1.866  0.00  0.00    +0.043 A 
ATOM     37  N   UNL     1      -8.236  -9.068   1.891  0.00  0.00    -0.380 N 
ATOM     38  C   UNL     1      -7.899  -9.431   0.510  0.00  0.00    +0.144 C 
ATOM     39  H   UNL     1      -7.914  -9.516   2.689  0.00  0.00    +0.160 HD
ENDBRANCH  29  30
ENDBRANCH  24  29
ENDBRANCH   3  24
TORSDOF 7
