REMARK  Name = ZINC12191434
REMARK  8 active torsions:
REMARK  status: ('A' for Active; 'I' for Inactive)
REMARK    1  A    between atoms: C_1  and  C_2
REMARK    2  A    between atoms: C_2  and  O_3
REMARK    3  A    between atoms: O_3  and  C_4
REMARK    4  A    between atoms: C_4  and  C_6
REMARK    5  A    between atoms: C_10  and  C_11
REMARK    6  A    between atoms: C_11  and  N_66
REMARK    7  A    between atoms: C_14  and  C_23
REMARK    8  A    between atoms: C_14  and  O_29
REMARK                            x       y       z     vdW  Elec       q    Type
REMARK                         _______ _______ _______ _____ _____    ______ ____
ROOT
ATOM      1  C   UNL     1       1.927  -1.054  -0.706  0.00  0.00    -0.075 C 
ATOM      2  C   UNL     1       2.304  -2.258  -1.572  0.00  0.00    +0.021 C 
ATOM      3  C   UNL     1       2.781  -1.766  -2.942  0.00  0.00    +0.091 C 
ATOM      4  C   UNL     1       1.673  -0.930  -3.588  0.00  0.00    +0.012 C 
ATOM      5  C   UNL     1       1.318   0.236  -2.664  0.00  0.00    -0.062 C 
ATOM      6  C   UNL     1       0.203   1.070  -3.298  0.00  0.00    -0.015 C 
ATOM      7  C   UNL     1      -1.033   0.193  -3.509  0.00  0.00    -0.002 C 
ATOM      8  C   UNL     1      -0.678  -0.972  -4.435  0.00  0.00    +0.000 C 
ATOM      9  C   UNL     1       0.439  -1.808  -3.807  0.00  0.00    +0.005 C 
ATOM     10  N   UNL     1       0.842  -0.303  -1.372  0.00  0.00    +0.386 N 
ATOM     11  H   UNL     1       0.055  -0.939  -1.546  0.00  0.00    -0.081 HD
ENDROOT
BRANCH   3  12
ATOM     12  C   UNL     1       3.097  -2.950  -3.820  0.00  0.00    -0.016 A 
ATOM     13  C   UNL     1       4.168  -2.896  -4.692  0.00  0.00    +0.006 A 
ATOM     14  C   UNL     1       4.460  -3.983  -5.495  0.00  0.00    +0.000 A 
ATOM     15  C   UNL     1       3.677  -5.120  -5.431  0.00  0.00    +0.000 A 
ATOM     16  C   UNL     1       2.603  -5.171  -4.562  0.00  0.00    +0.000 A 
ATOM     17  C   UNL     1       2.313  -4.086  -3.757  0.00  0.00    +0.006 A 
ENDBRANCH   3  12
BRANCH   3  18
ATOM     18  O   UNL     1       3.952  -0.964  -2.780  0.00  0.00    -0.384 OA
ATOM     19  H   UNL     1       4.694  -1.429  -2.370  0.00  0.00    +0.211 HD
ENDBRANCH   3  18
BRANCH  10  20
ATOM     20  C   UNL     1       0.384   0.800  -0.503  0.00  0.00    -0.021 C 
BRANCH  20  25
ATOM     21  C   UNL     1       2.119   2.701  -0.374  0.00  0.00    +0.098 A 
ATOM     22  C   UNL     1       3.195   3.023   0.486  0.00  0.00    +0.150 A 
ATOM     23  N   UNL     1       3.275   2.094   1.399  0.00  0.00    -0.172 NA
ATOM     24  N   UNL     1       2.267   1.150   1.175  0.00  0.00    -0.220 N 
ATOM     25  C   UNL     1       1.562   1.528   0.093  0.00  0.00    +0.044 A 
ATOM     26  C   UNL     1       2.033   0.007   1.945  0.00  0.00    +0.154 A 
ATOM     27  C   UNL     1       3.069  -0.546   2.688  0.00  0.00    +0.048 A 
ATOM     28  C   UNL     1       2.823  -1.675   3.450  0.00  0.00    +0.005 A 
ATOM     29  C   UNL     1       1.546  -2.219   3.434  0.00  0.00    +0.020 A 
ATOM     30  C   UNL     1       0.566  -1.620   2.667  0.00  0.00    +0.113 A 
ATOM     31  N   UNL     1       0.829  -0.541   1.956  0.00  0.00    -0.236 NA
BRANCH  21  32
ATOM     32  C   UNL     1       1.675   3.475  -1.545  0.00  0.00    +0.342 C 
ATOM     33  O   UNL     1       0.498   3.499  -1.847  0.00  0.00    -0.245 OA
BRANCH  32  34
ATOM     34  O   UNL     1       2.574   4.157  -2.282  0.00  0.00    -0.461 OA
BRANCH  34  36
ATOM     35  C   UNL     1       3.223   5.603  -4.132  0.00  0.00    +0.048 C 
ATOM     36  C   UNL     1       2.064   4.898  -3.423  0.00  0.00    +0.229 C 
ENDBRANCH  34  36
ENDBRANCH  32  34
ENDBRANCH  21  32
ENDBRANCH  20  25
ENDBRANCH  10  20
TORSDOF 7
