REMARK  Name = ZINC63259895
REMARK  5 active torsions:
REMARK  status: ('A' for Active; 'I' for Inactive)
REMARK    1  A    between atoms: C_1  and  N_2
REMARK    2  A    between atoms: C_3  and  C_5
REMARK    3  A    between atoms: C_8  and  N_11
REMARK    4  A    between atoms: C_12  and  C_14
REMARK    5  A    between atoms: N_17  and  C_19
REMARK                            x       y       z     vdW  Elec       q    Type
REMARK                         _______ _______ _______ _____ _____    ______ ____
ROOT
ATOM      1  C   UNL     1      -2.855  -8.402   1.650  0.00  0.00    +0.151 A 
ATOM      2  C   UNL     1      -3.784  -9.250   2.277  0.00  0.00    +0.006 A 
ATOM      3  C   UNL     1      -3.310 -10.510   2.113  0.00  0.00    +0.049 A 
ATOM      4  N   UNL     1      -2.155 -10.413   1.418  0.00  0.00    -0.236 N 
ATOM      5  N   UNL     1      -1.906  -9.178   1.151  0.00  0.00    -0.161 NA
ATOM      6  C   UNL     1      -3.998 -11.742   2.639  0.00  0.00    +0.056 C 
ATOM      7  C   UNL     1      -5.024 -11.309   3.695  0.00  0.00    +0.006 C 
ATOM      8  C   UNL     1      -5.896 -10.183   3.133  0.00  0.00    +0.005 C 
ATOM      9  C   UNL     1      -5.058  -8.904   2.997  0.00  0.00    +0.039 C 
ENDROOT
BRANCH   4  10
ATOM     10  C   UNL     1      -1.351 -11.497   1.038  0.00  0.00    +0.066 A 
ATOM     11  C   UNL     1      -1.935 -12.657   0.548  0.00  0.00    +0.030 A 
ATOM     12  C   UNL     1      -1.141 -13.724   0.174  0.00  0.00    +0.040 A 
ATOM     13  C   UNL     1       0.237 -13.636   0.290  0.00  0.00    +0.124 A 
ATOM     14  C   UNL     1       0.821 -12.480   0.779  0.00  0.00    +0.040 A 
ATOM     15  C   UNL     1       0.030 -11.409   1.147  0.00  0.00    +0.030 A 
ATOM     16  F   UNL     1       1.012 -14.681  -0.075  0.00  0.00    -0.205 F 
ENDBRANCH   4  10
BRANCH   1  18
ATOM     17  N   UNL     1      -1.960  -6.246   0.916  0.00  0.00    -0.307 N 
ATOM     18  C   UNL     1      -2.928  -6.931   1.559  0.00  0.00    +0.265 C 
ATOM     19  O   UNL     1      -3.860  -6.336   2.064  0.00  0.00    -0.268 OA
ATOM     20  H   UNL     1      -1.216  -6.721   0.514  0.00  0.00    +0.149 HD
BRANCH  17  24
ATOM     21  C   UNL     1      -1.569  -2.296  -0.646  0.00  0.00    +0.075 C 
ATOM     22  C   UNL     1      -0.699  -2.691   0.549  0.00  0.00    +0.014 C 
ATOM     23  C   UNL     1      -0.624  -4.216   0.643  0.00  0.00    +0.023 C 
ATOM     24  C   UNL     1      -2.032  -4.786   0.827  0.00  0.00    +0.073 C 
ATOM     25  C   UNL     1      -2.902  -4.391  -0.369  0.00  0.00    +0.023 C 
ATOM     26  C   UNL     1      -2.977  -2.866  -0.463  0.00  0.00    +0.014 C 
BRANCH  21  29
ATOM     27  C   UNL     1      -0.589   1.388  -0.993  0.00  0.00    +0.128 C 
ATOM     28  N   UNL     1      -0.517  -0.072  -0.903  0.00  0.00    -0.318 N 
ATOM     29  C   UNL     1      -1.643  -0.794  -0.739  0.00  0.00    +0.216 C 
ATOM     30  O   UNL     1      -2.716  -0.234  -0.665  0.00  0.00    -0.276 OA
ATOM     31  H   UNL     1       0.342  -0.520  -0.962  0.00  0.00    +0.148 HD
ENDBRANCH  21  29
ENDBRANCH  17  24
ENDBRANCH   1  18
TORSDOF 4
