REMARK  Name = ZINC38901415
REMARK  8 active torsions:
REMARK  status: ('A' for Active; 'I' for Inactive)
REMARK    1  A    between atoms: C_1  and  C_2
REMARK    2  A    between atoms: C_5  and  C_8
REMARK    3  A    between atoms: C_8  and  C_10
REMARK    4  A    between atoms: C_8  and  N_11
REMARK    5  A    between atoms: C_12  and  C_14
REMARK    6  A    between atoms: N_19  and  C_21
REMARK    7  A    between atoms: C_21  and  C_22
REMARK    8  A    between atoms: C_24  and  C_27
REMARK                            x       y       z     vdW  Elec       q    Type
REMARK                         _______ _______ _______ _____ _____    ______ ____
ROOT
ATOM      1  C   UNL     1      -2.261  -6.529   2.025  0.00  0.00    +0.058 C 
ATOM      2  C   UNL     1      -1.488  -6.581   3.346  0.00  0.00    +0.009 C 
ATOM      3  C   UNL     1      -2.387  -7.183   4.429  0.00  0.00    -0.018 C 
ATOM      4  C   UNL     1      -2.860  -8.567   3.980  0.00  0.00    -0.078 C 
ATOM      5  N   UNL     1      -3.615  -8.448   2.727  0.00  0.00    +0.386 N 
ATOM      6  C   UNL     1      -2.740  -7.937   1.665  0.00  0.00    -0.065 C 
ATOM      7  H   UNL     1      -4.386  -7.811   2.860  0.00  0.00    -0.081 HD
ENDROOT
BRANCH   1   9
ATOM      8  N   UNL     1      -0.816  -4.781   1.039  0.00  0.00    -0.309 N 
ATOM      9  C   UNL     1      -1.361  -6.009   0.935  0.00  0.00    +0.215 C 
ATOM     10  O   UNL     1      -1.125  -6.696  -0.037  0.00  0.00    -0.276 OA
ATOM     11  H   UNL     1      -1.004  -4.231   1.816  0.00  0.00    +0.149 HD
BRANCH   8  12
ATOM     12  C   UNL     1       0.059  -4.275  -0.021  0.00  0.00    +0.100 C 
ATOM     13  C   UNL     1       1.488  -4.768   0.218  0.00  0.00    +0.033 C 
BRANCH  12  18
ATOM     14  C   UNL     1      -0.018   1.503   0.010  0.00  0.00    +0.044 C 
ATOM     15  C   UNL     1       0.002  -0.004   0.002  0.00  0.00    -0.050 A 
ATOM     16  C   UNL     1       0.006  -0.689  -1.199  0.00  0.00    +0.004 A 
ATOM     17  C   UNL     1       0.025  -2.071  -1.206  0.00  0.00    +0.006 A 
ATOM     18  C   UNL     1       0.040  -2.768  -0.013  0.00  0.00    -0.027 A 
ATOM     19  C   UNL     1       0.037  -2.084   1.188  0.00  0.00    +0.006 A 
ATOM     20  C   UNL     1       0.023  -0.702   1.195  0.00  0.00    +0.004 A 
ENDBRANCH  12  18
ENDBRANCH   8  12
ENDBRANCH   1   9
BRANCH   5  21
ATOM     21  C   UNL     1      -4.133  -9.767   2.341  0.00  0.00    +0.022 C 
BRANCH  21  22
ATOM     22  C   UNL     1      -5.133 -10.234   3.367  0.00  0.00    +0.211 A 
ATOM     23  N   UNL     1      -6.416 -10.009   3.336  0.00  0.00    -0.193 NA
ATOM     24  C   UNL     1      -7.007 -10.569   4.407  0.00  0.00    +0.202 A 
ATOM     25  N   UNL     1      -6.089 -11.159   5.132  0.00  0.00    -0.056 NA
ATOM     26  O   UNL     1      -4.854 -10.954   4.461  0.00  0.00    -0.340 OA
BRANCH  24  27
ATOM     27  C   UNL     1      -8.458 -10.525   4.716  0.00  0.00    +0.023 A 
ATOM     28  C   UNL     1      -9.336  -9.866   3.857  0.00  0.00    +0.014 A 
ATOM     29  C   UNL     1     -10.684  -9.828   4.147  0.00  0.00    +0.039 A 
ATOM     30  C   UNL     1     -11.165 -10.444   5.292  0.00  0.00    +0.123 A 
ATOM     31  C   UNL     1     -10.296 -11.099   6.149  0.00  0.00    +0.039 A 
ATOM     32  C   UNL     1      -8.947 -11.147   5.862  0.00  0.00    +0.014 A 
ATOM     33  F   UNL     1     -12.486 -10.404   5.572  0.00  0.00    -0.205 F 
ENDBRANCH  24  27
ENDBRANCH  21  22
ENDBRANCH   5  21
TORSDOF 6
