REMARK  Name = ZINC20581417
REMARK  8 active torsions:
REMARK  status: ('A' for Active; 'I' for Inactive)
REMARK    1  A    between atoms: C_1  and  C_2
REMARK    2  A    between atoms: C_2  and  C_3
REMARK    3  A    between atoms: C_10  and  N_14
REMARK    4  A    between atoms: C_11  and  C_12
REMARK    5  A    between atoms: C_15  and  C_17
REMARK    6  A    between atoms: C_17  and  N_18
REMARK    7  A    between atoms: C_20  and  C_27
REMARK    8  A    between atoms: C_23  and  C_26
REMARK                            x       y       z     vdW  Elec       q    Type
REMARK                         _______ _______ _______ _____ _____    ______ ____
ROOT
ATOM      1  C   UNL     1      -0.726   1.578   1.271  0.00  0.00    -0.006 C 
ATOM      2  C   UNL     1      -0.013   1.086   0.008  0.00  0.00    +0.008 C 
ATOM      3  C   UNL     1      -0.749   1.591  -1.234  0.00  0.00    +0.037 C 
ATOM      4  C   UNL     1      -0.927   3.100  -1.119  0.00  0.00    -0.018 A 
ATOM      5  C   UNL     1      -0.813   3.725   0.074  0.00  0.00    -0.004 A 
ATOM      6  S   UNL     1      -1.095   5.435  -0.283  0.00  0.00    -0.077 S 
ATOM      7  C   UNL     1      -1.362   5.324  -1.991  0.00  0.00    +0.090 A 
ATOM      8  C   UNL     1      -1.227   3.967  -2.244  0.00  0.00    +0.084 A 
ATOM      9  C   UNL     1      -0.514   3.094   1.399  0.00  0.00    +0.046 C 
ENDROOT
BRANCH   7  10
ATOM     10  N   UNL     1      -1.643   6.345  -2.889  0.00  0.00    -0.278 N 
ATOM     11  C   UNL     1      -1.738   7.617  -2.454  0.00  0.00    +0.232 C 
ATOM     12  O   UNL     1      -1.577   7.870  -1.279  0.00  0.00    -0.274 OA
ATOM     13  H   UNL     1      -1.788   6.115  -3.955  0.00  0.00    +0.155 HD
BRANCH  11  14
ATOM     14  C   UNL     1      -2.043   8.725  -3.428  0.00  0.00    +0.181 C 
BRANCH  14  15
ATOM     15  N   UNL     1      -2.092  10.007  -2.712  0.00  0.00    -0.289 NA
ATOM     16  C   UNL     1      -3.229  10.046  -1.781  0.00  0.00    +0.116 C 
ATOM     17  C   UNL     1      -3.208  11.372  -1.014  0.00  0.00    +0.130 C 
ATOM     18  O   UNL     1      -3.234  12.456  -1.946  0.00  0.00    -0.371 OA
ATOM     19  C   UNL     1      -2.141  12.449  -2.868  0.00  0.00    +0.130 C 
ATOM     20  C   UNL     1      -2.151  11.135  -3.654  0.00  0.00    +0.116 C 
ATOM     21  C   UNL     1      -2.281  13.624  -3.838  0.00  0.00    +0.039 C 
ATOM     22  C   UNL     1      -4.433  11.453  -0.101  0.00  0.00    +0.039 C 
ENDBRANCH  14  15
ENDBRANCH  11  14
ENDBRANCH   7  10
BRANCH   1  24
ATOM     23  C   UNL     1      -0.938   1.273   3.741  0.00  0.00    +0.004 C 
ATOM     24  C   UNL     1      -0.142   0.874   2.497  0.00  0.00    +0.000 C 
ENDBRANCH   1  24
BRANCH   8  25
ATOM     25  C   UNL     1      -1.377   3.440  -3.568  0.00  0.00    +0.102 C 
ATOM     26  N   UNL     1      -1.496   3.023  -4.617  0.00  0.00    -0.191 NA
ENDBRANCH   8  25
TORSDOF 5
