REMARK  Name = ZINC02223674
REMARK  12 active torsions:
REMARK  status: ('A' for Active; 'I' for Inactive)
REMARK    1  A    between atoms: C_1  and  C_2
REMARK    2  A    between atoms: C_2  and  C_37
REMARK    3  A    between atoms: C_6  and  C_24
REMARK    4  A    between atoms: C_8  and  C_22
REMARK    5  A    between atoms: C_9  and  N_21
REMARK    6  A    between atoms: N_10  and  C_11
REMARK    7  A    between atoms: C_14  and  S_17
REMARK    8  A    between atoms: S_17  and  N_20
REMARK    9  A    between atoms: C_28  and  O_32
REMARK   10  A    between atoms: C_29  and  O_30
REMARK   11  A    between atoms: O_30  and  C_31
REMARK   12  A    between atoms: O_32  and  C_33
REMARK                            x       y       z     vdW  Elec       q    Type
REMARK                         _______ _______ _______ _____ _____    ______ ____
ROOT
ATOM      1  C   UNL     1      -0.975  -3.409   2.973  0.00  0.00    +0.011 C 
ATOM      2  C   UNL     1      -1.614  -4.014   1.721  0.00  0.00    -0.023 C 
ATOM      3  C   UNL     1      -2.113  -2.894   0.806  0.00  0.00    +0.058 C 
ATOM      4  C   UNL     1      -0.949  -2.038   0.372  0.00  0.00    +0.025 C 
ATOM      5  C   UNL     1       0.288  -2.562   0.235  0.00  0.00    +0.025 C 
ATOM      6  C   UNL     1       1.449  -1.704  -0.201  0.00  0.00    +0.101 C 
ATOM      7  C   UNL     1       0.975  -0.432  -0.838  0.00  0.00    +0.077 C 
ATOM      8  C   UNL     1      -0.296   0.013  -0.657  0.00  0.00    +0.107 C 
ATOM      9  N   UNL     1      -1.175  -0.708   0.119  0.00  0.00    -0.260 N 
ATOM     10  C   UNL     1       0.531  -3.921   0.497  0.00  0.00    +0.162 C 
ATOM     11  O   UNL     1       1.653  -4.366   0.348  0.00  0.00    -0.292 OA
ATOM     12  C   UNL     1      -0.571  -4.836   0.957  0.00  0.00    +0.086 C 
ATOM     13  C   UNL     1      -2.787  -4.910   2.124  0.00  0.00    +0.011 C 
ENDROOT
BRANCH   9  14
ATOM     14  C   UNL     1      -2.309  -0.081   0.648  0.00  0.00    +0.040 A 
ATOM     15  C   UNL     1      -3.494  -0.059  -0.077  0.00  0.00    +0.026 A 
ATOM     16  C   UNL     1      -4.613   0.555   0.450  0.00  0.00    +0.030 A 
ATOM     17  C   UNL     1      -4.552   1.158   1.693  0.00  0.00    +0.105 A 
ATOM     18  C   UNL     1      -3.373   1.142   2.415  0.00  0.00    +0.030 A 
ATOM     19  C   UNL     1      -2.252   0.524   1.896  0.00  0.00    +0.026 A 
BRANCH  17  20
ATOM     20  S   UNL     1      -5.980   1.947   2.359  0.00  0.00    +0.056 S 
ATOM     21  O   UNL     1      -7.105   1.350   1.728  0.00  0.00    -0.153 OA
ATOM     22  O   UNL     1      -5.816   1.960   3.770  0.00  0.00    -0.153 OA
BRANCH  20  23
ATOM     23  N   UNL     1      -5.942   3.526   1.863  0.00  0.00    -0.204 NA
ATOM     24  H   UNL     1      -5.213   3.843   1.308  0.00  0.00    +0.144 HD
ATOM     25  H   UNL     1      -6.650   4.135   2.128  0.00  0.00    +0.144 HD
ENDBRANCH  20  23
ENDBRANCH  17  20
ENDBRANCH   9  14
BRANCH   6  26
ATOM     26  C   UNL     1       2.294  -1.371   1.001  0.00  0.00    +0.011 A 
ATOM     27  C   UNL     1       1.753  -0.644   2.046  0.00  0.00    +0.008 A 
ATOM     28  C   UNL     1       2.524  -0.340   3.153  0.00  0.00    +0.004 A 
ATOM     29  C   UNL     1       3.842  -0.752   3.215  0.00  0.00    +0.049 A 
ATOM     30  C   UNL     1       4.392  -1.475   2.169  0.00  0.00    +0.162 A 
ATOM     31  C   UNL     1       3.614  -1.786   1.057  0.00  0.00    +0.166 A 
BRANCH  31  32
ATOM     32  O   UNL     1       4.150  -2.495   0.028  0.00  0.00    -0.491 OA
ATOM     33  C   UNL     1       4.770  -1.749  -1.021  0.00  0.00    +0.277 C 
ENDBRANCH  31  32
BRANCH  30  34
ATOM     34  O   UNL     1       5.689  -1.881   2.229  0.00  0.00    -0.491 OA
ATOM     35  C   UNL     1       6.426  -1.527   3.400  0.00  0.00    +0.277 C 
ENDBRANCH  30  34
ENDBRANCH   6  26
BRANCH   8  36
ATOM     36  N   UNL     1      -0.702   1.187  -1.244  0.00  0.00    -0.345 N 
ATOM     37  H   UNL     1      -0.060   1.742  -1.713  0.00  0.00    +0.144 HD
ATOM     38  H   UNL     1      -1.632   1.459  -1.192  0.00  0.00    +0.144 HD
ENDBRANCH   8  36
BRANCH   7  39
ATOM     39  C   UNL     1       1.877   0.327  -1.651  0.00  0.00    +0.099 C 
ATOM     40  N   UNL     1       2.593   0.929  -2.296  0.00  0.00    -0.191 NA
ENDBRANCH   7  39
TORSDOF 8
