REMARK  Name = ZINC20921479
REMARK  11 active torsions:
REMARK  status: ('A' for Active; 'I' for Inactive)
REMARK    1  A    between atoms: C_1  and  C_2
REMARK    2  A    between atoms: C_2  and  C_3
REMARK    3  A    between atoms: C_2  and  N_4
REMARK    4  A    between atoms: C_6  and  C_9
REMARK    5  A    between atoms: N_10  and  N_11
REMARK    6  A    between atoms: C_15  and  S_18
REMARK    7  A    between atoms: N_16  and  N_17
REMARK    8  A    between atoms: S_18  and  C_19
REMARK    9  A    between atoms: C_19  and  C_20
REMARK   10  A    between atoms: C_20  and  C_21
REMARK   11  A    between atoms: N_23  and  C_24
REMARK                            x       y       z     vdW  Elec       q    Type
REMARK                         _______ _______ _______ _____ _____    ______ ____
ROOT
ATOM      1  N   UNL     1      12.956   8.574  -0.933  0.00  0.00    -0.204 N 
ATOM      2  C   UNL     1      11.770   7.865  -0.805  0.00  0.00    +0.254 A 
ATOM      3  N   UNL     1      10.569   8.383  -0.709  0.00  0.00    -0.109 NA
ATOM      4  N   UNL     1       9.651   7.330  -0.602  0.00  0.00    -0.119 NA
ATOM      5  C   UNL     1      10.322   6.203  -0.628  0.00  0.00    +0.210 A 
ATOM      6  N   UNL     1      11.649   6.504  -0.757  0.00  0.00    -0.211 N 
ATOM      7  H   UNL     1      13.913   8.036  -1.006  0.00  0.00    +0.177 HD
ENDROOT
BRANCH   6   8
ATOM      8  N   UNL     1      12.673   5.604  -0.826  0.00  0.00    -0.294 N 
ATOM      9  H   UNL     1      12.462   4.525  -0.778  0.00  0.00    +0.163 HD
ATOM     10  H   UNL     1      13.710   5.957  -0.930  0.00  0.00    +0.163 HD
ENDBRANCH   6   8
BRANCH   1  12
ATOM     11  C   UNL     1      14.044  10.637  -1.088  0.00  0.00    +0.141 C 
ATOM     12  N   UNL     1      12.934   9.974  -0.969  0.00  0.00    -0.187 NA
BRANCH  11  15
ATOM     13  N   UNL     1      14.658  14.213  -1.241  0.00  0.00    -0.268 N 
ATOM     14  C   UNL     1      15.114  12.944  -1.248  0.00  0.00    +0.118 A 
ATOM     15  C   UNL     1      14.021  12.113  -1.125  0.00  0.00    +0.032 A 
ATOM     16  C   UNL     1      12.876  12.934  -1.049  0.00  0.00    +0.143 A 
ATOM     17  N   UNL     1      13.264  14.180  -1.113  0.00  0.00    -0.179 NA
BRANCH  13  19
ATOM     18  C   UNL     1      16.001  15.809   0.035  0.00  0.00    +0.032 C 
ATOM     19  C   UNL     1      15.480  15.420  -1.350  0.00  0.00    +0.101 C 
ATOM     20  C   UNL     1      16.663  15.149  -2.282  0.00  0.00    +0.032 C 
ENDBRANCH  13  19
ENDBRANCH  11  15
ENDBRANCH   1  12
BRANCH   5  21
ATOM     21  S   UNL     1       9.633   4.585  -0.522  0.00  0.00    -0.084 S 
BRANCH  21  22
ATOM     22  C   UNL     1       7.849   4.877  -0.367  0.00  0.00    +0.086 C 
BRANCH  22  23
ATOM     23  C   UNL     1       7.120   3.536  -0.265  0.00  0.00    +0.107 C 
BRANCH  23  24
ATOM     24  C   UNL     1       5.638   3.778  -0.135  0.00  0.00    +0.218 C 
ATOM     25  O   UNL     1       5.208   4.912  -0.126  0.00  0.00    -0.275 OA
ATOM     26  N   UNL     1       4.791   2.735  -0.030  0.00  0.00    -0.285 N 
ATOM     27  H   UNL     1       5.186   1.711   0.036  0.00  0.00    +0.155 HD
BRANCH  26  28
ATOM     28  C   UNL     1       3.414   2.955  -0.007  0.00  0.00    +0.034 A 
ATOM     29  C   UNL     1       2.905   4.086   0.619  0.00  0.00    +0.024 A 
ATOM     30  C   UNL     1       1.542   4.315   0.649  0.00  0.00    +0.015 A 
ATOM     31  C   UNL     1       0.676   3.409   0.051  0.00  0.00    +0.049 A 
ATOM     32  C   UNL     1       1.190   2.259  -0.584  0.00  0.00    +0.051 A 
ATOM     33  C   UNL     1       2.555   2.037  -0.610  0.00  0.00    +0.037 A 
ATOM     34  C   UNL     1       0.015   1.527  -1.104  0.00  0.00    +0.251 C 
ATOM     35  O   UNL     1       0.047   0.479  -1.717  0.00  0.00    -0.270 OA
ATOM     36  N   UNL     1      -1.094   2.220  -0.789  0.00  0.00    -0.248 N 
ATOM     37  C   UNL     1      -0.789   3.336  -0.104  0.00  0.00    +0.251 C 
ATOM     38  O   UNL     1      -1.588   4.152   0.313  0.00  0.00    -0.270 OA
ATOM     39  H   UNL     1      -2.082   1.844  -1.094  0.00  0.00    +0.158 HD
ENDBRANCH  26  28
ENDBRANCH  23  24
ENDBRANCH  22  23
ENDBRANCH  21  22
ENDBRANCH   5  21
TORSDOF 9
