REMARK  Name = ZINC08783346
REMARK  9 active torsions:
REMARK  status: ('A' for Active; 'I' for Inactive)
REMARK    1  A    between atoms: CG1_1  and  CB_2
REMARK    2  A    between atoms: CB_2  and  CG2_3
REMARK    3  A    between atoms: CB_2  and  CA_4
REMARK    4  A    between atoms: CA_4  and  C_6
REMARK    5  A    between atoms: CA_4  and  N_8
REMARK    6  A    between atoms: C_9  and  CA_11
REMARK    7  A    between atoms: CA_11  and  N_20
REMARK    8  A    between atoms: C_12  and  C_13
REMARK    9  A    between atoms: C_21  and  C_23
REMARK                            x       y       z     vdW  Elec       q    Type
REMARK                         _______ _______ _______ _____ _____    ______ ____
ROOT
ATOM      1  CA  UNL     1       1.140  -2.546   3.353  0.00  0.00    +0.097 C 
ATOM      2  C   UNL     1       0.174  -3.247   2.715  0.00  0.00    +0.036 C 
ENDROOT
BRANCH   2   3
ATOM      3  C   UNL     1      -0.802  -2.547   1.865  0.00  0.00    -0.023 A 
ATOM      4  C   UNL     1      -2.122  -3.005   1.789  0.00  0.00    +0.009 A 
ATOM      5  C   UNL     1      -3.033  -2.342   0.994  0.00  0.00    +0.016 A 
ATOM      6  C   UNL     1      -2.641  -1.231   0.265  0.00  0.00    +0.018 A 
ATOM      7  C   UNL     1      -1.335  -0.775   0.332  0.00  0.00    +0.016 A 
ATOM      8  C   UNL     1      -0.415  -1.425   1.126  0.00  0.00    +0.009 A 
ATOM      9 BR   UNL     1      -3.896  -0.332  -0.827  0.00  0.00    -0.050 Br
ENDBRANCH   2   3
BRANCH   1  11
ATOM     10  N   UNL     1       0.183  -0.388   3.974  0.00  0.00    -0.297 N 
ATOM     11  C   UNL     1       1.132  -1.077   3.310  0.00  0.00    +0.259 C 
ATOM     12  O   UNL     1       1.983  -0.482   2.675  0.00  0.00    -0.269 OA
ATOM     13  H   UNL     1      -0.456  -0.858   4.532  0.00  0.00    +0.150 HD
BRANCH  10  14
ATOM     14  CA  UNL     1       0.117   1.070   3.853  0.00  0.00    +0.189 C 
BRANCH  14  16
ATOM     15  CG1 UNL     1      -2.270   0.779   3.174  0.00  0.00    +0.009 C 
ATOM     16  CB  UNL     1      -1.319   1.538   4.102  0.00  0.00    +0.014 C 
ATOM     17  CG2 UNL     1      -1.422   3.039   3.822  0.00  0.00    +0.009 C 
ENDBRANCH  14  16
BRANCH  14  18
ATOM     18  C   UNL     1       1.034   1.701   4.870  0.00  0.00    +0.376 C 
ATOM     19  O   UNL     1       1.677   1.003   5.618  0.00  0.00    -0.244 OA
ATOM     20  OXT UNL     1       1.136   3.037   4.943  0.00  0.00    -0.244 OA
ENDBRANCH  14  18
ENDBRANCH  10  14
ENDBRANCH   1  11
BRANCH   1  21
ATOM     21  N   UNL     1       2.145  -3.220   4.052  0.00  0.00    -0.275 N 
ATOM     22  C   UNL     1       3.038  -2.525   4.785  0.00  0.00    +0.284 C 
ATOM     23  O   UNL     1       2.912  -1.322   4.917  0.00  0.00    -0.266 OA
ATOM     24  H   UNL     1       2.200  -4.188   4.011  0.00  0.00    +0.155 HD
BRANCH  22  25
ATOM     25  C   UNL     1       4.161  -3.218   5.422  0.00  0.00    +0.191 A 
ATOM     26  C   UNL     1       5.136  -2.637   6.182  0.00  0.00    +0.056 A 
ATOM     27  C   UNL     1       5.998  -3.666   6.588  0.00  0.00    +0.058 A 
ATOM     28  C   UNL     1       5.523  -4.817   6.058  0.00  0.00    +0.171 A 
ATOM     29  O   UNL     1       4.416  -4.542   5.356  0.00  0.00    -0.444 OA
ATOM     30 BR   UNL     1       6.295  -6.530   6.272  0.00  0.00    -0.008 Br
ENDBRANCH  22  25
ENDBRANCH   1  21
TORSDOF 7
