REMARK  Name = ZINC06452993
REMARK  6 active torsions:
REMARK  status: ('A' for Active; 'I' for Inactive)
REMARK    1  A    between atoms: C_1  and  O_2
REMARK    2  A    between atoms: O_2  and  C_3
REMARK    3  A    between atoms: C_3  and  C_5
REMARK    4  A    between atoms: C_7  and  C_22
REMARK    5  A    between atoms: N_11  and  N_12
REMARK    6  A    between atoms: N_12  and  C_13
REMARK                            x       y       z     vdW  Elec       q    Type
REMARK                         _______ _______ _______ _____ _____    ______ ____
ROOT
ATOM      1  C   UNL     1       1.187  -1.758   1.206  0.00  0.00    +0.172 C 
ATOM      2  C   UNL     1       1.760  -2.405   2.470  0.00  0.00    +0.045 C 
ATOM      3  C   UNL     1       1.636  -3.928   2.368  0.00  0.00    +0.062 C 
ATOM      4  C   UNL     1       2.373  -4.401   1.135  0.00  0.00    +0.045 C 
ATOM      5  N   UNL     1       3.283  -5.298   1.215  0.00  0.00    -0.191 NA
ATOM      6  C   UNL     1       2.004  -3.783  -0.199  0.00  0.00    +0.127 C 
ATOM      7  C   UNL     1       1.933  -2.282  -0.001  0.00  0.00    +0.153 C 
ATOM      8  O   UNL     1       2.459  -1.527  -0.782  0.00  0.00    -0.296 OA
ENDROOT
BRANCH   2   9
ATOM      9  C   UNL     1       0.994  -1.920   3.673  0.00  0.00    -0.043 A 
ATOM     10  C   UNL     1      -0.365  -2.155   3.768  0.00  0.00    +0.004 A 
ATOM     11  C   UNL     1      -1.068  -1.710   4.872  0.00  0.00    +0.000 A 
ATOM     12  C   UNL     1      -0.412  -1.030   5.881  0.00  0.00    +0.000 A 
ATOM     13  C   UNL     1       0.947  -0.795   5.786  0.00  0.00    +0.000 A 
ATOM     14  C   UNL     1       1.651  -1.244   4.684  0.00  0.00    +0.004 A 
ENDBRANCH   2   9
BRANCH   1  15
ATOM     15  C   UNL     1       1.350  -0.262   1.288  0.00  0.00    +0.318 C 
ATOM     16  O   UNL     1       1.868   0.237   2.259  0.00  0.00    -0.250 OA
BRANCH  15  18
ATOM     17  C   UNL     1       1.107   1.926   0.427  0.00  0.00    +0.280 C 
ATOM     18  O   UNL     1       0.921   0.517   0.282  0.00  0.00    -0.467 OA
ENDBRANCH  15  18
ENDBRANCH   1  15
BRANCH   5  19
ATOM     19  N   UNL     1       3.861  -5.816   0.049  0.00  0.00    -0.238 N 
ATOM     20  H   UNL     1       3.519  -5.553  -0.820  0.00  0.00    +0.174 HD
BRANCH  19  21
ATOM     21  C   UNL     1       4.929  -6.711   0.137  0.00  0.00    +0.048 A 
ATOM     22  C   UNL     1       5.416  -7.093   1.381  0.00  0.00    +0.025 A 
ATOM     23  C   UNL     1       6.473  -7.978   1.464  0.00  0.00    +0.002 A 
ATOM     24  C   UNL     1       7.046  -8.484   0.312  0.00  0.00    +0.000 A 
ATOM     25  C   UNL     1       6.564  -8.106  -0.928  0.00  0.00    +0.002 A 
ATOM     26  C   UNL     1       5.503  -7.226  -1.019  0.00  0.00    +0.025 A 
ENDBRANCH  19  21
ENDBRANCH   5  19
TORSDOF 5
