REMARK  Name = ZINC24745665
REMARK  8 active torsions:
REMARK  status: ('A' for Active; 'I' for Inactive)
REMARK    1  A    between atoms: C_4  and  C_7
REMARK    2  A    between atoms: C_9  and  C_12
REMARK    3  A    between atoms: C_12  and  N_13
REMARK    4  A    between atoms: C_19  and  C_21
REMARK    5  A    between atoms: C_21  and  C_22
REMARK    6  A    between atoms: C_22  and  S_23
REMARK    7  A    between atoms: S_23  and  N_26
REMARK    8  A    between atoms: N_26  and  C_27
REMARK                            x       y       z     vdW  Elec       q    Type
REMARK                         _______ _______ _______ _____ _____    ______ ____
ROOT
ATOM      1  N   UNL     1      -8.431  -0.856   3.075  0.00  0.00    -0.294 NA
ATOM      2  C   UNL     1      -8.431   0.016   1.893  0.00  0.00    +0.104 C 
ATOM      3  C   UNL     1      -7.604  -0.636   0.781  0.00  0.00    +0.123 C 
ATOM      4  N   UNL     1      -6.272  -0.957   1.316  0.00  0.00    -0.299 N 
ATOM      5  C   UNL     1      -6.192  -1.718   2.572  0.00  0.00    +0.123 C 
ATOM      6  C   UNL     1      -7.075  -1.018   3.617  0.00  0.00    +0.104 C 
ATOM      7  C   UNL     1      -5.155  -0.569   0.670  0.00  0.00    +0.217 C 
ATOM      8  O   UNL     1      -5.239   0.054  -0.367  0.00  0.00    -0.276 OA
ENDROOT
BRANCH   1   9
ATOM      9  C   UNL     1      -9.352  -0.351   4.103  0.00  0.00    +0.140 C 
BRANCH   9  12
ATOM     10  C   UNL     1     -10.555  -3.273   5.987  0.00  0.00    +0.109 A 
ATOM     11  N   UNL     1     -10.397  -2.346   5.052  0.00  0.00    -0.243 NA
ATOM     12  C   UNL     1      -9.512  -1.387   5.186  0.00  0.00    +0.063 A 
ATOM     13  C   UNL     1      -8.744  -1.325   6.306  0.00  0.00    +0.071 A 
ATOM     14  S   UNL     1      -9.349  -2.751   7.200  0.00  0.00    -0.075 S 
BRANCH  10  18
ATOM     15  C   UNL     1     -13.219  -6.580   6.083  0.00  0.00    +0.000 A 
ATOM     16  C   UNL     1     -12.357  -6.358   7.143  0.00  0.00    +0.001 A 
ATOM     17  C   UNL     1     -11.490  -5.286   7.118  0.00  0.00    +0.010 A 
ATOM     18  C   UNL     1     -11.482  -4.424   6.020  0.00  0.00    +0.007 A 
ATOM     19  C   UNL     1     -12.357  -4.650   4.957  0.00  0.00    +0.010 A 
ATOM     20  C   UNL     1     -13.215  -5.729   4.992  0.00  0.00    +0.001 A 
ENDBRANCH  10  18
ENDBRANCH   9  12
ENDBRANCH   1   9
BRANCH   7  21
ATOM     21  C   UNL     1      -3.800  -0.909   1.236  0.00  0.00    +0.120 C 
BRANCH  21  22
ATOM     22  C   UNL     1      -2.710  -0.356   0.317  0.00  0.00    +0.198 C 
BRANCH  22  23
ATOM     23  S   UNL     1      -1.079  -0.765   0.999  0.00  0.00    +0.044 S 
ATOM     24  O   UNL     1      -0.813  -2.151   0.832  0.00  0.00    -0.155 OA
ATOM     25  O   UNL     1      -0.907  -0.142   2.264  0.00  0.00    -0.155 OA
BRANCH  23  26
ATOM     26  N   UNL     1       0.002  -0.004   0.002  0.00  0.00    -0.221 N 
ATOM     27  H   UNL     1       0.675   0.766   0.406  0.00  0.00    +0.173 HD
BRANCH  26  28
ATOM     28  C   UNL     1       0.060  -0.341  -1.353  0.00  0.00    +0.048 A 
ATOM     29  C   UNL     1       0.079  -1.676  -1.738  0.00  0.00    +0.024 A 
ATOM     30  C   UNL     1       0.132  -2.005  -3.078  0.00  0.00    +0.002 A 
ATOM     31  C   UNL     1       0.176  -1.008  -4.035  0.00  0.00    +0.000 A 
ATOM     32  C   UNL     1       0.163   0.321  -3.655  0.00  0.00    +0.002 A 
ATOM     33  C   UNL     1       0.105   0.657  -2.317  0.00  0.00    +0.024 A 
ENDBRANCH  26  28
ENDBRANCH  23  26
ENDBRANCH  22  23
ENDBRANCH  21  22
ENDBRANCH   7  21
TORSDOF 8
