REMARK  Name = ZINC36570273
REMARK  16 active torsions:
REMARK  status: ('A' for Active; 'I' for Inactive)
REMARK    1  A    between atoms: C_1  and  C_2
REMARK    2  A    between atoms: C_2  and  C_3
REMARK    3  A    between atoms: C_3  and  C_4
REMARK    4  A    between atoms: C_4  and  C_5
REMARK    5  A    between atoms: C_5  and  C_6
REMARK    6  A    between atoms: C_6  and  C_8
REMARK    7  A    between atoms: C_6  and  N_22
REMARK    8  A    between atoms: N_10  and  C_11
REMARK    9  A    between atoms: C_11  and  S_12
REMARK   10  A    between atoms: S_12  and  C_15
REMARK   11  A    between atoms: C_18  and  C_21
REMARK   12  A    between atoms: N_22  and  C_23
REMARK   13  A    between atoms: C_23  and  C_24
REMARK   14  A    between atoms: C_24  and  C_25
REMARK   15  A    between atoms: C_26  and  C_28
REMARK   16  A    between atoms: C_30  and  N_35
REMARK                            x       y       z     vdW  Elec       q    Type
REMARK                         _______ _______ _______ _____ _____    ______ ____
ROOT
ATOM      1  C   UNL     1      -2.857  -4.582  -0.137  0.00  0.00    +0.162 C 
ENDROOT
BRANCH   1   2
ATOM      2  C   UNL     1      -3.629  -5.599  -0.937  0.00  0.00    +0.235 C 
ATOM      3  O   UNL     1      -3.901  -6.675  -0.448  0.00  0.00    -0.274 OA
ATOM      4  N   UNL     1      -4.017  -5.314  -2.196  0.00  0.00    -0.295 N 
ATOM      5  H   UNL     1      -3.799  -4.453  -2.587  0.00  0.00    +0.150 HD
BRANCH   4   6
ATOM      6  C   UNL     1      -4.767  -6.303  -2.973  0.00  0.00    +0.278 C 
BRANCH   6   7
ATOM      7  S   UNL     1      -6.544  -5.976  -2.813  0.00  0.00    +0.013 S 
ATOM      8  O   UNL     1      -7.284  -6.888  -3.613  0.00  0.00    -0.168 OA
ATOM      9  O   UNL     1      -6.883  -5.768  -1.449  0.00  0.00    -0.168 OA
BRANCH   7  10
ATOM     10  C   UNL     1      -6.787  -4.408  -3.580  0.00  0.00    +0.090 A 
ATOM     11  C   UNL     1      -6.682  -3.249  -2.833  0.00  0.00    +0.027 A 
ATOM     12  C   UNL     1      -6.872  -2.019  -3.434  0.00  0.00    +0.005 A 
ATOM     13  C   UNL     1      -7.167  -1.948  -4.783  0.00  0.00    -0.050 A 
ATOM     14  C   UNL     1      -7.271  -3.106  -5.530  0.00  0.00    +0.005 A 
ATOM     15  C   UNL     1      -7.076  -4.336  -4.930  0.00  0.00    +0.027 A 
ATOM     16  C   UNL     1      -7.375  -0.607  -5.439  0.00  0.00    +0.044 C 
ENDBRANCH   7  10
ENDBRANCH   6   7
ENDBRANCH   4   6
ENDBRANCH   1   2
BRANCH   1  17
ATOM     17  N   UNL     1      -2.245  -5.234   1.023  0.00  0.00    -0.286 N 
ATOM     18  C   UNL     1      -0.903  -5.300   1.128  0.00  0.00    +0.251 C 
ATOM     19  O   UNL     1      -0.394  -5.751   2.136  0.00  0.00    -0.270 OA
BRANCH  18  20
ATOM     20  C   UNL     1      -0.051  -4.826   0.021  0.00  0.00    +0.086 A 
ATOM     21  C   UNL     1      -0.311  -5.233  -1.290  0.00  0.00    +0.049 A 
ATOM     22  C   UNL     1       0.488  -4.787  -2.319  0.00  0.00    +0.127 A 
ATOM     23  C   UNL     1       1.549  -3.934  -2.061  0.00  0.00    +0.036 A 
ATOM     24  C   UNL     1       1.817  -3.523  -0.771  0.00  0.00    +0.054 A 
ATOM     25  C   UNL     1       1.020  -3.959   0.277  0.00  0.00    +0.191 A 
ATOM     26  O   UNL     1       1.278  -3.551   1.545  0.00  0.00    -0.287 OA
BRANCH  22  27
ATOM     27  N   UNL     1       0.212  -5.220  -3.708  0.00  0.00    +0.056 N 
ATOM     28  O   UNL     1      -0.713  -5.964  -3.936  0.00  0.00    -0.126 OA
ATOM     29  O   UNL     1       0.911  -4.829  -4.613  0.00  0.00    -0.126 OA
ENDBRANCH  22  27
ENDBRANCH  18  20
BRANCH  17  30
ATOM     30  C   UNL     1      -3.091  -5.815   2.067  0.00  0.00    +0.108 C 
BRANCH  30  31
ATOM     31  C   UNL     1      -3.249  -4.812   3.212  0.00  0.00    +0.016 C 
ATOM     32  C   UNL     1      -4.063  -5.449   4.340  0.00  0.00    +0.005 C 
ENDBRANCH  30  31
ENDBRANCH  17  30
ENDBRANCH   1  17
BRANCH   1  33
ATOM     33  C   UNL     1      -3.806  -3.480   0.339  0.00  0.00    +0.032 C 
BRANCH  33  34
ATOM     34  C   UNL     1      -3.004  -2.385   1.044  0.00  0.00    +0.002 C 
BRANCH  34  35
ATOM     35  C   UNL     1      -3.953  -1.283   1.520  0.00  0.00    -0.000 C 
BRANCH  35  37
ATOM     36  C   UNL     1      -4.100   0.913   2.701  0.00  0.00    +0.004 C 
ATOM     37  C   UNL     1      -3.151  -0.188   2.224  0.00  0.00    -0.003 C 
ENDBRANCH  35  37
ENDBRANCH  34  35
ENDBRANCH  33  34
ENDBRANCH   1  33
TORSDOF 13
