REMARK  Name = ZINC39449206
REMARK  7 active torsions:
REMARK  status: ('A' for Active; 'I' for Inactive)
REMARK    1  A    between atoms: C_1  and  C_2
REMARK    2  A    between atoms: C_2  and  O_3
REMARK    3  A    between atoms: O_3  and  N_4
REMARK    4  A    between atoms: C_12  and  S_15
REMARK    5  A    between atoms: S_15  and  C_18
REMARK    6  A    between atoms: C_25  and  C_30
REMARK    7  A    between atoms: C_30  and  C_31
REMARK                            x       y       z     vdW  Elec       q    Type
REMARK                         _______ _______ _______ _____ _____    ______ ____
ROOT
ATOM      1  N   UNL     1       0.745  -1.875  -1.279  0.00  0.00    -0.138 N 
ATOM      2  C   UNL     1       1.836  -2.533  -0.726  0.00  0.00    +0.149 A 
ATOM      3  C   UNL     1       1.953  -3.908  -0.809  0.00  0.00    +0.085 A 
ATOM      4  C   UNL     1       0.907  -4.689  -1.482  0.00  0.00    +0.099 A 
ATOM      5  C   UNL     1      -0.192  -3.996  -2.034  0.00  0.00    +0.071 A 
ATOM      6  C   UNL     1      -0.246  -2.533  -1.906  0.00  0.00    +0.293 A 
ATOM      7  O   UNL     1      -1.187  -1.917  -2.372  0.00  0.00    -0.264 OA
ATOM      8  C   UNL     1      -1.198  -4.717  -2.679  0.00  0.00    +0.044 A 
ATOM      9  C   UNL     1      -1.069  -6.093  -2.747  0.00  0.00    +0.112 A 
ATOM     10  C   UNL     1       0.040  -6.707  -2.182  0.00  0.00    +0.138 A 
ATOM     11  N   UNL     1       0.979  -6.011  -1.578  0.00  0.00    -0.251 NA
ATOM     12  N   UNL     1       3.055  -4.539  -0.264  0.00  0.00    -0.337 N 
ATOM     13  C   UNL     1       4.308  -3.778  -0.147  0.00  0.00    +0.082 C 
ATOM     14  C   UNL     1       4.006  -2.467   0.589  0.00  0.00    +0.104 C 
ATOM     15  C   UNL     1       2.840  -1.781  -0.073  0.00  0.00    +0.186 C 
ATOM     16  O   UNL     1       2.762  -0.569  -0.046  0.00  0.00    -0.290 OA
ATOM     17  H   UNL     1       3.003  -5.461   0.033  0.00  0.00    +0.146 HD
ENDROOT
BRANCH   9  18
ATOM     18  S   UNL     1      -2.305  -7.061  -3.548  0.00  0.00    +0.027 S 
ATOM     19  O   UNL     1      -2.218  -8.368  -2.997  0.00  0.00    -0.164 OA
ATOM     20  O   UNL     1      -3.503  -6.298  -3.513  0.00  0.00    -0.164 OA
BRANCH  18  21
ATOM     21  C   UNL     1      -1.844  -7.197  -5.243  0.00  0.00    +0.094 A 
ATOM     22  C   UNL     1      -2.276  -6.252  -6.155  0.00  0.00    +0.027 A 
ATOM     23  C   UNL     1      -1.914  -6.359  -7.485  0.00  0.00    +0.002 A 
ATOM     24  C   UNL     1      -1.119  -7.410  -7.902  0.00  0.00    +0.000 A 
ATOM     25  C   UNL     1      -0.686  -8.354  -6.990  0.00  0.00    +0.002 A 
ATOM     26  C   UNL     1      -1.045  -8.245  -5.660  0.00  0.00    +0.027 A 
ENDBRANCH  18  21
ENDBRANCH   9  18
BRANCH   1  27
ATOM     27  O   UNL     1       0.671  -0.465  -1.174  0.00  0.00    -0.408 OA
BRANCH  27  29
ATOM     28  C   UNL     1      -0.019   1.526   0.010  0.00  0.00    +0.051 C 
ATOM     29  C   UNL     1       0.002  -0.004   0.002  0.00  0.00    +0.257 C 
ENDBRANCH  27  29
ENDBRANCH   1  27
BRANCH  13  30
ATOM     30  C   UNL     1       4.859  -3.473  -1.541  0.00  0.00    +0.057 C 
BRANCH  30  31
ATOM     31  C   UNL     1       5.240  -4.761  -2.224  0.00  0.00    -0.046 A 
ATOM     32  C   UNL     1       6.518  -5.269  -2.077  0.00  0.00    +0.004 A 
ATOM     33  C   UNL     1       6.868  -6.450  -2.703  0.00  0.00    +0.000 A 
ATOM     34  C   UNL     1       5.941  -7.125  -3.475  0.00  0.00    +0.000 A 
ATOM     35  C   UNL     1       4.663  -6.618  -3.621  0.00  0.00    +0.000 A 
ATOM     36  C   UNL     1       4.311  -5.438  -2.991  0.00  0.00    +0.004 A 
ENDBRANCH  30  31
ENDBRANCH  13  30
TORSDOF 6
