REMARK  Name = ZINC26959443
REMARK  10 active torsions:
REMARK  status: ('A' for Active; 'I' for Inactive)
REMARK    1  A    between atoms: C_1  and  C_2
REMARK    2  A    between atoms: C_4  and  C_11
REMARK    3  A    between atoms: C_7  and  N_8
REMARK    4  A    between atoms: C_11  and  N_12
REMARK    5  A    between atoms: C_18  and  C_37
REMARK    6  A    between atoms: C_22  and  C_24
REMARK    7  A    between atoms: C_24  and  C_25
REMARK    8  A    between atoms: C_24  and  C_31
REMARK    9  A    between atoms: C_37  and  O_39
REMARK   10  A    between atoms: O_39  and  C_40
REMARK                            x       y       z     vdW  Elec       q    Type
REMARK                         _______ _______ _______ _____ _____    ______ ____
ROOT
ATOM      1  N   UNL     1       3.093  -3.333  -5.171  0.00  0.00    -0.331 N 
ATOM      2  C   UNL     1       2.007  -4.020  -4.750  0.00  0.00    +0.174 A 
ATOM      3  N   UNL     1       1.498  -3.408  -3.712  0.00  0.00    -0.348 N 
ATOM      4  C   UNL     1       2.232  -2.326  -3.441  0.00  0.00    +0.054 A 
ATOM      5  C   UNL     1       3.236  -2.263  -4.341  0.00  0.00    +0.043 A 
ATOM      6  C   UNL     1       4.295  -1.192  -4.375  0.00  0.00    +0.089 C 
ATOM      7  C   UNL     1       3.807   0.013  -3.552  0.00  0.00    +0.191 C 
ATOM      8  N   UNL     1       3.238  -0.474  -2.287  0.00  0.00    -0.281 N 
ATOM      9  C   UNL     1       2.028  -1.313  -2.339  0.00  0.00    +0.163 C 
ATOM     10  C   UNL     1       3.808  -0.157  -1.107  0.00  0.00    +0.228 C 
ATOM     11  O   UNL     1       4.751   0.605  -1.074  0.00  0.00    -0.275 OA
ATOM     12  H   UNL     1       0.603  -3.813  -3.219  0.00  0.00    +0.166 HD
ENDROOT
BRANCH   7  13
ATOM     13  C   UNL     1       4.965   0.933  -3.263  0.00  0.00    +0.328 C 
ATOM     14  O   UNL     1       6.093   0.498  -3.250  0.00  0.00    -0.249 OA
BRANCH  13  15
ATOM     15  O   UNL     1       4.745   2.234  -3.020  0.00  0.00    -0.467 OA
ATOM     16  C   UNL     1       5.908   3.060  -2.749  0.00  0.00    +0.280 C 
ENDBRANCH  13  15
ENDBRANCH   7  13
BRANCH   1  17
ATOM     17  C   UNL     1       3.954  -3.676  -6.306  0.00  0.00    +0.158 C 
BRANCH  17  21
ATOM     18  C   UNL     1       8.646  -3.826  -4.571  0.00  0.00    +0.046 C 
ATOM     19  C   UNL     1       7.385  -4.538  -4.987  0.00  0.00    -0.020 A 
ATOM     20  C   UNL     1       6.298  -3.813  -5.440  0.00  0.00    +0.011 A 
ATOM     21  C   UNL     1       5.140  -4.466  -5.817  0.00  0.00    -0.027 A 
ATOM     22  C   UNL     1       5.071  -5.846  -5.750  0.00  0.00    +0.007 A 
ATOM     23  C   UNL     1       6.159  -6.571  -5.301  0.00  0.00    +0.033 A 
ATOM     24  C   UNL     1       7.316  -5.917  -4.919  0.00  0.00    +0.129 A 
BRANCH  24  25
ATOM     25  N   UNL     1       8.480  -6.694  -4.438  0.00  0.00    +0.057 N 
ATOM     26  O   UNL     1       9.610  -6.332  -4.714  0.00  0.00    -0.126 OA
ATOM     27  O   UNL     1       8.309  -7.695  -3.765  0.00  0.00    -0.126 OA
ENDBRANCH  24  25
ENDBRANCH  17  21
ENDBRANCH   1  17
BRANCH  10  28
ATOM     28  C   UNL     1       3.272  -0.748   0.171  0.00  0.00    +0.135 C 
BRANCH  28  29
ATOM     29  C   UNL     1       1.829  -0.348   0.344  0.00  0.00    -0.031 A 
ATOM     30  C   UNL     1       0.872  -1.310   0.611  0.00  0.00    +0.005 A 
ATOM     31  C   UNL     1      -0.451  -0.943   0.768  0.00  0.00    +0.000 A 
ATOM     32  C   UNL     1      -0.818   0.385   0.659  0.00  0.00    +0.000 A 
ATOM     33  C   UNL     1       0.139   1.347   0.393  0.00  0.00    +0.000 A 
ATOM     34  C   UNL     1       1.462   0.980   0.235  0.00  0.00    +0.005 A 
ENDBRANCH  28  29
BRANCH  28  35
ATOM     35  C   UNL     1       4.077  -0.237   1.338  0.00  0.00    -0.031 A 
ATOM     36  C   UNL     1       4.634  -1.128   2.237  0.00  0.00    +0.005 A 
ATOM     37  C   UNL     1       5.377  -0.659   3.304  0.00  0.00    +0.000 A 
ATOM     38  C   UNL     1       5.555   0.700   3.478  0.00  0.00    +0.000 A 
ATOM     39  C   UNL     1       4.995   1.591   2.582  0.00  0.00    +0.000 A 
ATOM     40  C   UNL     1       4.256   1.123   1.512  0.00  0.00    +0.005 A 
ENDBRANCH  28  35
ENDBRANCH  10  28
TORSDOF 8
