REMARK  Name = ZINC12833034
REMARK  11 active torsions:
REMARK  status: ('A' for Active; 'I' for Inactive)
REMARK    1  A    between atoms: C_1  and  C_2
REMARK    2  A    between atoms: C_4  and  C_36
REMARK    3  A    between atoms: C_9  and  C_14
REMARK    4  A    between atoms: C_14  and  N_70
REMARK    5  A    between atoms: C_15  and  C_16
REMARK    6  A    between atoms: C_15  and  N_70
REMARK    7  A    between atoms: C_21  and  O_22
REMARK    8  A    between atoms: O_22  and  C_23
REMARK    9  A    between atoms: C_24  and  C_25
REMARK   10  A    between atoms: C_24  and  N_70
REMARK   11  A    between atoms: N_29  and  C_30
REMARK                            x       y       z     vdW  Elec       q    Type
REMARK                         _______ _______ _______ _____ _____    ______ ____
ROOT
ATOM      1  N   UNL     1      -5.591   0.792   1.622  0.00  0.00    +0.390 N 
ATOM      2  H   UNL     1      -4.739   0.611   2.167  0.00  0.00    -0.080 HD
ENDROOT
BRANCH   1   3
ATOM      3  C   UNL     1      -5.285   0.629   0.185  0.00  0.00    -0.036 C 
BRANCH   3  12
ATOM      4  C   UNL     1       2.064   1.450  -0.781  0.00  0.00    +0.044 C 
ATOM      5  C   UNL     1       0.668   2.017  -0.779  0.00  0.00    -0.050 A 
ATOM      6  C   UNL     1       0.466   3.352  -1.102  0.00  0.00    +0.008 A 
ATOM      7  C   UNL     1      -0.802   3.890  -1.107  0.00  0.00    -0.026 A 
ATOM      8  C   UNL     1      -1.893   3.090  -0.785  0.00  0.00    +0.052 A 
ATOM      9  C   UNL     1      -1.685   1.735  -0.463  0.00  0.00    -0.001 A 
ATOM     10  C   UNL     1      -0.388   1.212  -0.459  0.00  0.00    +0.013 A 
ATOM     11  C   UNL     1      -2.841   0.899  -0.131  0.00  0.00    +0.017 A 
ATOM     12  C   UNL     1      -4.074   1.462  -0.151  0.00  0.00    +0.001 A 
ATOM     13  C   UNL     1      -4.229   2.824  -0.487  0.00  0.00    +0.251 A 
ATOM     14  O   UNL     1      -5.347   3.309  -0.499  0.00  0.00    -0.268 OA
ATOM     15  N   UNL     1      -3.173   3.602  -0.782  0.00  0.00    -0.322 N 
ATOM     16  H   UNL     1      -3.315   4.535  -1.007  0.00  0.00    +0.169 HD
ATOM     17  C   UNL     1      -1.007   5.341  -1.459  0.00  0.00    +0.046 C 
ENDBRANCH   3  12
ENDBRANCH   1   3
BRANCH   1  18
ATOM     18  C   UNL     1      -6.048   2.172   1.888  0.00  0.00    -0.038 C 
BRANCH  18  19
ATOM     19  C   UNL     1      -6.260   2.339   3.371  0.00  0.00    -0.022 A 
ATOM     20  C   UNL     1      -7.539   2.325   3.892  0.00  0.00    +0.005 A 
ATOM     21  C   UNL     1      -7.734   2.473   5.252  0.00  0.00    +0.000 A 
ATOM     22  C   UNL     1      -6.651   2.646   6.094  0.00  0.00    +0.004 A 
ATOM     23  C   UNL     1      -5.370   2.665   5.577  0.00  0.00    +0.046 A 
ATOM     24  C   UNL     1      -5.171   2.511   4.213  0.00  0.00    +0.121 A 
BRANCH  24  25
ATOM     25  O   UNL     1      -3.912   2.531   3.702  0.00  0.00    -0.495 OA
ATOM     26  C   UNL     1      -2.839   2.713   4.628  0.00  0.00    +0.277 C 
ENDBRANCH  24  25
ENDBRANCH  18  19
ENDBRANCH   1  18
BRANCH   1  27
ATOM     27  C   UNL     1      -6.635  -0.173   2.029  0.00  0.00    +0.001 C 
BRANCH  27  28
ATOM     28  C   UNL     1      -6.047  -1.560   2.009  0.00  0.00    +0.135 A 
ATOM     29  N   UNL     1      -6.037  -2.392   0.997  0.00  0.00    -0.115 NA
ATOM     30  N   UNL     1      -5.443  -3.472   1.374  0.00  0.00    -0.023 NA
ATOM     31  N   UNL     1      -5.081  -3.353   2.603  0.00  0.00    -0.044 NA
ATOM     32  N   UNL     1      -5.436  -2.188   3.031  0.00  0.00    -0.228 N 
BRANCH  32  33
ATOM     33  C   UNL     1      -5.215  -1.651   4.376  0.00  0.00    +0.111 C 
ATOM     34  C   UNL     1      -3.712  -1.578   4.655  0.00  0.00    +0.027 C 
ATOM     35  C   UNL     1      -3.481  -1.016   6.060  0.00  0.00    +0.002 C 
ATOM     36  C   UNL     1      -4.148  -1.930   7.090  0.00  0.00    +0.000 C 
ATOM     37  C   UNL     1      -5.651  -2.003   6.811  0.00  0.00    +0.002 C 
ATOM     38  C   UNL     1      -5.881  -2.564   5.406  0.00  0.00    +0.027 C 
ENDBRANCH  32  33
ENDBRANCH  27  28
ENDBRANCH   1  27
TORSDOF 8
