REMARK  Name = ZINC23882143
REMARK  7 active torsions:
REMARK  status: ('A' for Active; 'I' for Inactive)
REMARK    1  A    between atoms: C_4  and  S_8
REMARK    2  A    between atoms: S_8  and  N_11
REMARK    3  A    between atoms: N_14  and  C_17
REMARK    4  A    between atoms: C_17  and  C_18
REMARK    5  A    between atoms: C_18  and  C_19
REMARK    6  A    between atoms: N_21  and  C_22
REMARK    7  A    between atoms: C_23  and  C_32
REMARK                            x       y       z     vdW  Elec       q    Type
REMARK                         _______ _______ _______ _____ _____    ______ ____
ROOT
ATOM      1  C   UNL     1      -0.753   1.593  -1.232  0.00  0.00    +0.093 C 
ENDROOT
BRANCH   1   5
ATOM      2  N   UNL     1       1.190   1.169  -4.928  0.00  0.00    -0.174 NA
ATOM      3  C   UNL     1      -0.207   0.715  -4.851  0.00  0.00    +0.125 C 
ATOM      4  C   UNL     1      -0.870   1.381  -3.641  0.00  0.00    +0.101 C 
ATOM      5  N   UNL     1      -0.065   1.119  -2.440  0.00  0.00    -0.299 NA
ATOM      6  C   UNL     1       1.272   1.717  -2.554  0.00  0.00    +0.101 C 
ATOM      7  C   UNL     1       2.022   1.064  -3.720  0.00  0.00    +0.125 C 
BRANCH   2   8
ATOM      8  S   UNL     1       1.809   1.781  -6.336  0.00  0.00    +0.064 S 
ATOM      9  O   UNL     1       3.216   1.597  -6.275  0.00  0.00    -0.153 OA
ATOM     10  O   UNL     1       1.017   1.253  -7.391  0.00  0.00    -0.153 OA
BRANCH   8  14
ATOM     11  C   UNL     1       1.085   6.251  -6.286  0.00  0.00    +0.003 A 
ATOM     12  C   UNL     1       2.376   5.758  -6.260  0.00  0.00    +0.002 A 
ATOM     13  C   UNL     1       2.597   4.394  -6.269  0.00  0.00    +0.031 A 
ATOM     14  C   UNL     1       1.527   3.520  -6.317  0.00  0.00    +0.140 A 
ATOM     15  C   UNL     1       0.233   4.012  -6.343  0.00  0.00    +0.150 A 
ATOM     16  C   UNL     1       0.013   5.380  -6.328  0.00  0.00    +0.040 A 
ATOM     17  F   UNL     1      -0.814   3.159  -6.383  0.00  0.00    -0.203 F 
ENDBRANCH   8  14
ENDBRANCH   2   8
ENDBRANCH   1   5
BRANCH   1  18
ATOM     18  C   UNL     1      -0.013   1.086   0.008  0.00  0.00    +0.111 C 
BRANCH  18  19
ATOM     19  C   UNL     1      -0.718   1.572   1.248  0.00  0.00    +0.219 C 
ATOM     20  O   UNL     1      -1.715   2.256   1.150  0.00  0.00    -0.275 OA
ATOM     21  N   UNL     1      -0.242   1.246   2.466  0.00  0.00    -0.279 N 
ATOM     22  H   UNL     1       0.662   0.625   2.555  0.00  0.00    +0.155 HD
BRANCH  21  23
ATOM     23  C   UNL     1      -0.891   1.694   3.608  0.00  0.00    +0.090 A 
ATOM     24  C   UNL     1      -0.561   1.462   4.933  0.00  0.00    +0.084 A 
ATOM     25  C   UNL     1      -1.409   2.055   5.957  0.00  0.00    -0.018 A 
ATOM     26  C   UNL     1      -2.456   2.768   5.486  0.00  0.00    -0.004 A 
ATOM     27  S   UNL     1      -2.316   2.672   3.722  0.00  0.00    -0.077 S 
ATOM     28  C   UNL     1      -3.513   3.473   6.278  0.00  0.00    +0.043 C 
ATOM     29  C   UNL     1      -2.847   4.325   7.367  0.00  0.00    +0.005 C 
ATOM     30  C   UNL     1      -2.687   3.468   8.619  0.00  0.00    +0.001 C 
ATOM     31  C   UNL     1      -2.437   2.012   8.231  0.00  0.00    +0.005 C 
ATOM     32  C   UNL     1      -1.136   1.886   7.446  0.00  0.00    +0.037 C 
BRANCH  24  33
ATOM     33  C   UNL     1       0.578   0.668   5.284  0.00  0.00    +0.102 C 
ATOM     34  N   UNL     1       1.481   0.038   5.562  0.00  0.00    -0.191 NA
ENDBRANCH  24  33
ENDBRANCH  21  23
ENDBRANCH  18  19
ENDBRANCH   1  18
TORSDOF 7
