REMARK  Name = ZINC02211799
REMARK  10 active torsions:
REMARK  status: ('A' for Active; 'I' for Inactive)
REMARK    1  A    between atoms: C_1  and  C_2
REMARK    2  A    between atoms: C_2  and  C_3
REMARK    3  A    between atoms: C_2  and  C_4
REMARK    4  A    between atoms: C_2  and  C_5
REMARK    5  A    between atoms: C_8  and  C_11
REMARK    6  A    between atoms: N_12  and  N_13
REMARK    7  A    between atoms: C_14  and  C_16
REMARK    8  A    between atoms: C_16  and  S_17
REMARK    9  A    between atoms: S_17  and  C_18
REMARK   10  A    between atoms: N_28  and  C_29
REMARK                            x       y       z     vdW  Elec       q    Type
REMARK                         _______ _______ _______ _____ _____    ______ ____
ROOT
ATOM      1  S   UNL     1      -1.076  -2.755   1.126  0.00  0.00    -0.078 S 
ENDROOT
BRANCH   1   2
ATOM      2  C   UNL     1      -2.640  -3.281   0.508  0.00  0.00    +0.177 A 
ATOM      3  N   UNL     1      -3.646  -2.442   0.559  0.00  0.00    -0.223 NA
ATOM      4  C   UNL     1      -4.869  -2.777   0.100  0.00  0.00    +0.079 A 
ATOM      5  C   UNL     1      -5.940  -1.880   0.149  0.00  0.00    +0.028 A 
ATOM      6  C   UNL     1      -7.164  -2.263  -0.322  0.00  0.00    +0.002 A 
ATOM      7  C   UNL     1      -7.362  -3.531  -0.852  0.00  0.00    +0.001 A 
ATOM      8  C   UNL     1      -6.333  -4.431  -0.914  0.00  0.00    +0.015 A 
ATOM      9  C   UNL     1      -5.074  -4.067  -0.440  0.00  0.00    +0.065 A 
ATOM     10  C   UNL     1      -3.933  -4.992  -0.481  0.00  0.00    +0.267 A 
ATOM     11  O   UNL     1      -4.047  -6.116  -0.934  0.00  0.00    -0.267 OA
ATOM     12  N   UNL     1      -2.750  -4.547   0.004  0.00  0.00    -0.255 N 
BRANCH  12  13
ATOM     13  C   UNL     1      -1.631  -5.390  -0.012  0.00  0.00    +0.052 A 
ATOM     14  C   UNL     1      -0.784  -5.400  -1.112  0.00  0.00    +0.028 A 
ATOM     15  C   UNL     1       0.322  -6.228  -1.123  0.00  0.00    +0.022 A 
ATOM     16  C   UNL     1       0.580  -7.054  -0.043  0.00  0.00    +0.041 A 
ATOM     17  C   UNL     1      -0.266  -7.049   1.052  0.00  0.00    +0.022 A 
ATOM     18  C   UNL     1      -1.369  -6.220   1.070  0.00  0.00    +0.028 A 
ATOM     19 CL   UNL     1       1.967  -8.098  -0.063  0.00  0.00    -0.084 Cl
ENDBRANCH  12  13
ENDBRANCH   1   2
BRANCH   1  20
ATOM     20  C   UNL     1      -1.493  -1.072   1.645  0.00  0.00    +0.174 C 
BRANCH  20  22
ATOM     21  N   UNL     1      -0.343   0.859   2.679  0.00  0.00    -0.206 N 
ATOM     22  C   UNL     1      -0.270  -0.407   2.223  0.00  0.00    +0.242 C 
ATOM     23  O   UNL     1       0.780  -1.012   2.279  0.00  0.00    -0.273 OA
ATOM     24  H   UNL     1      -1.182   1.344   2.631  0.00  0.00    +0.177 HD
BRANCH  21  26
ATOM     25  C   UNL     1       0.723   2.696   3.654  0.00  0.00    +0.138 C 
ATOM     26  N   UNL     1       0.793   1.477   3.216  0.00  0.00    -0.188 NA
BRANCH  25  30
ATOM     27  C   UNL     1       4.167   4.568   5.283  0.00  0.00    -0.042 A 
ATOM     28  C   UNL     1       2.971   5.261   5.221  0.00  0.00    +0.005 A 
ATOM     29  C   UNL     1       1.848   4.659   4.693  0.00  0.00    +0.010 A 
ATOM     30  C   UNL     1       1.920   3.347   4.220  0.00  0.00    -0.005 A 
ATOM     31  C   UNL     1       3.129   2.651   4.291  0.00  0.00    +0.010 A 
ATOM     32  C   UNL     1       4.245   3.267   4.817  0.00  0.00    +0.005 A 
BRANCH  27  34
ATOM     33  C   UNL     1       5.114   5.630   7.314  0.00  0.00    +0.015 C 
ATOM     34  C   UNL     1       5.389   5.232   5.862  0.00  0.00    -0.013 C 
ATOM     35  C   UNL     1       6.569   4.259   5.815  0.00  0.00    +0.015 C 
ATOM     36  C   UNL     1       5.726   6.481   5.045  0.00  0.00    +0.015 C 
ENDBRANCH  27  34
ENDBRANCH  25  30
ENDBRANCH  21  26
ENDBRANCH  20  22
ENDBRANCH   1  20
TORSDOF 7
