REMARK  Name = ZINC39974954
REMARK  9 active torsions:
REMARK  status: ('A' for Active; 'I' for Inactive)
REMARK    1  A    between atoms: C_1  and  C_2
REMARK    2  A    between atoms: C_5  and  N_11
REMARK    3  A    between atoms: C_6  and  N_8
REMARK    4  A    between atoms: N_11  and  C_12
REMARK    5  A    between atoms: C_12  and  N_14
REMARK    6  A    between atoms: N_17  and  S_20
REMARK    7  A    between atoms: S_20  and  C_23
REMARK    8  A    between atoms: C_25  and  C_30
REMARK    9  A    between atoms: C_28  and  C_29
REMARK                            x       y       z     vdW  Elec       q    Type
REMARK                         _______ _______ _______ _____ _____    ______ ____
ROOT
ATOM      1  N   UNL     1      -0.169  -6.164  -1.177  0.00  0.00    -0.310 N 
ATOM      2  C   UNL     1      -0.050  -6.922   0.076  0.00  0.00    +0.124 C 
ATOM      3  C   UNL     1      -1.297  -7.799   0.239  0.00  0.00    +0.128 C 
ATOM      4  N   UNL     1      -1.523  -8.533  -1.015  0.00  0.00    -0.174 NA
ATOM      5  C   UNL     1      -1.642  -7.774  -2.268  0.00  0.00    +0.128 C 
ATOM      6  C   UNL     1      -0.400  -6.897  -2.430  0.00  0.00    +0.124 C 
ENDROOT
BRANCH   4   7
ATOM      7  S   UNL     1      -1.640 -10.185  -1.015  0.00  0.00    +0.061 S 
ATOM      8  O   UNL     1      -1.294 -10.616  -2.324  0.00  0.00    -0.153 OA
ATOM      9  O   UNL     1      -0.954 -10.640   0.143  0.00  0.00    -0.153 OA
BRANCH   7  10
ATOM     10  C   UNL     1      -3.340 -10.587  -0.785  0.00  0.00    +0.109 A 
ATOM     11  C   UNL     1      -4.039 -11.232  -1.788  0.00  0.00    +0.032 A 
ATOM     12  C   UNL     1      -5.373 -11.547  -1.607  0.00  0.00    -0.049 A 
ATOM     13  C   UNL     1      -6.007 -11.218  -0.424  0.00  0.00    +0.004 A 
ATOM     14  C   UNL     1      -5.307 -10.574   0.579  0.00  0.00    +0.005 A 
ATOM     15  C   UNL     1      -3.972 -10.263   0.401  0.00  0.00    -0.024 A 
ATOM     16  C   UNL     1      -3.208  -9.565   1.496  0.00  0.00    +0.046 C 
ATOM     17  C   UNL     1      -6.136 -12.249  -2.701  0.00  0.00    +0.044 C 
ENDBRANCH   7  10
ENDBRANCH   4   7
BRANCH   1  18
ATOM     18  C   UNL     1      -0.074  -4.819  -1.177  0.00  0.00    +0.137 C 
ATOM     19  S   UNL     1      -0.092  -3.960  -2.658  0.00  0.00    -0.018 S 
BRANCH  18  20
ATOM     20  N   UNL     1       0.035  -4.152  -0.011  0.00  0.00    -0.295 N 
ATOM     21  H   UNL     1       0.083  -4.641   0.825  0.00  0.00    +0.154 HD
BRANCH  20  26
ATOM     22  C   UNL     1       0.212   1.518   0.005  0.00  0.00    +0.044 C 
ATOM     23  C   UNL     1       0.165   0.012   0.001  0.00  0.00    -0.048 A 
ATOM     24  C   UNL     1      -0.694  -0.649  -0.858  0.00  0.00    +0.005 A 
ATOM     25  C   UNL     1      -0.740  -2.029  -0.864  0.00  0.00    +0.026 A 
ATOM     26  C   UNL     1       0.079  -2.753  -0.008  0.00  0.00    +0.063 A 
ATOM     27  C   UNL     1       0.941  -2.087   0.853  0.00  0.00    +0.147 A 
ATOM     28  C   UNL     1       0.985  -0.706   0.851  0.00  0.00    +0.038 A 
BRANCH  27  29
ATOM     29  N   UNL     1       1.815  -2.855   1.768  0.00  0.00    +0.058 N 
ATOM     30  O   UNL     1       2.492  -2.276   2.585  0.00  0.00    -0.126 OA
ATOM     31  O   UNL     1       1.851  -4.061   1.699  0.00  0.00    -0.126 OA
ENDBRANCH  27  29
ENDBRANCH  20  26
ENDBRANCH  18  20
ENDBRANCH   1  18
TORSDOF 6
