REMARK  Name = ZINC44714062
REMARK  9 active torsions:
REMARK  status: ('A' for Active; 'I' for Inactive)
REMARK    1  A    between atoms: C_1  and  C_2
REMARK    2  A    between atoms: C_3  and  C_9
REMARK    3  A    between atoms: C_4  and  C_8
REMARK    4  A    between atoms: C_9  and  C_11
REMARK    5  A    between atoms: C_9  and  N_12
REMARK    6  A    between atoms: C_13  and  C_15
REMARK    7  A    between atoms: C_26  and  C_28
REMARK    8  A    between atoms: C_33  and  O_34
REMARK    9  A    between atoms: O_34  and  C_35
REMARK                            x       y       z     vdW  Elec       q    Type
REMARK                         _______ _______ _______ _____ _____    ______ ____
ROOT
ATOM      1  C   UNL     1      -2.313  -0.645  -5.238  0.00  0.00    +0.100 C 
ATOM      2  C   UNL     1      -3.539  -1.236  -4.508  0.00  0.00    +0.121 C 
ATOM      3  N   UNL     1      -4.649  -0.308  -4.827  0.00  0.00    -0.296 N 
ATOM      4  C   UNL     1      -4.432   0.052  -6.248  0.00  0.00    +0.115 C 
ATOM      5  C   UNL     1      -2.903   0.197  -6.382  0.00  0.00    -0.004 C 
ATOM      6  C   UNL     1      -2.498   1.660  -6.225  0.00  0.00    -0.010 C 
ATOM      7  C   UNL     1      -3.049   2.466  -7.404  0.00  0.00    -0.082 C 
ATOM      8  N   UNL     1      -2.519   1.923  -8.661  0.00  0.00    +0.379 N 
ATOM      9  C   UNL     1      -2.990   0.546  -8.849  0.00  0.00    -0.082 C 
ATOM     10  C   UNL     1      -2.437  -0.342  -7.730  0.00  0.00    -0.010 C 
ATOM     11  C   UNL     1      -5.634   0.114  -4.009  0.00  0.00    +0.252 C 
ATOM     12  O   UNL     1      -6.532   0.807  -4.447  0.00  0.00    -0.270 OA
ATOM     13  H   UNL     1      -2.834   2.493  -9.431  0.00  0.00    -0.086 HD
ATOM     14  H   UNL     1      -1.510   1.931  -8.630  0.00  0.00    -0.086 HD
ENDROOT
BRANCH  11  15
ATOM     15  C   UNL     1      -5.622  -0.264  -2.583  0.00  0.00    +0.099 A 
ATOM     16  C   UNL     1      -5.151  -1.520  -2.183  0.00  0.00    +0.020 A 
ATOM     17  C   UNL     1      -5.160  -1.826  -0.834  0.00  0.00    +0.021 A 
ATOM     18  C   UNL     1      -5.629  -0.892   0.072  0.00  0.00    +0.114 A 
ATOM     19  N   UNL     1      -6.069   0.285  -0.326  0.00  0.00    -0.220 NA
ATOM     20  C   UNL     1      -6.077   0.630  -1.603  0.00  0.00    +0.233 A 
BRANCH  20  21
ATOM     21  O   UNL     1      -6.532   1.853  -1.967  0.00  0.00    -0.437 OA
BRANCH  21  22
ATOM     22  C   UNL     1      -6.862   2.730  -0.983  0.00  0.00    +0.130 A 
ATOM     23  C   UNL     1      -8.196   2.970  -0.685  0.00  0.00    +0.046 A 
ATOM     24  C   UNL     1      -8.529   3.862   0.316  0.00  0.00    +0.004 A 
ATOM     25  C   UNL     1      -7.535   4.514   1.022  0.00  0.00    +0.000 A 
ATOM     26  C   UNL     1      -6.205   4.276   0.727  0.00  0.00    +0.004 A 
ATOM     27  C   UNL     1      -5.867   3.381  -0.269  0.00  0.00    +0.046 A 
ENDBRANCH  21  22
ENDBRANCH  20  21
ENDBRANCH  11  15
BRANCH   1  29
ATOM     28  N   UNL     1      -0.183   0.351  -4.468  0.00  0.00    -0.308 N 
ATOM     29  C   UNL     1      -1.515   0.227  -4.302  0.00  0.00    +0.219 C 
ATOM     30  O   UNL     1      -2.072   0.816  -3.400  0.00  0.00    -0.275 OA
ATOM     31  H   UNL     1       0.262  -0.120  -5.190  0.00  0.00    +0.149 HD
BRANCH  28  32
ATOM     32  C   UNL     1       0.592   1.198  -3.559  0.00  0.00    +0.104 C 
ATOM     33  C   UNL     1       0.458   2.661  -3.986  0.00  0.00    +0.033 C 
BRANCH  32  36
ATOM     34  C   UNL     1       2.258   0.624  -6.144  0.00  0.00    +0.065 C 
ATOM     35  C   UNL     1       2.763   0.543  -4.726  0.00  0.00    +0.038 A 
ATOM     36  C   UNL     1       2.042   0.791  -3.607  0.00  0.00    +0.015 A 
ATOM     37  C   UNL     1       2.882   0.604  -2.504  0.00  0.00    +0.065 A 
ATOM     38  N   UNL     1       4.064   0.256  -2.945  0.00  0.00    -0.179 NA
ATOM     39  N   UNL     1       4.012   0.206  -4.344  0.00  0.00    -0.281 N 
ATOM     40  H   UNL     1       4.745  -0.028  -4.934  0.00  0.00    +0.189 HD
ATOM     41  C   UNL     1       2.493   0.774  -1.058  0.00  0.00    +0.068 C 
ENDBRANCH  32  36
ENDBRANCH  28  32
ENDBRANCH   1  29
TORSDOF 6
