REMARK  Name = ZINC36013839
REMARK  11 active torsions:
REMARK  status: ('A' for Active; 'I' for Inactive)
REMARK    1  A    between atoms: C_1  and  C_2
REMARK    2  A    between atoms: C_2  and  N_3
REMARK    3  A    between atoms: C_4  and  C_23
REMARK    4  A    between atoms: C_5  and  C_18
REMARK    5  A    between atoms: C_6  and  C_11
REMARK    6  A    between atoms: C_15  and  C_17
REMARK    7  A    between atoms: C_18  and  O_20
REMARK    8  A    between atoms: O_20  and  C_21
REMARK    9  A    between atoms: C_21  and  C_22
REMARK   10  A    between atoms: C_23  and  N_24
REMARK   11  A    between atoms: C_31  and  C_33
REMARK                            x       y       z     vdW  Elec       q    Type
REMARK                         _______ _______ _______ _____ _____    ______ ____
ROOT
ATOM      1  N   UNL     1      -1.956  -0.364  -0.151  0.00  0.00    -0.261 N 
ATOM      2  C   UNL     1      -2.356  -0.819   1.073  0.00  0.00    +0.010 C 
ATOM      3  C   UNL     1      -3.503  -1.517   1.216  0.00  0.00    +0.076 C 
ATOM      4  C   UNL     1      -4.330  -1.777  -0.027  0.00  0.00    +0.143 C 
ATOM      5  N   UNL     1      -3.811  -1.244  -1.298  0.00  0.00    -0.288 N 
ATOM      6  C   UNL     1      -2.649  -0.561  -1.279  0.00  0.00    +0.307 C 
ATOM      7  O   UNL     1      -2.213  -0.114  -2.322  0.00  0.00    -0.252 OA
ATOM      8  H   UNL     1      -4.295  -1.378  -2.127  0.00  0.00    +0.151 HD
ENDROOT
BRANCH   4   9
ATOM      9  C   UNL     1      -4.484  -3.269  -0.178  0.00  0.00    -0.022 A 
ATOM     10  C   UNL     1      -3.456  -4.019  -0.718  0.00  0.00    +0.006 A 
ATOM     11  C   UNL     1      -3.597  -5.387  -0.856  0.00  0.00    +0.001 A 
ATOM     12  C   UNL     1      -4.767  -6.005  -0.456  0.00  0.00    +0.003 A 
ATOM     13  C   UNL     1      -5.795  -5.255   0.084  0.00  0.00    -0.050 A 
ATOM     14  C   UNL     1      -5.652  -3.888   0.227  0.00  0.00    +0.009 A 
ATOM     15  C   UNL     1      -7.071  -5.929   0.520  0.00  0.00    +0.044 C 
ENDBRANCH   4   9
BRANCH   1  17
ATOM     16  C   UNL     1      -0.996   1.885  -0.156  0.00  0.00    +0.025 C 
ATOM     17  C   UNL     1      -0.700   0.386  -0.233  0.00  0.00    +0.111 C 
ENDBRANCH   1  17
BRANCH   3  18
ATOM     18  C   UNL     1      -3.919  -1.989   2.483  0.00  0.00    +0.339 C 
ATOM     19  O   UNL     1      -3.277  -1.708   3.478  0.00  0.00    -0.245 OA
BRANCH  18  20
ATOM     20  O   UNL     1      -5.028  -2.752   2.588  0.00  0.00    -0.462 OA
BRANCH  20  21
ATOM     21  C   UNL     1      -5.389  -3.194   3.898  0.00  0.00    +0.229 C 
ATOM     22  C   UNL     1      -6.662  -4.039   3.818  0.00  0.00    +0.048 C 
ENDBRANCH  20  21
ENDBRANCH  18  20
ENDBRANCH   3  18
BRANCH   2  23
ATOM     23  C   UNL     1      -1.504  -0.538   2.284  0.00  0.00    -0.026 C 
BRANCH  23  24
ATOM     24  N   UNL     1      -0.690  -1.720   2.595  0.00  0.00    +0.384 N 
ATOM     25  C   UNL     1      -0.049  -1.511   3.891  0.00  0.00    -0.077 C 
ATOM     26  C   UNL     1       0.167  -2.849   4.563  0.00  0.00    +0.000 C 
ATOM     27  C   UNL     1       1.579  -3.366   4.233  0.00  0.00    +0.106 C 
ATOM     28  N   UNL     1       1.931  -3.087   2.826  0.00  0.00    -0.299 N 
ATOM     29  C   UNL     1       0.986  -3.257   1.742  0.00  0.00    +0.089 C 
ATOM     30  C   UNL     1       0.200  -1.945   1.521  0.00  0.00    -0.059 C 
ATOM     31  C   UNL     1       3.177  -2.659   2.541  0.00  0.00    +0.247 C 
ATOM     32  O   UNL     1       3.459  -2.321   1.408  0.00  0.00    -0.270 OA
ATOM     33  H   UNL     1      -1.304  -2.517   2.671  0.00  0.00    -0.081 HD
BRANCH  31  34
ATOM     34  C   UNL     1       4.199  -2.599   3.606  0.00  0.00    +0.037 A 
ATOM     35  C   UNL     1       4.227  -3.574   4.606  0.00  0.00    +0.016 A 
ATOM     36  C   UNL     1       5.184  -3.514   5.596  0.00  0.00    +0.039 A 
ATOM     37  C   UNL     1       6.116  -2.487   5.602  0.00  0.00    +0.123 A 
ATOM     38  C   UNL     1       6.093  -1.517   4.612  0.00  0.00    +0.039 A 
ATOM     39  C   UNL     1       5.145  -1.571   3.612  0.00  0.00    +0.016 A 
ATOM     40  F   UNL     1       7.051  -2.433   6.576  0.00  0.00    -0.205 F 
ENDBRANCH  31  34
ENDBRANCH  23  24
ENDBRANCH   2  23
TORSDOF 8
