REMARK  Name = ZINC11882483
REMARK  9 active torsions:
REMARK  status: ('A' for Active; 'I' for Inactive)
REMARK    1  A    between atoms: C_1  and  O_2
REMARK    2  A    between atoms: O_2  and  C_3
REMARK    3  A    between atoms: C_3  and  C_5
REMARK    4  A    between atoms: C_8  and  N_22
REMARK    5  A    between atoms: C_11  and  C_12
REMARK    6  A    between atoms: C_11  and  N_57
REMARK    7  A    between atoms: C_17  and  C_18
REMARK    8  A    between atoms: C_23  and  C_25
REMARK    9  A    between atoms: C_34  and  O_35
REMARK                            x       y       z     vdW  Elec       q    Type
REMARK                         _______ _______ _______ _____ _____    ______ ____
ROOT
ATOM      1  C   UNL     1       2.245   0.266   0.438  0.00  0.00    +0.045 C 
ATOM      2  C   UNL     1       1.099   1.132   1.002  0.00  0.00    +0.016 C 
ATOM      3  C   UNL     1      -0.186   0.324   0.728  0.00  0.00    +0.056 C 
ATOM      4  C   UNL     1       0.292  -0.963   0.021  0.00  0.00    -0.055 C 
ATOM      5  N   UNL     1       1.691  -1.086   0.446  0.00  0.00    +0.393 N 
ATOM      6  H   UNL     1       1.737  -1.478   1.394  0.00  0.00    -0.080 HD
ENDROOT
BRANCH   3   7
ATOM      7  N   UNL     1      -1.086   1.081  -0.146  0.00  0.00    -0.310 N 
ATOM      8  C   UNL     1      -2.404   0.799  -0.162  0.00  0.00    +0.248 C 
ATOM      9  O   UNL     1      -2.846  -0.082   0.550  0.00  0.00    -0.270 OA
ATOM     10  H   UNL     1      -0.734   1.784  -0.714  0.00  0.00    +0.149 HD
BRANCH   8  11
ATOM     11  C   UNL     1      -3.309   1.560  -1.041  0.00  0.00    +0.079 A 
ATOM     12  C   UNL     1      -2.793   2.580  -1.863  0.00  0.00    +0.017 A 
ATOM     13  C   UNL     1      -3.606   3.293  -2.681  0.00  0.00    +0.009 A 
ATOM     14  C   UNL     1      -4.987   3.022  -2.720  0.00  0.00    -0.014 A 
ATOM     15  C   UNL     1      -5.843   3.751  -3.562  0.00  0.00    +0.008 A 
ATOM     16  C   UNL     1      -7.175   3.467  -3.579  0.00  0.00    +0.001 A 
ATOM     17  C   UNL     1      -7.705   2.463  -2.773  0.00  0.00    +0.001 A 
ATOM     18  C   UNL     1      -6.905   1.737  -1.944  0.00  0.00    +0.012 A 
ATOM     19  C   UNL     1      -5.527   2.001  -1.900  0.00  0.00    +0.024 A 
ATOM     20  C   UNL     1      -4.670   1.262  -1.058  0.00  0.00    +0.137 A 
BRANCH  20  21
ATOM     21  O   UNL     1      -5.165   0.277  -0.272  0.00  0.00    -0.505 OA
ATOM     22  H   UNL     1      -5.445   0.577   0.604  0.00  0.00    +0.292 HD
ENDBRANCH  20  21
ENDBRANCH   8  11
ENDBRANCH   3   7
BRANCH   1  23
ATOM     23  C   UNL     1       3.461   0.362   1.323  0.00  0.00    +0.293 C 
ATOM     24  O   UNL     1       3.661  -0.478   2.168  0.00  0.00    -0.253 OA
BRANCH  23  26
ATOM     25  C   UNL     1       5.471   1.409   2.059  0.00  0.00    +0.280 C 
ATOM     26  O   UNL     1       4.322   1.380   1.172  0.00  0.00    -0.469 OA
ENDBRANCH  23  26
ENDBRANCH   1  23
BRANCH   5  27
ATOM     27  C   UNL     1       2.445  -1.976  -0.491  0.00  0.00    -0.041 C 
BRANCH  27  28
ATOM     28  C   UNL     1       2.454  -1.338  -1.856  0.00  0.00    -0.052 A 
ATOM     29  C   UNL     1       3.284  -0.263  -2.112  0.00  0.00    +0.002 A 
ATOM     30  C   UNL     1       3.292   0.322  -3.364  0.00  0.00    +0.000 A 
ATOM     31  C   UNL     1       2.470  -0.168  -4.361  0.00  0.00    +0.001 A 
ATOM     32  C   UNL     1       1.640  -1.244  -4.106  0.00  0.00    +0.012 A 
ATOM     33  C   UNL     1       1.635  -1.832  -2.855  0.00  0.00    +0.056 A 
BRANCH  33  34
ATOM     34  C   UNL     1       0.735  -3.008  -2.579  0.00  0.00    +0.418 C 
ATOM     35  F   UNL     1       0.096  -3.394  -3.761  0.00  0.00    -0.166 F 
ATOM     36  F   UNL     1       1.497  -4.075  -2.091  0.00  0.00    -0.166 F 
ATOM     37  F   UNL     1      -0.225  -2.647  -1.627  0.00  0.00    -0.166 F 
ENDBRANCH  33  34
ENDBRANCH  27  28
ENDBRANCH   5  27
TORSDOF 8
