REMARK  Name = ZINC55842674
REMARK  8 active torsions:
REMARK  status: ('A' for Active; 'I' for Inactive)
REMARK    1  A    between atoms: C_1  and  C_2
REMARK    2  A    between atoms: C_4  and  C_20
REMARK    3  A    between atoms: C_7  and  N_8
REMARK    4  A    between atoms: N_8  and  C_9
REMARK    5  A    between atoms: C_9  and  C_10
REMARK    6  A    between atoms: N_12  and  C_13
REMARK    7  A    between atoms: C_16  and  C_19
REMARK    8  A    between atoms: N_22  and  C_23
REMARK                            x       y       z     vdW  Elec       q    Type
REMARK                         _______ _______ _______ _____ _____    ______ ____
ROOT
ATOM      1  N   UNL     1       0.025  -0.015   2.411  0.00  0.00    -0.335 N 
ATOM      2  H   UNL     1       0.012   0.955   2.414  0.00  0.00    +0.147 HD
ENDROOT
BRANCH   1   9
ATOM      3  C   UNL     1      -0.018   1.503   0.010  0.00  0.00    +0.045 C 
ATOM      4  C   UNL     1       0.002  -0.004   0.002  0.00  0.00    -0.029 A 
ATOM      5  C   UNL     1       0.006  -0.685  -1.194  0.00  0.00    +0.018 A 
ATOM      6  C   UNL     1       0.025  -2.083  -1.201  0.00  0.00    +0.037 A 
ATOM      7  C   UNL     1       0.041  -2.784   0.008  0.00  0.00    +0.015 A 
ATOM      8  C   UNL     1       0.037  -2.098   1.201  0.00  0.00    +0.024 A 
ATOM      9  C   UNL     1       0.023  -0.706   1.204  0.00  0.00    +0.030 A 
BRANCH   6  10
ATOM     10  C   UNL     1       0.029  -2.815  -2.481  0.00  0.00    +0.244 C 
ATOM     11  O   UNL     1       0.015  -2.204  -3.532  0.00  0.00    -0.270 OA
ATOM     12  N   UNL     1       0.047  -4.163  -2.486  0.00  0.00    -0.314 N 
ATOM     13  C   UNL     1       0.051  -4.891  -3.758  0.00  0.00    +0.128 C 
ATOM     14  H   UNL     1       0.059  -4.651  -1.648  0.00  0.00    +0.149 HD
ENDBRANCH   6  10
ENDBRANCH   1   9
BRANCH   1  15
ATOM     15  C   UNL     1       0.047  -0.752   3.677  0.00  0.00    +0.197 C 
BRANCH  15  16
ATOM     16  C   UNL     1       0.045   0.223   4.826  0.00  0.00    +0.230 C 
ATOM     17  O   UNL     1       0.026   1.416   4.609  0.00  0.00    -0.274 OA
ATOM     18  N   UNL     1       0.063  -0.230   6.095  0.00  0.00    -0.311 N 
ATOM     19  H   UNL     1       0.077  -1.185   6.268  0.00  0.00    +0.149 HD
BRANCH  18  20
ATOM     20  C   UNL     1       0.061   0.718   7.212  0.00  0.00    +0.073 C 
ATOM     21  C   UNL     1      -1.379   1.124   7.533  0.00  0.00    +0.022 C 
ATOM     22  C   UNL     1      -2.186  -0.118   7.916  0.00  0.00    +0.005 C 
ATOM     23  C   UNL     1      -1.556  -0.777   9.145  0.00  0.00    -0.014 C 
ATOM     24  C   UNL     1      -0.116  -1.183   8.824  0.00  0.00    +0.005 C 
ATOM     25  C   UNL     1       0.691   0.059   8.441  0.00  0.00    +0.022 C 
ATOM     26  C   UNL     1      -2.363  -2.019   9.529  0.00  0.00    +0.007 C 
ENDBRANCH  18  20
ENDBRANCH  15  16
ENDBRANCH   1  15
TORSDOF 5
