REMARK  Name = ZINC20754911
REMARK  9 active torsions:
REMARK  status: ('A' for Active; 'I' for Inactive)
REMARK    1  A    between atoms: C_1  and  C_2
REMARK    2  A    between atoms: C_2  and  O_3
REMARK    3  A    between atoms: O_3  and  C_4
REMARK    4  A    between atoms: C_6  and  C_14
REMARK    5  A    between atoms: C_9  and  O_10
REMARK    6  A    between atoms: O_10  and  C_11
REMARK    7  A    between atoms: C_17  and  C_28
REMARK    8  A    between atoms: C_31  and  O_34
REMARK    9  A    between atoms: O_34  and  C_35
REMARK                            x       y       z     vdW  Elec       q    Type
REMARK                         _______ _______ _______ _____ _____    ______ ____
ROOT
ATOM      1  C   UNL     1      -0.229  -4.969   0.477  0.00  0.00    +0.126 C 
ATOM      2  C   UNL     1      -1.276  -5.877  -0.175  0.00  0.00    +0.086 C 
ATOM      3  C   UNL     1      -1.576  -7.066   0.693  0.00  0.00    +0.054 C 
ATOM      4  N   UNL     1      -0.668  -7.640   1.436  0.00  0.00    -0.218 NA
ATOM      5  C   UNL     1       0.581  -7.103   1.484  0.00  0.00    +0.210 A 
ATOM      6  N   UNL     1       0.831  -5.818   1.030  0.00  0.00    -0.302 N 
ATOM      7  C   UNL     1       2.158  -5.575   1.207  0.00  0.00    +0.069 A 
ATOM      8  C   UNL     1       2.967  -4.481   0.925  0.00  0.00    +0.028 A 
ATOM      9  C   UNL     1       4.309  -4.590   1.251  0.00  0.00    +0.002 A 
ATOM     10  C   UNL     1       4.834  -5.732   1.832  0.00  0.00    +0.002 A 
ATOM     11  C   UNL     1       4.058  -6.827   2.121  0.00  0.00    +0.028 A 
ATOM     12  C   UNL     1       2.696  -6.746   1.802  0.00  0.00    +0.066 A 
ATOM     13  N   UNL     1       1.688  -7.626   1.950  0.00  0.00    -0.324 N 
ATOM     14  H   UNL     1       1.768  -8.509   2.342  0.00  0.00    +0.169 HD
ENDROOT
BRANCH   1  17
ATOM     15  C   UNL     1       0.777  -1.811  -1.336  0.00  0.00    +0.162 A 
ATOM     16  C   UNL     1       0.243  -2.669  -0.388  0.00  0.00    +0.055 A 
ATOM     17  C   UNL     1       0.352  -4.037  -0.555  0.00  0.00    -0.021 A 
ATOM     18  C   UNL     1       0.992  -4.552  -1.667  0.00  0.00    +0.009 A 
ATOM     19  C   UNL     1       1.526  -3.702  -2.616  0.00  0.00    +0.050 A 
ATOM     20  C   UNL     1       1.416  -2.330  -2.458  0.00  0.00    +0.168 A 
BRANCH  15  21
ATOM     21  O   UNL     1       0.671  -0.465  -1.174  0.00  0.00    -0.489 OA
BRANCH  21  23
ATOM     22  C   UNL     1      -0.019   1.526   0.010  0.00  0.00    +0.048 C 
ATOM     23  C   UNL     1       0.002  -0.004   0.002  0.00  0.00    +0.226 C 
ENDBRANCH  21  23
ENDBRANCH  15  21
BRANCH  20  24
ATOM     24  O   UNL     1       1.936  -1.492  -3.394  0.00  0.00    -0.431 OA
BRANCH  24  25
ATOM     25  C   UNL     1       2.578  -2.095  -4.520  0.00  0.00    +0.541 C 
ATOM     26  F   UNL     1       3.650  -2.879  -4.080  0.00  0.00    -0.166 F 
ATOM     27  F   UNL     1       1.661  -2.900  -5.204  0.00  0.00    -0.166 F 
ENDBRANCH  24  25
ENDBRANCH  20  24
ENDBRANCH   1  17
BRANCH   3  28
ATOM     28  C   UNL     1      -2.942  -7.604   0.705  0.00  0.00    -0.003 A 
ATOM     29  C   UNL     1      -3.937  -7.015  -0.086  0.00  0.00    +0.013 A 
ATOM     30  C   UNL     1      -5.216  -7.524  -0.070  0.00  0.00    +0.046 A 
ATOM     31  C   UNL     1      -5.521  -8.620   0.729  0.00  0.00    +0.120 A 
ATOM     32  C   UNL     1      -4.538  -9.208   1.516  0.00  0.00    +0.046 A 
ATOM     33  C   UNL     1      -3.254  -8.712   1.504  0.00  0.00    +0.013 A 
BRANCH  31  34
ATOM     34  O   UNL     1      -6.784  -9.117   0.741  0.00  0.00    -0.495 OA
ATOM     35  C   UNL     1      -7.029 -10.245   1.584  0.00  0.00    +0.277 C 
ENDBRANCH  31  34
ENDBRANCH   3  28
TORSDOF 7
