REMARK  Name = ZINC00752454
REMARK  4 active torsions:
REMARK  status: ('A' for Active; 'I' for Inactive)
REMARK    1  A    between atoms: C_4  and  C_7
REMARK    2  A    between atoms: C_12  and  C_20
REMARK    3  A    between atoms: C_14  and  C_18
REMARK    4  A    between atoms: C_15  and  N_17
REMARK                            x       y       z     vdW  Elec       q    Type
REMARK                         _______ _______ _______ _____ _____    ______ ____
ROOT
ATOM      1  C   UNL     1       2.451   3.937   0.000  0.00  0.00    +0.034 C 
ATOM      2  C   UNL     1       2.535   4.812   1.252  0.00  0.00    +0.083 C 
ATOM      3  C   UNL     1       3.815   5.616   1.225  0.00  0.00    +0.115 C 
ATOM      4  C   UNL     1       4.355   6.005   0.056  0.00  0.00    +0.046 C 
ATOM      5  C   UNL     1       5.632   6.811   0.031  0.00  0.00    +0.101 C 
ATOM      6  C   UNL     1       6.351   6.679   1.344  0.00  0.00    +0.098 C 
ATOM      7  C   UNL     1       5.692   6.245   2.446  0.00  0.00    +0.198 C 
ATOM      8  O   UNL     1       4.389   5.928   2.402  0.00  0.00    -0.445 OA
ATOM      9  C   UNL     1       3.756   5.674  -1.174  0.00  0.00    +0.164 C 
ATOM     10  O   UNL     1       4.262   6.063  -2.208  0.00  0.00    -0.292 OA
ATOM     11  C   UNL     1       2.501   4.846  -1.232  0.00  0.00    +0.088 C 
ENDROOT
BRANCH   5  12
ATOM     12  C   UNL     1       5.300   8.261  -0.213  0.00  0.00    -0.034 A 
ATOM     13  C   UNL     1       4.492   8.944   0.677  0.00  0.00    +0.006 A 
ATOM     14  C   UNL     1       4.192  10.276   0.456  0.00  0.00    +0.020 A 
ATOM     15  C   UNL     1       4.691  10.921  -0.661  0.00  0.00    +0.041 A 
ATOM     16  C   UNL     1       5.494  10.235  -1.555  0.00  0.00    +0.020 A 
ATOM     17  C   UNL     1       5.798   8.905  -1.330  0.00  0.00    +0.006 A 
ATOM     18 CL   UNL     1       4.309  12.591  -0.943  0.00  0.00    -0.084 Cl
ENDBRANCH   5  12
BRANCH   1  22
ATOM     19  C   UNL     1      -1.219   1.751   0.017  0.00  0.00    +0.000 A 
ATOM     20  C   UNL     1      -0.013   1.076   0.008  0.00  0.00    +0.000 A 
ATOM     21  C   UNL     1       1.175   1.783   0.000  0.00  0.00    +0.004 A 
ATOM     22  C   UNL     1       1.156   3.165   0.008  0.00  0.00    -0.043 A 
ATOM     23  C   UNL     1      -0.050   3.840   0.022  0.00  0.00    +0.004 A 
ATOM     24  C   UNL     1      -1.238   3.133   0.029  0.00  0.00    +0.000 A 
ENDBRANCH   1  22
BRANCH   7  25
ATOM     25  N   UNL     1       6.372   6.127   3.633  0.00  0.00    -0.328 N 
ATOM     26  H   UNL     1       5.910   5.817   4.428  0.00  0.00    +0.145 HD
ATOM     27  H   UNL     1       7.314   6.354   3.676  0.00  0.00    +0.145 HD
ENDBRANCH   7  25
BRANCH   6  28
ATOM     28  C   UNL     1       7.741   7.013   1.431  0.00  0.00    +0.101 C 
ATOM     29  N   UNL     1       8.844   7.278   1.500  0.00  0.00    -0.191 NA
ENDBRANCH   6  28
TORSDOF 4
