REMARK  Name = ZINC38942751
REMARK  8 active torsions:
REMARK  status: ('A' for Active; 'I' for Inactive)
REMARK    1  A    between atoms: C_1  and  C_2
REMARK    2  A    between atoms: C_2  and  C_3
REMARK    3  A    between atoms: C_2  and  C_4
REMARK    4  A    between atoms: C_4  and  N_5
REMARK    5  A    between atoms: C_9  and  N_19
REMARK    6  A    between atoms: C_14  and  C_17
REMARK    7  A    between atoms: C_14  and  C_18
REMARK    8  A    between atoms: C_20  and  C_22
REMARK                            x       y       z     vdW  Elec       q    Type
REMARK                         _______ _______ _______ _____ _____    ______ ____
ROOT
ATOM      1  N   UNL     1       2.171   0.238  -1.659  0.00  0.00    -0.267 N 
ATOM      2  C   UNL     1       2.568   1.565  -1.882  0.00  0.00    +0.078 A 
ATOM      3  C   UNL     1       1.710   2.615  -1.595  0.00  0.00    +0.029 A 
ATOM      4  C   UNL     1       2.112   3.917  -1.823  0.00  0.00    +0.025 A 
ATOM      5  C   UNL     1       3.375   4.175  -2.340  0.00  0.00    +0.037 A 
ATOM      6  C   UNL     1       4.238   3.126  -2.627  0.00  0.00    +0.070 A 
ATOM      7  C   UNL     1       3.838   1.821  -2.397  0.00  0.00    +0.144 A 
ATOM      8  O   UNL     1       4.679   0.787  -2.662  0.00  0.00    -0.489 OA
ATOM      9  C   UNL     1       5.303   0.153  -1.548  0.00  0.00    +0.244 C 
ATOM     10  C   UNL     1       4.292  -0.070  -0.425  0.00  0.00    +0.076 C 
ATOM     11  C   UNL     1       2.996  -0.595  -0.986  0.00  0.00    +0.229 C 
ATOM     12  O   UNL     1       2.696  -1.761  -0.837  0.00  0.00    -0.275 OA
ATOM     13  C   UNL     1       4.030   1.257   0.291  0.00  0.00    +0.024 C 
ATOM     14  C   UNL     1       4.858  -1.080   0.574  0.00  0.00    +0.024 C 
ENDROOT
BRANCH   5  15
ATOM     15  N   UNL     1       3.779   5.496  -2.572  0.00  0.00    -0.285 N 
ATOM     16  C   UNL     1       4.593   5.779  -3.608  0.00  0.00    +0.229 C 
ATOM     17  O   UNL     1       4.905   4.907  -4.391  0.00  0.00    -0.274 OA
ATOM     18  H   UNL     1       3.472   6.207  -1.988  0.00  0.00    +0.155 HD
BRANCH  16  19
ATOM     19  C   UNL     1       5.116   7.180  -3.794  0.00  0.00    +0.142 C 
ATOM     20  C   UNL     1       3.957   8.128  -3.945  0.00  0.00    +0.011 A 
ATOM     21  C   UNL     1       3.254   8.524  -2.821  0.00  0.00    +0.008 A 
ATOM     22  C   UNL     1       2.187   9.394  -2.939  0.00  0.00    +0.001 A 
ATOM     23  C   UNL     1       1.818   9.872  -4.183  0.00  0.00    +0.004 A 
ATOM     24  C   UNL     1       2.516   9.480  -5.308  0.00  0.00    +0.046 A 
ATOM     25  C   UNL     1       3.590   8.605  -5.192  0.00  0.00    +0.133 A 
ATOM     26  O   UNL     1       4.263   8.233  -6.307  0.00  0.00    -0.455 OA
ATOM     27  C   UNL     1       5.524   7.748  -6.208  0.00  0.00    +0.133 A 
ATOM     28  C   UNL     1       5.995   7.225  -5.014  0.00  0.00    +0.011 A 
ATOM     29  C   UNL     1       7.288   6.737  -4.938  0.00  0.00    +0.008 A 
ATOM     30  C   UNL     1       8.110   6.770  -6.048  0.00  0.00    +0.001 A 
ATOM     31  C   UNL     1       7.643   7.292  -7.240  0.00  0.00    +0.004 A 
ATOM     32  C   UNL     1       6.354   7.780  -7.323  0.00  0.00    +0.046 A 
ENDBRANCH  16  19
ENDBRANCH   5  15
BRANCH   1  33
ATOM     33  C   UNL     1       0.874  -0.239  -2.145  0.00  0.00    +0.116 C 
BRANCH  33  35
ATOM     34  C   UNL     1       1.936  -1.872  -3.710  0.00  0.00    +0.009 C 
ATOM     35  C   UNL     1       1.003  -0.663  -3.610  0.00  0.00    +0.001 C 
ATOM     36  C   UNL     1      -0.376  -1.038  -4.155  0.00  0.00    +0.009 C 
ENDBRANCH  33  35
ENDBRANCH   1  33
TORSDOF 4
