REMARK  Name = ZINC22673664
REMARK  5 active torsions:
REMARK  status: ('A' for Active; 'I' for Inactive)
REMARK    1  A    between atoms: C_1  and  C_2
REMARK    2  A    between atoms: C_5  and  C_19
REMARK    3  A    between atoms: C_7  and  N_8
REMARK    4  A    between atoms: C_9  and  C_11
REMARK    5  A    between atoms: C_11  and  C_12
REMARK                            x       y       z     vdW  Elec       q    Type
REMARK                         _______ _______ _______ _____ _____    ______ ____
ROOT
ATOM      1  C   UNL     1       1.975  -2.054  -3.071  0.00  0.00    +0.045 C 
ATOM      2  C   UNL     1       1.330  -2.779  -1.918  0.00  0.00    -0.029 A 
ATOM      3  C   UNL     1       1.417  -4.156  -1.835  0.00  0.00    +0.006 A 
ATOM      4  C   UNL     1       0.823  -4.827  -0.786  0.00  0.00    +0.012 A 
ATOM      5  C   UNL     1       0.137  -4.115   0.200  0.00  0.00    +0.022 A 
ATOM      6  C   UNL     1       0.055  -2.725   0.119  0.00  0.00    +0.035 A 
ATOM      7  C   UNL     1       0.654  -2.060  -0.939  0.00  0.00    +0.037 A 
ENDROOT
BRANCH   5   8
ATOM      8  C   UNL     1      -0.499  -4.832   1.325  0.00  0.00    +0.171 A 
ATOM      9  C   UNL     1       0.066  -5.768   2.121  0.00  0.00    +0.022 A 
ATOM     10  C   UNL     1      -0.958  -6.130   3.026  0.00  0.00    +0.087 A 
ATOM     11  N   UNL     1      -1.993  -5.422   2.712  0.00  0.00    -0.082 NA
ATOM     12  O   UNL     1      -1.767  -4.691   1.769  0.00  0.00    -0.354 OA
ATOM     13  C   UNL     1      -0.775  -7.163   4.106  0.00  0.00    +0.059 C 
ATOM     14  C   UNL     1       0.474  -7.991   3.766  0.00  0.00    +0.007 C 
ATOM     15  C   UNL     1       1.653  -7.058   3.483  0.00  0.00    +0.005 C 
ATOM     16  C   UNL     1       1.448  -6.354   2.134  0.00  0.00    +0.041 C 
ENDBRANCH   5   8
BRANCH   7  17
ATOM     17  N   UNL     1       0.575  -0.665  -1.024  0.00  0.00    -0.285 N 
ATOM     18  C   UNL     1      -0.442  -0.011  -0.429  0.00  0.00    +0.222 C 
ATOM     19  O   UNL     1      -1.341  -0.635   0.094  0.00  0.00    -0.275 OA
ATOM     20  H   UNL     1       1.342  -0.103  -1.578  0.00  0.00    +0.155 HD
BRANCH  18  21
ATOM     21  C   UNL     1      -0.461   1.496  -0.412  0.00  0.00    +0.131 C 
BRANCH  21  22
ATOM     22  C   UNL     1      -1.694   1.975   0.309  0.00  0.00    -0.038 A 
ATOM     23  C   UNL     1      -2.862   2.203  -0.395  0.00  0.00    +0.007 A 
ATOM     24  C   UNL     1      -3.994   2.638   0.267  0.00  0.00    +0.038 A 
ATOM     25  C   UNL     1      -3.957   2.854   1.634  0.00  0.00    +0.123 A 
ATOM     26  C   UNL     1      -2.786   2.630   2.337  0.00  0.00    +0.038 A 
ATOM     27  C   UNL     1      -1.656   2.191   1.674  0.00  0.00    +0.007 A 
ATOM     28  F   UNL     1      -5.063   3.284   2.280  0.00  0.00    -0.205 F 
ENDBRANCH  21  22
ENDBRANCH  18  21
ENDBRANCH   7  17
TORSDOF 4
