REMARK  Name = ZINC17170144
REMARK  5 active torsions:
REMARK  status: ('A' for Active; 'I' for Inactive)
REMARK    1  A    between atoms: C_3  and  S_6
REMARK    2  A    between atoms: S_6  and  N_9
REMARK    3  A    between atoms: C_16  and  N_19
REMARK    4  A    between atoms: N_19  and  S_20
REMARK    5  A    between atoms: S_20  and  C_23
REMARK                            x       y       z     vdW  Elec       q    Type
REMARK                         _______ _______ _______ _____ _____    ______ ____
ROOT
ATOM      1  N   UNL     1       1.663  -1.879   0.015  0.00  0.00    -0.202 N 
ATOM      2  C   UNL     1       3.032  -2.411  -0.010  0.00  0.00    +0.132 C 
ATOM      3  C   UNL     1       3.931  -1.428   0.751  0.00  0.00    +0.025 C 
ATOM      4  C   UNL     1       3.934  -0.089   0.014  0.00  0.00    +0.038 C 
ATOM      5  C   UNL     1       2.524   0.370  -0.251  0.00  0.00    -0.025 A 
ATOM      6  C   UNL     1       1.460  -0.519  -0.247  0.00  0.00    +0.056 A 
ATOM      7  C   UNL     1       0.172  -0.066  -0.502  0.00  0.00    +0.049 A 
ATOM      8  C   UNL     1      -0.052   1.279  -0.758  0.00  0.00    +0.050 A 
ATOM      9  C   UNL     1       1.017   2.168  -0.758  0.00  0.00    +0.025 A 
ATOM     10  C   UNL     1       2.295   1.713  -0.506  0.00  0.00    +0.007 A 
ENDROOT
BRANCH   1  11
ATOM     11  S   UNL     1       0.380  -2.872   0.350  0.00  0.00    +0.081 S 
ATOM     12  O   UNL     1       0.920  -4.050   0.932  0.00  0.00    -0.149 OA
ATOM     13  O   UNL     1      -0.591  -2.071   1.010  0.00  0.00    -0.149 OA
BRANCH  11  16
ATOM     14  C   UNL     1      -0.720  -4.596  -3.156  0.00  0.00    +0.010 A 
ATOM     15  C   UNL     1      -0.029  -4.417  -1.972  0.00  0.00    +0.036 A 
ATOM     16  C   UNL     1      -0.326  -3.349  -1.192  0.00  0.00    +0.146 A 
ATOM     17  S   UNL     1      -1.622  -2.557  -2.129  0.00  0.00    -0.077 S 
ATOM     18  C   UNL     1      -1.675  -3.697  -3.501  0.00  0.00    +0.047 A 
ENDBRANCH  11  16
ENDBRANCH   1  11
BRANCH   8  19
ATOM     19  N   UNL     1      -1.345   1.737  -1.020  0.00  0.00    -0.216 N 
ATOM     20  H   UNL     1      -1.603   1.968  -1.926  0.00  0.00    +0.174 HD
BRANCH  19  21
ATOM     21  S   UNL     1      -2.437   1.887   0.216  0.00  0.00    +0.079 S 
ATOM     22  O   UNL     1      -3.621   2.429  -0.351  0.00  0.00    -0.149 OA
ATOM     23  O   UNL     1      -2.425   0.652   0.920  0.00  0.00    -0.149 OA
BRANCH  21  24
ATOM     24  C   UNL     1      -1.806   3.104   1.324  0.00  0.00    +0.147 A 
ATOM     25  C   UNL     1      -1.930   4.452   1.270  0.00  0.00    +0.038 A 
ATOM     26  C   UNL     1      -1.345   5.219   2.261  0.00  0.00    +0.030 A 
ATOM     27  C   UNL     1      -0.665   4.599   3.257  0.00  0.00    +0.080 A 
ATOM     28  S   UNL     1      -0.846   2.879   2.812  0.00  0.00    -0.057 S 
ATOM     29 CL   UNL     1       0.160   5.295   4.617  0.00  0.00    -0.076 Cl
ENDBRANCH  21  24
ENDBRANCH  19  21
ENDBRANCH   8  19
TORSDOF 5
