REMARK  Name = ZINC14186349
REMARK  9 active torsions:
REMARK  status: ('A' for Active; 'I' for Inactive)
REMARK    1  A    between atoms: C_1  and  C_2
REMARK    2  A    between atoms: C_2  and  O_3
REMARK    3  A    between atoms: O_3  and  C_4
REMARK    4  A    between atoms: C_4  and  C_6
REMARK    5  A    between atoms: C_7  and  C_37
REMARK    6  A    between atoms: C_14  and  C_15
REMARK    7  A    between atoms: C_18  and  N_20
REMARK    8  A    between atoms: C_23  and  C_26
REMARK    9  A    between atoms: C_28  and  C_30
REMARK                            x       y       z     vdW  Elec       q    Type
REMARK                         _______ _______ _______ _____ _____    ______ ____
ROOT
ATOM      1  C   UNL     1       2.890  -2.502  -0.553  0.00  0.00    +0.085 C 
ATOM      2  C   UNL     1       3.857  -1.592  -0.224  0.00  0.00    +0.053 C 
ATOM      3  N   UNL     1       3.540  -0.329   0.023  0.00  0.00    -0.228 NA
ATOM      4  C   UNL     1       2.324   0.159  -0.020  0.00  0.00    +0.178 A 
ATOM      5  N   UNL     1       1.209  -0.584  -0.330  0.00  0.00    -0.275 N 
ATOM      6  C   UNL     1       0.021   0.034  -0.341  0.00  0.00    +0.268 A 
ATOM      7  O   UNL     1      -1.000  -0.575  -0.609  0.00  0.00    -0.266 OA
ATOM      8  C   UNL     1      -0.015   1.416  -0.032  0.00  0.00    +0.084 A 
ATOM      9  C   UNL     1      -1.095   2.272   0.020  0.00  0.00    +0.067 C 
ATOM     10  S   UNL     1       1.712   1.754   0.264  0.00  0.00    -0.046 S 
ATOM     11  C   UNL     1       1.458  -2.022  -0.625  0.00  0.00    +0.162 C 
ATOM     12  C   UNL     1       5.297  -2.030  -0.141  0.00  0.00    +0.066 C 
ENDROOT
BRANCH  11  13
ATOM     13  C   UNL     1       0.645  -2.842   0.344  0.00  0.00    -0.020 A 
ATOM     14  C   UNL     1       0.544  -2.450   1.666  0.00  0.00    +0.007 A 
ATOM     15  C   UNL     1      -0.206  -3.198   2.553  0.00  0.00    +0.020 A 
ATOM     16  C   UNL     1      -0.848  -4.345   2.120  0.00  0.00    +0.041 A 
ATOM     17  C   UNL     1      -0.742  -4.740   0.798  0.00  0.00    +0.020 A 
ATOM     18  C   UNL     1       0.004  -3.988  -0.089  0.00  0.00    +0.007 A 
ATOM     19 CL   UNL     1      -1.784  -5.290   3.236  0.00  0.00    -0.084 Cl
ENDBRANCH  11  13
BRANCH   9  20
ATOM     20  C   UNL     1      -2.402   1.762  -0.083  0.00  0.00    +0.131 A 
ATOM     21  C   UNL     1      -3.563   2.511  -0.183  0.00  0.00    +0.051 A 
ATOM     22  C   UNL     1      -4.621   1.602  -0.262  0.00  0.00    +0.066 A 
ATOM     23  C   UNL     1      -4.081   0.349  -0.208  0.00  0.00    +0.189 A 
ATOM     24  O   UNL     1      -2.747   0.455  -0.106  0.00  0.00    -0.442 OA
BRANCH  23  25
ATOM     25  N   UNL     1      -4.791  -0.834  -0.257  0.00  0.00    -0.301 N 
ATOM     26  C   UNL     1      -5.628  -0.896  -1.462  0.00  0.00    +0.108 C 
ATOM     27  C   UNL     1      -6.506  -2.148  -1.410  0.00  0.00    +0.022 C 
ATOM     28  C   UNL     1      -5.613  -3.389  -1.322  0.00  0.00    -0.011 C 
ATOM     29  C   UNL     1      -4.718  -3.276  -0.085  0.00  0.00    +0.022 C 
ATOM     30  C   UNL     1      -3.891  -1.991  -0.175  0.00  0.00    +0.108 C 
ATOM     31  C   UNL     1      -6.485  -4.641  -1.209  0.00  0.00    +0.007 C 
ENDBRANCH  23  25
ENDBRANCH   9  20
BRANCH   1  32
ATOM     32  C   UNL     1       3.217  -3.841  -0.816  0.00  0.00    +0.339 C 
ATOM     33  O   UNL     1       4.377  -4.209  -0.752  0.00  0.00    -0.245 OA
BRANCH  32  34
ATOM     34  O   UNL     1       2.246  -4.723  -1.140  0.00  0.00    -0.462 OA
BRANCH  34  36
ATOM     35  C   UNL     1       1.423  -6.914  -1.742  0.00  0.00    +0.048 C 
ATOM     36  C   UNL     1       2.651  -6.069  -1.395  0.00  0.00    +0.229 C 
ENDBRANCH  34  36
ENDBRANCH  32  34
ENDBRANCH   1  32
TORSDOF 6
