REMARK  Name = ZINC09380017
REMARK  10 active torsions:
REMARK  status: ('A' for Active; 'I' for Inactive)
REMARK    1  A    between atoms: C_1  and  C_2
REMARK    2  A    between atoms: C_2  and  C_3
REMARK    3  A    between atoms: C_3  and  C_4
REMARK    4  A    between atoms: C_4  and  C_5
REMARK    5  A    between atoms: C_5  and  O_6
REMARK    6  A    between atoms: O_6  and  C_7
REMARK    7  A    between atoms: C_10  and  C_13
REMARK    8  A    between atoms: C_18  and  C_22
REMARK    9  A    between atoms: C_18  and  C_23
REMARK   10  A    between atoms: C_32  and  C_34
REMARK                            x       y       z     vdW  Elec       q    Type
REMARK                         _______ _______ _______ _____ _____    ______ ____
ROOT
ATOM      1  C   UNL     1       1.779   4.105   1.288  0.00  0.00    +0.147 C 
ATOM      2  C   UNL     1       3.255   3.840   1.465  0.00  0.00    +0.037 C 
ATOM      3  C   UNL     1       3.982   2.941   0.779  0.00  0.00    +0.017 C 
ATOM      4  C   UNL     1       5.469   2.784   1.050  0.00  0.00    +0.058 C 
ATOM      5  C   UNL     1       5.762   3.066   2.522  0.00  0.00    -0.023 C 
ATOM      6  C   UNL     1       5.314   4.502   2.821  0.00  0.00    +0.086 C 
ATOM      7  C   UNL     1       3.865   4.635   2.464  0.00  0.00    +0.163 C 
ATOM      8  O   UNL     1       3.189   5.455   3.053  0.00  0.00    -0.292 OA
ATOM      9  C   UNL     1       4.984   2.086   3.403  0.00  0.00    +0.011 C 
ATOM     10  C   UNL     1       7.263   2.925   2.788  0.00  0.00    +0.011 C 
ATOM     11  N   UNL     1       3.490   2.130  -0.192  0.00  0.00    -0.316 N 
ATOM     12  C   UNL     1       2.315   1.396  -0.096  0.00  0.00    +0.053 A 
ATOM     13  C   UNL     1       2.302   0.011  -0.110  0.00  0.00    +0.025 A 
ATOM     14  C   UNL     1       1.091  -0.657  -0.073  0.00  0.00    +0.002 A 
ATOM     15  C   UNL     1      -0.096   0.051  -0.033  0.00  0.00    +0.002 A 
ATOM     16  C   UNL     1      -0.086   1.435  -0.008  0.00  0.00    +0.025 A 
ATOM     17  C   UNL     1       1.126   2.106  -0.018  0.00  0.00    +0.059 A 
ATOM     18  N   UNL     1       1.193   3.494   0.114  0.00  0.00    -0.251 N 
ATOM     19  C   UNL     1       0.704   4.278  -0.868  0.00  0.00    +0.325 C 
ATOM     20  O   UNL     1       0.757   5.485  -0.763  0.00  0.00    -0.265 OA
ATOM     21  H   UNL     1       3.997   2.058  -1.016  0.00  0.00    +0.152 HD
ENDROOT
BRANCH   1  25
ATOM     22  C   UNL     1      -0.279   2.649   4.739  0.00  0.00    +0.121 A 
ATOM     23  C   UNL     1       0.406   1.768   3.916  0.00  0.00    +0.046 A 
ATOM     24  C   UNL     1       1.071   2.241   2.800  0.00  0.00    +0.009 A 
ATOM     25  C   UNL     1       1.053   3.591   2.505  0.00  0.00    -0.022 A 
ATOM     26  C   UNL     1       0.376   4.473   3.328  0.00  0.00    +0.009 A 
ATOM     27  C   UNL     1      -0.295   4.004   4.441  0.00  0.00    +0.046 A 
BRANCH  22  28
ATOM     28  O   UNL     1      -0.933   2.187   5.837  0.00  0.00    -0.492 OA
BRANCH  28  29
ATOM     29  C   UNL     1      -1.617   3.151   6.639  0.00  0.00    +0.229 C 
BRANCH  29  30
ATOM     30  C   UNL     1      -2.288   2.448   7.821  0.00  0.00    +0.041 C 
BRANCH  30  31
ATOM     31  C   UNL     1      -3.021   3.481   8.680  0.00  0.00    +0.003 C 
BRANCH  31  33
ATOM     32  C   UNL     1      -4.424   3.811  10.720  0.00  0.00    +0.004 C 
ATOM     33  C   UNL     1      -3.692   2.778   9.861  0.00  0.00    -0.003 C 
ENDBRANCH  31  33
ENDBRANCH  30  31
ENDBRANCH  29  30
ENDBRANCH  28  29
ENDBRANCH  22  28
ENDBRANCH   1  25
BRANCH  19  34
ATOM     34  C   UNL     1       0.092   3.655  -2.095  0.00  0.00    +0.470 C 
ATOM     35  F   UNL     1      -0.341   4.662  -2.964  0.00  0.00    -0.162 F 
ATOM     36  F   UNL     1       1.046   2.861  -2.740  0.00  0.00    -0.162 F 
ATOM     37  F   UNL     1      -0.999   2.862  -1.721  0.00  0.00    -0.162 F 
ENDBRANCH  19  34
TORSDOF 7
