REMARK  Name = ZINC20410550
REMARK  5 active torsions:
REMARK  status: ('A' for Active; 'I' for Inactive)
REMARK    1  A    between atoms: C_1  and  C_2
REMARK    2  A    between atoms: C_4  and  C_30
REMARK    3  A    between atoms: C_5  and  N_9
REMARK    4  A    between atoms: C_6  and  C_8
REMARK    5  A    between atoms: C_12  and  C_19
REMARK                            x       y       z     vdW  Elec       q    Type
REMARK                         _______ _______ _______ _____ _____    ______ ____
ROOT
ATOM      1  N   UNL     1       0.059  -4.172  -0.021  0.00  0.00    -0.228 N 
ATOM      2  C   UNL     1      -1.103  -4.856  -0.024  0.00  0.00    +0.267 A 
ATOM      3  O   UNL     1      -2.166  -4.260  -0.020  0.00  0.00    -0.267 OA
ATOM      4  C   UNL     1      -1.079  -6.262  -0.032  0.00  0.00    +0.072 A 
ATOM      5  C   UNL     1       0.124  -6.904  -0.037  0.00  0.00    +0.260 A 
ATOM      6  N   UNL     1       1.282  -6.169  -0.033  0.00  0.00    -0.274 N 
ATOM      7  H   UNL     1       2.140  -6.621  -0.037  0.00  0.00    +0.173 HD
ATOM      8  C   UNL     1       1.236  -4.824  -0.031  0.00  0.00    +0.337 A 
ATOM      9  O   UNL     1       2.272  -4.189  -0.033  0.00  0.00    -0.246 OA
ATOM     10  O   UNL     1       0.174  -8.253  -0.044  0.00  0.00    -0.267 OA
ENDROOT
BRANCH   4  11
ATOM     11  C   UNL     1      -2.365  -7.047  -0.035  0.00  0.00    +0.001 C 
ATOM     12  C   UNL     1      -3.094  -6.811   1.261  0.00  0.00    -0.054 A 
ATOM     13  C   UNL     1      -2.360  -6.772   2.437  0.00  0.00    +0.002 A 
ATOM     14  C   UNL     1      -2.991  -6.561   3.646  0.00  0.00    +0.000 A 
ATOM     15  C   UNL     1      -4.362  -6.388   3.687  0.00  0.00    +0.000 A 
ATOM     16  C   UNL     1      -5.094  -6.425   2.517  0.00  0.00    +0.004 A 
ATOM     17  C   UNL     1      -4.461  -6.636   1.302  0.00  0.00    -0.047 A 
ATOM     18  C   UNL     1      -5.295  -6.662   0.047  0.00  0.00    +0.016 C 
ATOM     19  C   UNL     1      -4.495  -7.293  -1.093  0.00  0.00    -0.077 C 
ATOM     20  N   UNL     1      -3.187  -6.625  -1.173  0.00  0.00    +0.387 N 
ATOM     21  H   UNL     1      -3.316  -5.624  -1.143  0.00  0.00    -0.085 HD
ATOM     22  H   UNL     1      -2.729  -6.881  -2.035  0.00  0.00    -0.085 HD
ENDBRANCH   4  11
BRANCH   1  27
ATOM     23  C   UNL     1      -0.018   1.503   0.010  0.00  0.00    +0.044 C 
ATOM     24  C   UNL     1       0.002  -0.004   0.002  0.00  0.00    -0.050 A 
ATOM     25  C   UNL     1       0.006  -0.688  -1.200  0.00  0.00    +0.008 A 
ATOM     26  C   UNL     1       0.025  -2.068  -1.211  0.00  0.00    -0.026 A 
ATOM     27  C   UNL     1       0.040  -2.771  -0.013  0.00  0.00    +0.060 A 
ATOM     28  C   UNL     1       0.037  -2.082   1.192  0.00  0.00    -0.026 A 
ATOM     29  C   UNL     1       0.023  -0.700   1.196  0.00  0.00    +0.008 A 
ATOM     30  C   UNL     1       0.054  -2.840   2.494  0.00  0.00    +0.046 C 
ATOM     31  C   UNL     1       0.028  -2.812  -2.522  0.00  0.00    +0.046 C 
ENDBRANCH   1  27
TORSDOF 2
