REMARK  Name = ZINC13445958
REMARK  10 active torsions:
REMARK  status: ('A' for Active; 'I' for Inactive)
REMARK    1  A    between atoms: C_1  and  O_2
REMARK    2  A    between atoms: O_2  and  C_3
REMARK    3  A    between atoms: C_5  and  C_30
REMARK    4  A    between atoms: C_8  and  O_9
REMARK    5  A    between atoms: O_9  and  C_10
REMARK    6  A    between atoms: C_10  and  C_11
REMARK    7  A    between atoms: N_16  and  S_19
REMARK    8  A    between atoms: S_19  and  C_22
REMARK    9  A    between atoms: C_25  and  C_28
REMARK   10  A    between atoms: C_30  and  C_31
REMARK                            x       y       z     vdW  Elec       q    Type
REMARK                         _______ _______ _______ _____ _____    ______ ____
ROOT
ATOM      1  C   UNL     1       1.030   3.513   0.011  0.00  0.00    +0.253 C 
ATOM      2  O   UNL     1      -0.097   3.961   0.024  0.00  0.00    -0.272 OA
ATOM      3  N   UNL     1       2.088   4.348   0.005  0.00  0.00    -0.296 N 
ATOM      4  C   UNL     1       3.459   3.819  -0.004  0.00  0.00    +0.125 C 
ATOM      5  C   UNL     1       4.204   4.423  -1.207  0.00  0.00    +0.128 C 
ATOM      6  N   UNL     1       4.006   5.879  -1.198  0.00  0.00    -0.174 NA
ATOM      7  C   UNL     1       2.635   6.408  -1.182  0.00  0.00    +0.128 C 
ATOM      8  C   UNL     1       1.891   5.805   0.015  0.00  0.00    +0.125 C 
ENDROOT
BRANCH   6   9
ATOM      9  S   UNL     1       5.306   6.906  -1.203  0.00  0.00    +0.061 S 
ATOM     10  O   UNL     1       6.391   6.183  -1.768  0.00  0.00    -0.153 OA
ATOM     11  O   UNL     1       4.848   8.138  -1.743  0.00  0.00    -0.153 OA
BRANCH   9  12
ATOM     12  C   UNL     1       5.730   7.219   0.478  0.00  0.00    +0.106 A 
ATOM     13  C   UNL     1       5.156   8.286   1.145  0.00  0.00    +0.029 A 
ATOM     14  C   UNL     1       5.480   8.534   2.463  0.00  0.00    +0.017 A 
ATOM     15  C   UNL     1       6.397   7.712   3.120  0.00  0.00    +0.063 A 
ATOM     16  C   UNL     1       6.976   6.639   2.439  0.00  0.00    +0.017 A 
ATOM     17  C   UNL     1       6.639   6.399   1.123  0.00  0.00    +0.029 A 
BRANCH  15  18
ATOM     18  C   UNL     1       6.752   7.974   4.530  0.00  0.00    +0.387 C 
ATOM     19  O   UNL     1       7.550   7.256   5.099  0.00  0.00    -0.241 OA
ATOM     20  O   UNL     1       6.191   9.010   5.184  0.00  0.00    -0.241 OA
ENDBRANCH  15  18
ENDBRANCH   9  12
ENDBRANCH   6   9
BRANCH   1  21
ATOM     21  C   UNL     1       1.248   2.022   0.001  0.00  0.00    +0.324 C 
BRANCH  21  22
ATOM     22  O   UNL     1      -0.016   1.356   0.009  0.00  0.00    -0.479 OA
BRANCH  22  28
ATOM     23  C   UNL     1      -1.192  -0.718   0.015  0.00  0.00    +0.162 A 
ATOM     24  C   UNL     1      -1.168  -2.103   0.002  0.00  0.00    +0.053 A 
ATOM     25  C   UNL     1       0.041  -2.773  -0.013  0.00  0.00    -0.040 A 
ATOM     26  C   UNL     1       1.227  -2.064  -0.021  0.00  0.00    +0.008 A 
ATOM     27  C   UNL     1       1.210  -0.682  -0.013  0.00  0.00    +0.050 A 
ATOM     28  C   UNL     1       0.002  -0.004   0.002  0.00  0.00    +0.163 A 
BRANCH  23  30
ATOM     29  C   UNL     1      -3.567  -0.855   0.049  0.00  0.00    +0.277 C 
ATOM     30  O   UNL     1      -2.381  -0.057   0.036  0.00  0.00    -0.491 OA
ENDBRANCH  23  30
BRANCH  25  31
ATOM     31  C   UNL     1       0.065  -4.280  -0.022  0.00  0.00    +0.061 C 
BRANCH  31  32
ATOM     32  C   UNL     1       0.087  -4.790   1.396  0.00  0.00    -0.030 C 
ATOM     33  C   UNL     1      -0.825  -5.639   1.800  0.00  0.00    +0.004 C 
ENDBRANCH  31  32
ENDBRANCH  25  31
ENDBRANCH  22  28
ENDBRANCH  21  22
ENDBRANCH   1  21
TORSDOF 9
