REMARK  Name = ZINC35747147
REMARK  14 active torsions:
REMARK  status: ('A' for Active; 'I' for Inactive)
REMARK    1  A    between atoms: C_1  and  C_2
REMARK    2  A    between atoms: C_5  and  C_9
REMARK    3  A    between atoms: C_7  and  C_8
REMARK    4  A    between atoms: C_18  and  C_20
REMARK    5  A    between atoms: C_20  and  N_21
REMARK    6  A    between atoms: N_21  and  C_22
REMARK    7  A    between atoms: N_21  and  C_29
REMARK    8  A    between atoms: C_22  and  C_23
REMARK    9  A    between atoms: C_29  and  C_30
REMARK   10  A    between atoms: C_30  and  C_32
REMARK   11  A    between atoms: C_30  and  O_37
REMARK   12  A    between atoms: C_32  and  O_33
REMARK   13  A    between atoms: O_33  and  C_34
REMARK   14  A    between atoms: C_34  and  C_35
REMARK                            x       y       z     vdW  Elec       q    Type
REMARK                         _______ _______ _______ _____ _____    ______ ____
ROOT
ATOM      1  C   UNL     1      -0.579  -4.925   1.595  0.00  0.00    +0.004 A 
ATOM      2  C   UNL     1       0.269  -5.744   2.262  0.00  0.00    +0.056 A 
ATOM      3  S   UNL     1       0.044  -7.317   1.455  0.00  0.00    -0.076 S 
ATOM      4  C   UNL     1      -1.172  -6.843   0.253  0.00  0.00    +0.116 A 
ATOM      5  C   UNL     1      -1.379  -5.478   0.509  0.00  0.00    +0.080 A 
ATOM      6  C   UNL     1      -2.338  -4.828  -0.332  0.00  0.00    +0.260 A 
ATOM      7  O   UNL     1      -2.582  -3.642  -0.190  0.00  0.00    -0.267 OA
ATOM      8  N   UNL     1      -2.964  -5.545  -1.283  0.00  0.00    -0.312 N 
ATOM      9  H   UNL     1      -3.615  -5.110  -1.856  0.00  0.00    +0.170 HD
ATOM     10  C   UNL     1      -2.703  -6.866  -1.456  0.00  0.00    +0.094 A 
ATOM     11  N   UNL     1      -1.827  -7.485  -0.711  0.00  0.00    -0.229 NA
ENDROOT
BRANCH   1  16
ATOM     12  C   UNL     1      -1.035   0.631   3.038  0.00  0.00    +0.044 C 
ATOM     13  C   UNL     1      -0.915  -0.823   2.660  0.00  0.00    -0.048 A 
ATOM     14  C   UNL     1      -0.722  -1.178   1.337  0.00  0.00    +0.004 A 
ATOM     15  C   UNL     1      -0.612  -2.507   0.985  0.00  0.00    +0.009 A 
ATOM     16  C   UNL     1      -0.696  -3.494   1.967  0.00  0.00    -0.016 A 
ATOM     17  C   UNL     1      -0.891  -3.131   3.298  0.00  0.00    +0.012 A 
ATOM     18  C   UNL     1      -0.994  -1.797   3.639  0.00  0.00    -0.047 A 
ATOM     19  C   UNL     1      -1.198  -1.402   5.079  0.00  0.00    +0.044 C 
ENDBRANCH   1  16
BRANCH  10  20
ATOM     20  C   UNL     1      -3.429  -7.629  -2.534  0.00  0.00    -0.003 C 
BRANCH  20  21
ATOM     21  N   UNL     1      -2.876  -8.987  -2.630  0.00  0.00    +0.389 N 
ATOM     22  H   UNL     1      -2.888  -9.420  -1.718  0.00  0.00    -0.081 HD
BRANCH  21  23
ATOM     23  C   UNL     1      -1.494  -8.919  -3.122  0.00  0.00    -0.042 C 
BRANCH  23  24
ATOM     24  C   UNL     1      -1.453  -8.114  -4.395  0.00  0.00    -0.064 A 
ATOM     25  C   UNL     1      -1.717  -8.724  -5.607  0.00  0.00    +0.002 A 
ATOM     26  C   UNL     1      -1.679  -7.985  -6.775  0.00  0.00    +0.000 A 
ATOM     27  C   UNL     1      -1.377  -6.636  -6.731  0.00  0.00    +0.000 A 
ATOM     28  C   UNL     1      -1.114  -6.027  -5.518  0.00  0.00    +0.000 A 
ATOM     29  C   UNL     1      -1.156  -6.765  -4.350  0.00  0.00    +0.002 A 
ENDBRANCH  23  24
ENDBRANCH  21  23
BRANCH  21  30
ATOM     30  C   UNL     1      -3.689  -9.782  -3.560  0.00  0.00    -0.044 C 
BRANCH  30  31
ATOM     31  C   UNL     1      -3.504 -11.270  -3.255  0.00  0.00    +0.124 C 
BRANCH  31  32
ATOM     32  O   UNL     1      -2.129 -11.623  -3.420  0.00  0.00    -0.391 OA
ATOM     33  H   UNL     1      -1.786 -11.463  -4.309  0.00  0.00    +0.210 HD
ENDBRANCH  31  32
BRANCH  31  34
ATOM     34  C   UNL     1      -4.361 -12.098  -4.215  0.00  0.00    +0.189 C 
BRANCH  34  35
ATOM     35  O   UNL     1      -4.280 -13.478  -3.856  0.00  0.00    -0.373 OA
BRANCH  35  36
ATOM     36  C   UNL     1      -5.049 -14.343  -4.695  0.00  0.00    +0.186 C 
BRANCH  36  37
ATOM     37  C   UNL     1      -4.890 -15.767  -4.228  0.00  0.00    -0.007 C 
ATOM     38  C   UNL     1      -5.940 -16.544  -4.125  0.00  0.00    +0.006 C 
ENDBRANCH  36  37
ENDBRANCH  35  36
ENDBRANCH  34  35
ENDBRANCH  31  34
ENDBRANCH  30  31
ENDBRANCH  21  30
ENDBRANCH  20  21
ENDBRANCH  10  20
TORSDOF 12
