REMARK  Name = ZINC64848111
REMARK  3 active torsions:
REMARK  status: ('A' for Active; 'I' for Inactive)
REMARK    1  A    between atoms: C_1  and  C_2
REMARK    2  A    between atoms: C_7  and  S_8
REMARK    3  A    between atoms: S_8  and  N_11
REMARK                            x       y       z     vdW  Elec       q    Type
REMARK                         _______ _______ _______ _____ _____    ______ ____
ROOT
ATOM      1  N   UNL     1       1.616   1.126   2.613  0.00  0.00    -0.176 NA
ATOM      2  C   UNL     1       2.940   0.578   2.938  0.00  0.00    +0.112 C 
ATOM      3  C   UNL     1       3.882   0.834   1.758  0.00  0.00    +0.049 C 
ATOM      4  C   UNL     1       3.880   2.325   1.423  0.00  0.00    +0.075 C 
ATOM      5  C   UNL     1       2.473   2.768   1.025  0.00  0.00    +0.049 C 
ATOM      6  C   UNL     1       1.516   2.530   2.192  0.00  0.00    +0.112 C 
ATOM      7  C   UNL     1       4.840   2.595   0.291  0.00  0.00    +0.047 A 
ATOM      8  C   UNL     1       5.119   1.851  -0.785  0.00  0.00    +0.025 A 
ATOM      9  C   UNL     1       6.072   2.558  -1.551  0.00  0.00    +0.020 A 
ATOM     10  C   UNL     1       6.341   3.713  -0.901  0.00  0.00    +0.092 A 
ATOM     11  N   UNL     1       5.603   3.741   0.234  0.00  0.00    -0.316 N 
ATOM     12  C   UNL     1       5.553   4.701   1.255  0.00  0.00    +0.069 A 
ATOM     13  C   UNL     1       6.149   5.940   1.117  0.00  0.00    +0.048 A 
ATOM     14  C   UNL     1       6.055   6.866   2.142  0.00  0.00    +0.043 A 
ATOM     15  C   UNL     1       5.364   6.553   3.299  0.00  0.00    +0.022 A 
ATOM     16  C   UNL     1       4.774   5.312   3.447  0.00  0.00    +0.026 A 
ATOM     17  C   UNL     1       4.873   4.373   2.432  0.00  0.00    +0.052 A 
ATOM     18  N   UNL     1       4.327   3.093   2.594  0.00  0.00    -0.331 N 
ATOM     19 CL   UNL     1       6.804   8.423   1.974  0.00  0.00    -0.083 Cl
ATOM     20  H   UNL     1       4.243   2.712   3.482  0.00  0.00    +0.147 HD
ENDROOT
BRANCH   1  21
ATOM     21  S   UNL     1       0.263   0.177   2.712  0.00  0.00    +0.061 S 
ATOM     22  O   UNL     1      -0.847   1.060   2.796  0.00  0.00    -0.153 OA
ATOM     23  O   UNL     1       0.529  -0.808   3.702  0.00  0.00    -0.153 OA
BRANCH  21  30
ATOM     24  C   UNL     1      -0.447   1.505   0.090  0.00  0.00    +0.046 C 
ATOM     25  C   UNL     1      -0.218   0.017   0.030  0.00  0.00    -0.024 A 
ATOM     26  C   UNL     1      -0.331  -0.651  -1.175  0.00  0.00    +0.008 A 
ATOM     27  C   UNL     1      -0.121  -2.016  -1.231  0.00  0.00    +0.039 A 
ATOM     28  C   UNL     1       0.204  -2.714  -0.080  0.00  0.00    +0.125 A 
ATOM     29  C   UNL     1       0.317  -2.044   1.126  0.00  0.00    +0.067 A 
ATOM     30  C   UNL     1       0.111  -0.678   1.179  0.00  0.00    +0.111 A 
ATOM     31  F   UNL     1       0.410  -4.048  -0.133  0.00  0.00    -0.205 F 
ENDBRANCH  21  30
ENDBRANCH   1  21
TORSDOF 2
