REMARK  Name = ZINC32622688
REMARK  10 active torsions:
REMARK  status: ('A' for Active; 'I' for Inactive)
REMARK    1  A    between atoms: C_1  and  C_2
REMARK    2  A    between atoms: C_2  and  C_3
REMARK    3  A    between atoms: C_2  and  C_4
REMARK    4  A    between atoms: C_2  and  C_5
REMARK    5  A    between atoms: C_8  and  C_11
REMARK    6  A    between atoms: C_11  and  C_13
REMARK    7  A    between atoms: C_11  and  N_32
REMARK    8  A    between atoms: C_13  and  N_14
REMARK    9  A    between atoms: C_15  and  C_17
REMARK   10  A    between atoms: C_19  and  C_22
REMARK                            x       y       z     vdW  Elec       q    Type
REMARK                         _______ _______ _______ _____ _____    ______ ____
ROOT
ATOM      1  C   UNL     1      -9.265  -2.634   0.146  0.00  0.00    +0.094 C 
ENDROOT
BRANCH   1   2
ATOM      2  N   UNL     1      -9.886  -1.933   1.273  0.00  0.00    -0.311 N 
ATOM      3  C   UNL     1      -9.656  -0.618   1.458  0.00  0.00    +0.266 C 
ATOM      4  O   UNL     1      -8.934  -0.013   0.690  0.00  0.00    -0.268 OA
ATOM      5  H   UNL     1     -10.539  -2.480   1.968  0.00  0.00    +0.149 HD
BRANCH   3   6
ATOM      6  C   UNL     1     -10.285   0.091   2.599  0.00  0.00    +0.168 A 
ATOM      7  C   UNL     1     -10.148   1.465   2.926  0.00  0.00    +0.086 A 
ATOM      8  C   UNL     1     -10.914   1.611   4.051  0.00  0.00    +0.168 A 
ATOM      9  O   UNL     1     -11.437   0.400   4.312  0.00  0.00    -0.354 OA
ATOM     10  N   UNL     1     -11.081  -0.425   3.503  0.00  0.00    -0.073 NA
BRANCH   8  11
ATOM     11  C   UNL     1     -11.128   2.853   4.821  0.00  0.00    +0.024 A 
ATOM     12  C   UNL     1     -10.511   4.040   4.422  0.00  0.00    +0.015 A 
ATOM     13  C   UNL     1     -10.708   5.196   5.146  0.00  0.00    +0.050 A 
ATOM     14  C   UNL     1     -11.525   5.188   6.269  0.00  0.00    +0.162 A 
ATOM     15  C   UNL     1     -12.145   4.009   6.671  0.00  0.00    +0.163 A 
ATOM     16  C   UNL     1     -11.947   2.844   5.951  0.00  0.00    +0.061 A 
ATOM     17  O   UNL     1     -12.949   3.984   7.769  0.00  0.00    -0.485 OA
ATOM     18  C   UNL     1     -12.826   5.081   8.681  0.00  0.00    +0.270 C 
ATOM     19  C   UNL     1     -12.818   6.382   7.868  0.00  0.00    +0.270 C 
ATOM     20  O   UNL     1     -11.705   6.341   6.969  0.00  0.00    -0.485 OA
ENDBRANCH   8  11
ENDBRANCH   3   6
ENDBRANCH   1   2
BRANCH   1  21
ATOM     21  C   UNL     1      -9.787  -4.071   0.089  0.00  0.00    -0.020 C 
BRANCH  21  22
ATOM     22  N   UNL     1      -9.102  -4.798  -0.988  0.00  0.00    +0.385 N 
ATOM     23  C   UNL     1      -9.617  -6.168  -1.108  0.00  0.00    -0.078 C 
ATOM     24  C   UNL     1      -8.987  -6.846  -2.327  0.00  0.00    -0.019 C 
ATOM     25  C   UNL     1      -7.465  -6.865  -2.164  0.00  0.00    -0.004 C 
ATOM     26  C   UNL     1      -6.959  -5.431  -1.992  0.00  0.00    -0.019 C 
ATOM     27  C   UNL     1      -7.648  -4.793  -0.783  0.00  0.00    -0.078 C 
ATOM     28  H   UNL     1      -9.309  -4.278  -1.935  0.00  0.00    -0.081 HD
ENDBRANCH  21  22
BRANCH  21  32
ATOM     29  C   UNL     1     -13.990  -4.027  -0.673  0.00  0.00    -0.042 A 
ATOM     30  C   UNL     1     -13.523  -4.212   0.614  0.00  0.00    +0.004 A 
ATOM     31  C   UNL     1     -12.163  -4.226   0.861  0.00  0.00    +0.002 A 
ATOM     32  C   UNL     1     -11.270  -4.055  -0.180  0.00  0.00    -0.059 A 
ATOM     33  C   UNL     1     -11.737  -3.865  -1.467  0.00  0.00    +0.002 A 
ATOM     34  C   UNL     1     -13.097  -3.856  -1.715  0.00  0.00    +0.004 A 
BRANCH  29  36
ATOM     35  C   UNL     1     -16.124  -2.879  -0.147  0.00  0.00    +0.015 C 
ATOM     36  C   UNL     1     -15.473  -4.012  -0.942  0.00  0.00    -0.013 C 
ATOM     37  C   UNL     1     -15.718  -3.793  -2.437  0.00  0.00    +0.015 C 
ATOM     38  C   UNL     1     -16.082  -5.350  -0.517  0.00  0.00    +0.015 C 
ENDBRANCH  29  36
ENDBRANCH  21  32
ENDBRANCH   1  21
TORSDOF 7
