REMARK  Name = ZINC08746045
REMARK  5 active torsions:
REMARK  status: ('A' for Active; 'I' for Inactive)
REMARK    1  A    between atoms: C_3  and  C_6
REMARK    2  A    between atoms: C_16  and  C_18
REMARK    3  A    between atoms: C_23  and  C_25
REMARK    4  A    between atoms: C_25  and  S_26
REMARK    5  A    between atoms: S_26  and  C_27
REMARK                            x       y       z     vdW  Elec       q    Type
REMARK                         _______ _______ _______ _____ _____    ______ ____
ROOT
ATOM      1  C   UNL     1       3.237   3.459  -0.294  0.00  0.00    +0.020 C 
ATOM      2  C   UNL     1       1.944   3.114  -0.499  0.00  0.00    -0.023 C 
ATOM      3  C   UNL     1       1.041   4.044  -1.250  0.00  0.00    +0.037 C 
ATOM      4  C   UNL     1      -0.412   3.616  -1.272  0.00  0.00    +0.005 C 
ATOM      5  C   UNL     1      -0.596   2.099  -1.289  0.00  0.00    +0.012 C 
ATOM      6  C   UNL     1      -0.019   1.534   0.011  0.00  0.00    +0.067 C 
ATOM      7  C   UNL     1       1.465   1.881  -0.002  0.00  0.00    +0.068 C 
ATOM      8  N   UNL     1       2.128   0.850   0.402  0.00  0.00    -0.181 NA
ATOM      9  N   UNL     1       1.334  -0.288   0.584  0.00  0.00    -0.184 N 
ATOM     10  C   UNL     1       0.002  -0.004   0.002  0.00  0.00    +0.146 C 
ATOM     11  C   UNL     1       1.712  -1.435   1.181  0.00  0.00    +0.246 C 
ATOM     12  O   UNL     1       0.928  -2.356   1.279  0.00  0.00    -0.273 OA
ENDROOT
BRANCH   1  15
ATOM     13  C   UNL     1       5.254   6.499  -1.272  0.00  0.00    +0.008 A 
ATOM     14  C   UNL     1       5.018   5.270  -0.704  0.00  0.00    +0.015 A 
ATOM     15  C   UNL     1       3.744   4.732  -0.804  0.00  0.00    +0.012 A 
ATOM     16  S   UNL     1       2.885   5.998  -1.725  0.00  0.00    -0.097 S 
ATOM     17  C   UNL     1       4.241   7.144  -1.908  0.00  0.00    +0.046 A 
ENDBRANCH   1  15
BRANCH  10  18
ATOM     18  C   UNL     1      -0.098  -0.538  -1.404  0.00  0.00    +0.013 A 
ATOM     19  C   UNL     1      -1.180  -1.030  -2.055  0.00  0.00    +0.013 A 
ATOM     20  C   UNL     1      -1.036  -1.465  -3.359  0.00  0.00    +0.008 A 
ATOM     21  C   UNL     1       0.184  -1.396  -3.945  0.00  0.00    +0.045 A 
ATOM     22  S   UNL     1       1.180  -0.692  -2.641  0.00  0.00    -0.100 S 
ENDBRANCH  10  18
BRANCH  11  23
ATOM     23  C   UNL     1       3.110  -1.574   1.728  0.00  0.00    +0.175 C 
BRANCH  23  24
ATOM     24  S   UNL     1       3.310  -3.220   2.465  0.00  0.00    -0.075 S 
BRANCH  24  25
ATOM     25  C   UNL     1       4.972  -3.226   3.050  0.00  0.00    +0.210 A 
ATOM     26  N   UNL     1       5.573  -4.245   3.673  0.00  0.00    -0.188 NA
ATOM     27  C   UNL     1       6.811  -3.913   3.972  0.00  0.00    +0.209 A 
ATOM     28  N   UNL     1       7.022  -2.654   3.536  0.00  0.00    -0.246 N 
ATOM     29  H   UNL     1       7.842  -2.142   3.615  0.00  0.00    +0.192 HD
ATOM     30  N   UNL     1       5.823  -2.233   2.939  0.00  0.00    -0.144 NA
ATOM     31  N   UNL     1       7.734  -4.714   4.621  0.00  0.00    -0.328 N 
ATOM     32  H   UNL     1       7.488  -5.610   4.898  0.00  0.00    +0.145 HD
ATOM     33  H   UNL     1       8.627  -4.379   4.798  0.00  0.00    +0.145 HD
ENDBRANCH  24  25
ENDBRANCH  23  24
ENDBRANCH  11  23
TORSDOF 5
