REMARK  Name = ZINC14276684
REMARK  10 active torsions:
REMARK  status: ('A' for Active; 'I' for Inactive)
REMARK    1  A    between atoms: C_1  and  C_2
REMARK    2  A    between atoms: C_2  and  C_3
REMARK    3  A    between atoms: C_2  and  C_4
REMARK    4  A    between atoms: N_9  and  C_12
REMARK    5  A    between atoms: C_17  and  N_18
REMARK    6  A    between atoms: N_18  and  C_19
REMARK    7  A    between atoms: C_19  and  N_21
REMARK    8  A    between atoms: C_22  and  C_24
REMARK    9  A    between atoms: C_27  and  O_32
REMARK   10  A    between atoms: O_32  and  C_33
REMARK                            x       y       z     vdW  Elec       q    Type
REMARK                         _______ _______ _______ _____ _____    ______ ____
ROOT
ATOM      1  N   UNL     1       4.912   0.006   2.278  0.00  0.00    -0.295 N 
ATOM      2  H   UNL     1       4.227  -0.195   2.936  0.00  0.00    +0.154 HD
ENDROOT
BRANCH   1   8
ATOM      3  C   UNL     1       6.675  -1.214   3.406  0.00  0.00    +0.051 A 
ATOM      4  C   UNL     1       7.832  -1.975   3.349  0.00  0.00    +0.025 A 
ATOM      5  C   UNL     1       8.395  -2.286   2.125  0.00  0.00    +0.002 A 
ATOM      6  C   UNL     1       7.806  -1.840   0.956  0.00  0.00    +0.002 A 
ATOM      7  C   UNL     1       6.649  -1.085   1.004  0.00  0.00    +0.025 A 
ATOM      8  C   UNL     1       6.081  -0.764   2.227  0.00  0.00    +0.054 A 
BRANCH   3  14
ATOM      9  C   UNL     1       5.994  -0.945   8.717  0.00  0.00    +0.218 C 
ATOM     10  O   UNL     1       5.637  -1.969   9.261  0.00  0.00    -0.275 OA
ATOM     11  N   UNL     1       5.749  -0.758   7.405  0.00  0.00    -0.298 N 
ATOM     12  C   UNL     1       4.952  -1.730   6.639  0.00  0.00    +0.126 C 
ATOM     13  C   UNL     1       5.734  -2.115   5.379  0.00  0.00    +0.124 C 
ATOM     14  N   UNL     1       6.103  -0.898   4.644  0.00  0.00    -0.325 N 
ATOM     15  C   UNL     1       7.002  -0.048   5.437  0.00  0.00    +0.124 C 
ATOM     16  C   UNL     1       6.272   0.422   6.700  0.00  0.00    +0.126 C 
BRANCH   9  18
ATOM     17  C   UNL     1       6.165   0.147  10.936  0.00  0.00    +0.017 C 
ATOM     18  C   UNL     1       6.713   0.117   9.508  0.00  0.00    +0.069 C 
ATOM     19  C   UNL     1       8.210  -0.197   9.542  0.00  0.00    +0.017 C 
ENDBRANCH   9  18
ENDBRANCH   3  14
ENDBRANCH   1   8
BRANCH   1  20
ATOM     20  C   UNL     1       4.738   1.026   1.415  0.00  0.00    +0.141 C 
ATOM     21  S   UNL     1       5.980   1.432   0.309  0.00  0.00    -0.018 S 
BRANCH  20  22
ATOM     22  N   UNL     1       3.586   1.726   1.421  0.00  0.00    -0.263 N 
ATOM     23  C   UNL     1       3.412   2.746   0.558  0.00  0.00    +0.255 C 
ATOM     24  O   UNL     1       4.294   3.034  -0.228  0.00  0.00    -0.270 OA
ATOM     25  H   UNL     1       2.882   1.496   2.048  0.00  0.00    +0.157 HD
BRANCH  23  26
ATOM     26  C   UNL     1       2.154   3.510   0.565  0.00  0.00    +0.113 A 
ATOM     27  C   UNL     1       2.024   4.642   1.380  0.00  0.00    +0.177 A 
ATOM     28  C   UNL     1       0.841   5.355   1.383  0.00  0.00    +0.204 A 
ATOM     29  C   UNL     1      -0.219   4.952   0.579  0.00  0.00    +0.196 A 
ATOM     30  C   UNL     1      -0.094   3.832  -0.235  0.00  0.00    +0.204 A 
ATOM     31  C   UNL     1       1.082   3.108  -0.242  0.00  0.00    +0.177 A 
ATOM     32  F   UNL     1       1.201   2.018  -1.031  0.00  0.00    -0.201 F 
ATOM     33  F   UNL     1      -1.127   3.448  -1.017  0.00  0.00    -0.198 F 
ATOM     34  F   UNL     1       0.714   6.447   2.169  0.00  0.00    -0.198 F 
ATOM     35  F   UNL     1       3.054   5.036   2.161  0.00  0.00    -0.201 F 
BRANCH  29  36
ATOM     36  O   UNL     1      -1.380   5.657   0.586  0.00  0.00    -0.489 OA
ATOM     37  C   UNL     1      -1.496   6.725  -0.356  0.00  0.00    +0.277 C 
ENDBRANCH  29  36
ENDBRANCH  23  26
ENDBRANCH  20  22
ENDBRANCH   1  20
TORSDOF 7
