REMARK  Name = ZINC09593137
REMARK  8 active torsions:
REMARK  status: ('A' for Active; 'I' for Inactive)
REMARK    1  A    between atoms: C_2  and  C_3
REMARK    2  A    between atoms: C_3  and  N_45
REMARK    3  A    between atoms: C_4  and  C_5
REMARK    4  A    between atoms: C_4  and  N_45
REMARK    5  A    between atoms: C_11  and  C_12
REMARK    6  A    between atoms: C_11  and  N_45
REMARK    7  A    between atoms: N_17  and  C_18
REMARK    8  A    between atoms: C_18  and  C_19
REMARK                            x       y       z     vdW  Elec       q    Type
REMARK                         _______ _______ _______ _____ _____    ______ ____
ROOT
ATOM      1  C   UNL     1       0.016   1.521   1.732  0.00  0.00    +0.204 C 
ATOM      2  O   UNL     1      -0.311   0.607   2.458  0.00  0.00    -0.277 OA
ATOM      3  N   UNL     1       0.053   2.781   2.209  0.00  0.00    -0.242 N 
ATOM      4  C   UNL     1      -0.275   3.025   3.494  0.00  0.00    +0.306 C 
ATOM      5  O   UNL     1      -0.603   2.109   4.222  0.00  0.00    -0.252 OA
ATOM      6  N   UNL     1      -0.238   4.285   3.971  0.00  0.00    -0.295 N 
ATOM      7  H   UNL     1       0.314   3.512   1.628  0.00  0.00    +0.159 HD
ATOM      8  H   UNL     1       0.024   5.016   3.390  0.00  0.00    +0.151 HD
ENDROOT
BRANCH   1   9
ATOM      9  C   UNL     1       0.382   1.248   0.296  0.00  0.00    +0.020 C 
BRANCH   9  10
ATOM     10  N   UNL     1       0.278  -0.204   0.045  0.00  0.00    +0.391 N 
ATOM     11  H   UNL     1       0.815  -0.706   0.762  0.00  0.00    -0.080 HD
BRANCH  10  12
ATOM     12  C   UNL     1      -1.136  -0.630   0.119  0.00  0.00    -0.051 C 
BRANCH  12  14
ATOM     13  C   UNL     1      -2.647  -0.654  -1.799  0.00  0.00    +0.002 C 
ATOM     14  C   UNL     1      -1.951   0.057  -0.946  0.00  0.00    -0.053 C 
ENDBRANCH  12  14
ENDBRANCH  10  12
BRANCH  10  15
ATOM     15  C   UNL     1       0.834  -0.528  -1.286  0.00  0.00    -0.035 C 
BRANCH  15  16
ATOM     16  C   UNL     1       1.048  -2.018  -1.371  0.00  0.00    -0.026 A 
ATOM     17  C   UNL     1       0.237  -2.967  -1.899  0.00  0.00    +0.010 A 
ATOM     18  C   UNL     1       0.643  -4.288  -1.867  0.00  0.00    +0.023 A 
ATOM     19  C   UNL     1       1.841  -4.595  -1.309  0.00  0.00    +0.055 A 
ATOM     20  S   UNL     1       2.438  -2.987  -0.812  0.00  0.00    -0.088 S 
ATOM     21 BR   UNL     1       2.667  -6.285  -1.115  0.00  0.00    -0.043 Br
ENDBRANCH  15  16
ENDBRANCH  10  15
ENDBRANCH   9  10
ENDBRANCH   1   9
BRANCH   6  22
ATOM     22  C   UNL     1      -0.593   4.550   5.367  0.00  0.00    +0.141 C 
BRANCH  22  23
ATOM     23  C   UNL     1      -0.471   6.026   5.645  0.00  0.00    -0.030 A 
ATOM     24  C   UNL     1       0.726   6.548   6.098  0.00  0.00    +0.005 A 
ATOM     25  C   UNL     1       0.839   7.903   6.348  0.00  0.00    +0.000 A 
ATOM     26  C   UNL     1      -0.248   8.734   6.155  0.00  0.00    +0.000 A 
ATOM     27  C   UNL     1      -1.447   8.212   5.707  0.00  0.00    +0.000 A 
ATOM     28  C   UNL     1      -1.559   6.858   5.452  0.00  0.00    +0.005 A 
ENDBRANCH  22  23
ENDBRANCH   6  22
TORSDOF 8
