REMARK  Name = ZINC22189579
REMARK  6 active torsions:
REMARK  status: ('A' for Active; 'I' for Inactive)
REMARK    1  A    between atoms: C_1  and  C_2
REMARK    2  A    between atoms: N_6  and  C_14
REMARK    3  A    between atoms: C_14  and  C_15
REMARK    4  A    between atoms: N_17  and  C_18
REMARK    5  A    between atoms: C_18  and  C_20
REMARK    6  A    between atoms: C_18  and  C_21
REMARK                            x       y       z     vdW  Elec       q    Type
REMARK                         _______ _______ _______ _____ _____    ______ ____
ROOT
ATOM      1  C   UNL     1      -3.779  -0.678   1.777  0.00  0.00    +0.209 C 
ENDROOT
BRANCH   1   6
ATOM      2  C   UNL     1      -2.510  -3.970   4.625  0.00  0.00    +0.062 C 
ATOM      3  C   UNL     1      -3.947  -3.590   4.263  0.00  0.00    +0.256 C 
ATOM      4  C   UNL     1      -3.967  -2.199   3.683  0.00  0.00    +0.261 C 
ATOM      5  O   UNL     1      -4.134  -1.240   4.406  0.00  0.00    -0.271 OA
ATOM      6  N   UNL     1      -3.798  -2.024   2.354  0.00  0.00    -0.256 N 
ATOM      7  C   UNL     1      -3.647  -3.152   1.534  0.00  0.00    +0.079 A 
ATOM      8  C   UNL     1      -3.166  -3.028   0.241  0.00  0.00    +0.027 A 
ATOM      9  C   UNL     1      -3.026  -4.153  -0.551  0.00  0.00    +0.002 A 
ATOM     10  C   UNL     1      -3.364  -5.399  -0.056  0.00  0.00    +0.004 A 
ATOM     11  C   UNL     1      -3.833  -5.529   1.235  0.00  0.00    +0.047 A 
ATOM     12  C   UNL     1      -3.982  -4.409   2.033  0.00  0.00    +0.143 A 
ATOM     13  O   UNL     1      -4.457  -4.519   3.302  0.00  0.00    -0.478 OA
ENDBRANCH   1   6
BRANCH   1  14
ATOM     14  C   UNL     1      -2.365  -0.156   1.766  0.00  0.00    +0.231 C 
ATOM     15  O   UNL     1      -1.462  -0.842   2.198  0.00  0.00    -0.274 OA
ATOM     16  N   UNL     1      -2.103   1.072   1.277  0.00  0.00    -0.307 N 
ATOM     17  H   UNL     1      -2.922   1.694   0.886  0.00  0.00    +0.149 HD
BRANCH  16  18
ATOM     18  C   UNL     1      -0.729   1.579   1.267  0.00  0.00    +0.100 C 
ATOM     19  C   UNL     1      -0.013   1.086   0.008  0.00  0.00    +0.033 C 
BRANCH  18  20
ATOM     20  C   UNL     1      -0.749   3.086   1.275  0.00  0.00    -0.026 A 
ATOM     21  C   UNL     1       0.166   3.785   2.040  0.00  0.00    +0.005 A 
ATOM     22  C   UNL     1       0.148   5.168   2.047  0.00  0.00    +0.002 A 
ATOM     23  C   UNL     1      -0.785   5.851   1.290  0.00  0.00    +0.020 A 
ATOM     24  C   UNL     1      -1.701   5.152   0.525  0.00  0.00    +0.041 A 
ATOM     25  C   UNL     1      -1.679   3.768   0.514  0.00  0.00    +0.025 A 
ATOM     26 CL   UNL     1      -2.872   6.010  -0.426  0.00  0.00    -0.084 Cl
ENDBRANCH  18  20
ENDBRANCH  16  18
ENDBRANCH   1  14
TORSDOF 4
