REMARK  Name = ZINC06073613
REMARK  12 active torsions:
REMARK  status: ('A' for Active; 'I' for Inactive)
REMARK    1  A    between atoms: C_1  and  C_2
REMARK    2  A    between atoms: C_2  and  C_4
REMARK    3  A    between atoms: C_8  and  C_40
REMARK    4  A    between atoms: C_17  and  C_39
REMARK    5  A    between atoms: C_20  and  O_35
REMARK    6  A    between atoms: C_22  and  C_33
REMARK    7  A    between atoms: C_22  and  C_34
REMARK    8  A    between atoms: C_27  and  C_32
REMARK    9  A    between atoms: C_28  and  C_31
REMARK   10  A    between atoms: O_35  and  C_36
REMARK   11  A    between atoms: C_36  and  C_38
REMARK   12  A    between atoms: C_40  and  O_41
REMARK                            x       y       z     vdW  Elec       q    Type
REMARK                         _______ _______ _______ _____ _____    ______ ____
ROOT
ATOM      1  C   UNL     1      -1.228   3.210   5.537  0.00  0.00    +0.018 C 
ATOM      2  C   UNL     1      -1.806   2.117   6.476  0.00  0.00    +0.009 C 
ATOM      3  C   UNL     1      -0.683   1.056   6.636  0.00  0.00    +0.010 C 
ATOM      4  C   UNL     1       0.584   1.908   6.441  0.00  0.00    -0.002 C 
ATOM      5  C   UNL     1       0.185   2.742   5.197  0.00  0.00    +0.008 C 
ATOM      6  C   UNL     1       1.237   3.791   4.950  0.00  0.00    -0.000 C 
ATOM      7  C   UNL     1       0.846   4.719   3.800  0.00  0.00    +0.005 C 
ATOM      8  C   UNL     1       0.788   3.890   2.517  0.00  0.00    +0.005 C 
ATOM      9  C   UNL     1       2.200   3.410   2.177  0.00  0.00    +0.002 C 
ATOM     10  C   UNL     1       2.196   2.776   0.790  0.00  0.00    -0.025 C 
ATOM     11  C   UNL     1       1.274   3.597  -0.121  0.00  0.00    +0.011 C 
ATOM     12  C   UNL     1      -0.164   3.109  -0.102  0.00  0.00    +0.046 C 
ATOM     13  C   UNL     1      -0.190   1.662  -0.592  0.00  0.00    +0.182 C 
ATOM     14  C   UNL     1       0.566   0.776   0.399  0.00  0.00    +0.005 C 
ATOM     15  C   UNL     1       1.945   1.295   0.729  0.00  0.00    +0.004 C 
ATOM     16  C   UNL     1       2.590   0.521   1.873  0.00  0.00    +0.005 C 
ATOM     17  C   UNL     1       2.334   1.138   3.237  0.00  0.00    +0.008 C 
ATOM     18  C   UNL     1       2.809   2.586   3.289  0.00  0.00    -0.023 C 
ATOM     19  C   UNL     1       2.598   3.160   4.694  0.00  0.00    -0.023 C 
ATOM     20  C   UNL     1       2.958   2.110   5.745  0.00  0.00    +0.008 C 
ATOM     21  C   UNL     1       1.835   1.135   6.092  0.00  0.00    +0.010 C 
ATOM     22  C   UNL     1       3.656   4.285   4.860  0.00  0.00    +0.012 C 
ATOM     23  C   UNL     1       4.351   2.575   3.107  0.00  0.00    +0.012 C 
ATOM     24  C   UNL     1      -0.309   0.567   1.636  0.00  0.00    +0.015 C 
ATOM     25  C   UNL     1       0.721  -0.607  -0.283  0.00  0.00    +0.015 C 
ATOM     26  C   UNL     1       3.606   3.015   0.162  0.00  0.00    +0.012 C 
ENDROOT
BRANCH   1  28
ATOM     27  C   UNL     1      -2.436   2.028   3.545  0.00  0.00    +0.039 C 
ATOM     28  C   UNL     1      -2.081   3.286   4.294  0.00  0.00    -0.076 C 
ATOM     29  C   UNL     1      -2.513   4.447   3.866  0.00  0.00    +0.007 C 
ENDBRANCH   1  28
BRANCH  13  30
ATOM     30  O   UNL     1      -1.569   1.210  -0.686  0.00  0.00    -0.461 OA
BRANCH  30  31
ATOM     31  C   UNL     1      -2.196   1.405  -1.857  0.00  0.00    +0.304 C 
ATOM     32  O   UNL     1      -1.613   1.935  -2.773  0.00  0.00    -0.251 OA
ATOM     33  C   UNL     1      -3.626   0.963  -2.028  0.00  0.00    +0.136 C 
ENDBRANCH  30  31
ENDBRANCH  13  30
BRANCH   4  34
ATOM     34  C   UNL     1       0.799   2.776   7.679  0.00  0.00    +0.163 C 
BRANCH  34  35
ATOM     35  O   UNL     1       1.161   1.946   8.785  0.00  0.00    -0.394 OA
ATOM     36  H   UNL     1       1.314   2.431   9.607  0.00  0.00    +0.209 HD
ENDBRANCH  34  35
ENDBRANCH   4  34
TORSDOF 5
