REMARK  Name = ZINC12472978
REMARK  11 active torsions:
REMARK  status: ('A' for Active; 'I' for Inactive)
REMARK    1  A    between atoms: C_1  and  C_2
REMARK    2  A    between atoms: C_5  and  C_7
REMARK    3  A    between atoms: C_7  and  C_9
REMARK    4  A    between atoms: C_7  and  N_19
REMARK    5  A    between atoms: N_11  and  C_12
REMARK    6  A    between atoms: C_12  and  C_13
REMARK    7  A    between atoms: N_19  and  C_20
REMARK    8  A    between atoms: C_20  and  C_21
REMARK    9  A    between atoms: C_27  and  C_29
REMARK   10  A    between atoms: C_30  and  N_37
REMARK   11  A    between atoms: C_31  and  C_34
REMARK                            x       y       z     vdW  Elec       q    Type
REMARK                         _______ _______ _______ _____ _____    ______ ____
ROOT
ATOM      1  N   UNL     1       3.433  -0.924  -1.196  0.00  0.00    -0.275 N 
ATOM      2  C   UNL     1       4.410  -0.044  -1.494  0.00  0.00    +0.258 C 
ATOM      3  O   UNL     1       4.965  -0.094  -2.576  0.00  0.00    -0.269 OA
ENDROOT
BRANCH   2   4
ATOM      4  C   UNL     1       4.804   0.971  -0.516  0.00  0.00    +0.115 A 
ATOM      5  C   UNL     1       5.248   2.278  -0.727  0.00  0.00    +0.076 A 
ATOM      6  C   UNL     1       5.527   2.946   0.466  0.00  0.00    +0.155 A 
ATOM      7  N   UNL     1       5.365   2.317   1.609  0.00  0.00    -0.203 NA
ATOM      8  S   UNL     1       4.852   0.868   1.261  0.00  0.00    +0.019 S 
BRANCH   6   9
ATOM      9  C   UNL     1       6.004   4.341   0.444  0.00  0.00    +0.262 C 
ATOM     10  O   UNL     1       6.152   4.916  -0.617  0.00  0.00    -0.269 OA
ATOM     11  N   UNL     1       6.277   4.978   1.600  0.00  0.00    -0.324 N 
ATOM     12  H   UNL     1       6.159   4.519   2.446  0.00  0.00    +0.145 HD
ATOM     13  H   UNL     1       6.590   5.896   1.585  0.00  0.00    +0.145 HD
ENDBRANCH   6   9
BRANCH   5  14
ATOM     14  N   UNL     1       5.394   2.849  -1.984  0.00  0.00    -0.355 N 
ATOM     15  H   UNL     1       5.182   2.335  -2.778  0.00  0.00    +0.142 HD
ATOM     16  H   UNL     1       5.708   3.763  -2.067  0.00  0.00    +0.142 HD
ENDBRANCH   5  14
ENDBRANCH   2   4
BRANCH   1  17
ATOM     17  C   UNL     1       3.005  -1.909  -2.193  0.00  0.00    +0.229 C 
BRANCH  17  22
ATOM     18  C   UNL     1       2.438  -5.647   1.145  0.00  0.00    +0.086 C 
ATOM     19  C   UNL     1       2.772  -4.910  -0.126  0.00  0.00    +0.102 A 
ATOM     20  C   UNL     1       3.271  -5.461  -1.247  0.00  0.00    +0.045 A 
ATOM     21  C   UNL     1       3.425  -4.414  -2.185  0.00  0.00    +0.047 A 
ATOM     22  C   UNL     1       3.018  -3.284  -1.577  0.00  0.00    +0.135 A 
ATOM     23  O   UNL     1       2.621  -3.591  -0.332  0.00  0.00    -0.462 OA
ENDBRANCH  17  22
BRANCH  17  24
ATOM     24  C   UNL     1       1.610  -1.580  -2.657  0.00  0.00    +0.241 C 
ATOM     25  O   UNL     1       1.178  -0.454  -2.530  0.00  0.00    -0.273 OA
ATOM     26  N   UNL     1       0.842  -2.537  -3.214  0.00  0.00    -0.309 N 
ATOM     27  H   UNL     1       1.187  -3.438  -3.316  0.00  0.00    +0.149 HD
BRANCH  26  28
ATOM     28  C   UNL     1      -0.515  -2.217  -3.666  0.00  0.00    +0.139 C 
BRANCH  28  29
ATOM     29  C   UNL     1      -1.155  -3.452  -4.246  0.00  0.00    -0.030 A 
ATOM     30  C   UNL     1      -1.026  -3.729  -5.594  0.00  0.00    +0.005 A 
ATOM     31  C   UNL     1      -1.610  -4.864  -6.125  0.00  0.00    +0.000 A 
ATOM     32  C   UNL     1      -2.331  -5.716  -5.310  0.00  0.00    +0.000 A 
ATOM     33  C   UNL     1      -2.464  -5.436  -3.963  0.00  0.00    +0.000 A 
ATOM     34  C   UNL     1      -1.877  -4.304  -3.431  0.00  0.00    +0.005 A 
ENDBRANCH  28  29
ENDBRANCH  26  28
ENDBRANCH  17  24
ENDBRANCH   1  17
BRANCH   1  35
ATOM     35  C   UNL     1       2.799  -0.895   0.124  0.00  0.00    +0.144 C 
BRANCH  35  36
ATOM     36  C   UNL     1       1.536  -0.075   0.057  0.00  0.00    -0.030 A 
ATOM     37  C   UNL     1       0.315  -0.699  -0.108  0.00  0.00    +0.005 A 
ATOM     38  C   UNL     1      -0.844   0.053  -0.169  0.00  0.00    +0.000 A 
ATOM     39  C   UNL     1      -0.780   1.430  -0.065  0.00  0.00    +0.000 A 
ATOM     40  C   UNL     1       0.442   2.054   0.101  0.00  0.00    +0.000 A 
ATOM     41  C   UNL     1       1.600   1.302   0.162  0.00  0.00    +0.005 A 
ENDBRANCH  35  36
ENDBRANCH   1  35
TORSDOF 10
