REMARK  Name = ZINC43758177
REMARK  14 active torsions:
REMARK  status: ('A' for Active; 'I' for Inactive)
REMARK    1  A    between atoms: C_1  and  C_2
REMARK    2  A    between atoms: C_2  and  C_4
REMARK    3  A    between atoms: C_2  and  C_10
REMARK    4  A    between atoms: C_4  and  C_5
REMARK    5  A    between atoms: C_5  and  C_6
REMARK    6  A    between atoms: C_6  and  C_7
REMARK    7  A    between atoms: C_7  and  C_8
REMARK    8  A    between atoms: C_7  and  C_9
REMARK    9  A    between atoms: C_16  and  C_40
REMARK   10  A    between atoms: C_24  and  O_39
REMARK   11  A    between atoms: C_27  and  C_37
REMARK   12  A    between atoms: C_30  and  O_33
REMARK   13  A    between atoms: O_33  and  C_34
REMARK   14  A    between atoms: C_34  and  C_36
REMARK                            x       y       z     vdW  Elec       q    Type
REMARK                         _______ _______ _______ _____ _____    ______ ____
ROOT
ATOM      1  C   UNL     1      -1.425  -0.539   0.138  0.00  0.00    -0.002 C 
ATOM      2  C   UNL     1      -1.415  -2.071   0.348  0.00  0.00    +0.004 C 
ATOM      3  C   UNL     1      -2.527  -2.381   1.368  0.00  0.00    +0.004 C 
ATOM      4  C   UNL     1      -3.201  -1.024   1.705  0.00  0.00    -0.001 C 
ATOM      5  C   UNL     1      -2.085  -0.002   1.422  0.00  0.00    -0.026 C 
ATOM      6  C   UNL     1      -2.588   1.414   1.268  0.00  0.00    +0.007 C 
ATOM      7  C   UNL     1      -3.710   1.496   0.234  0.00  0.00    +0.005 C 
ATOM      8  C   UNL     1      -4.857   0.589   0.695  0.00  0.00    -0.000 C 
ATOM      9  C   UNL     1      -4.375  -0.867   0.734  0.00  0.00    -0.001 C 
ATOM     10  C   UNL     1      -5.506  -1.804   1.165  0.00  0.00    +0.037 C 
ATOM     11  C   UNL     1      -6.678  -1.678   0.190  0.00  0.00    +0.132 C 
ATOM     12  C   UNL     1      -7.186  -0.234   0.192  0.00  0.00    +0.061 C 
ATOM     13  C   UNL     1      -6.027   0.735  -0.282  0.00  0.00    -0.011 C 
ATOM     14  C   UNL     1      -5.562   0.364  -1.692  0.00  0.00    +0.012 C 
ATOM     15  C   UNL     1      -6.730   0.513  -2.669  0.00  0.00    +0.045 C 
ATOM     16  C   UNL     1      -7.870  -0.417  -2.247  0.00  0.00    +0.178 C 
ATOM     17  C   UNL     1      -8.364  -0.107  -0.776  0.00  0.00    +0.066 C 
ATOM     18  C   UNL     1      -6.522   2.182  -0.272  0.00  0.00    +0.013 C 
ATOM     19 BR   UNL     1      -7.769   0.254   2.005  0.00  0.00    -0.081 Br
ATOM     20  C   UNL     1      -1.068  -0.040   2.564  0.00  0.00    +0.012 C 
ENDROOT
BRANCH   1  22
ATOM     21  C   UNL     1      -0.039   1.512  -0.204  0.00  0.00    +0.008 C 
ATOM     22  C   UNL     1       0.002  -0.004   0.002  0.00  0.00    -0.010 C 
BRANCH  22  23
ATOM     23  C   UNL     1       0.681  -0.664  -1.200  0.00  0.00    +0.003 C 
BRANCH  23  24
ATOM     24  C   UNL     1       2.145  -0.224  -1.263  0.00  0.00    +0.001 C 
BRANCH  24  25
ATOM     25  C   UNL     1       2.825  -0.884  -2.465  0.00  0.00    +0.003 C 
BRANCH  25  26
ATOM     26  C   UNL     1       4.289  -0.445  -2.528  0.00  0.00    -0.017 C 
ATOM     27  C   UNL     1       5.034  -0.975  -1.301  0.00  0.00    +0.007 C 
ATOM     28  C   UNL     1       4.935  -1.003  -3.797  0.00  0.00    +0.007 C 
ENDBRANCH  25  26
ENDBRANCH  24  25
ENDBRANCH  23  24
ENDBRANCH  22  23
ENDBRANCH   1  22
BRANCH  11  29
ATOM     29  O   UNL     1      -6.244  -2.029  -1.125  0.00  0.00    -0.390 OA
ATOM     30  H   UNL     1      -5.907  -2.933  -1.200  0.00  0.00    +0.210 HD
ENDBRANCH  11  29
BRANCH  16  31
ATOM     31  O   UNL     1      -8.961  -0.277  -3.159  0.00  0.00    -0.461 OA
BRANCH  31  32
ATOM     32  C   UNL     1      -8.969  -1.089  -4.229  0.00  0.00    +0.304 C 
ATOM     33  O   UNL     1      -8.078  -1.890  -4.385  0.00  0.00    -0.251 OA
ATOM     34  C   UNL     1     -10.087  -0.999  -5.234  0.00  0.00    +0.136 C 
ENDBRANCH  31  32
ENDBRANCH  16  31
TORSDOF 8
