REMARK  Name = ZINC02148759
REMARK  6 active torsions:
REMARK  status: ('A' for Active; 'I' for Inactive)
REMARK    1  A    between atoms: C_1  and  C_2
REMARK    2  A    between atoms: C_2  and  C_3
REMARK    3  A    between atoms: C_2  and  C_4
REMARK    4  A    between atoms: C_7  and  C_10
REMARK    5  A    between atoms: N_29  and  C_32
REMARK    6  A    between atoms: C_32  and  C_33
REMARK                            x       y       z     vdW  Elec       q    Type
REMARK                         _______ _______ _______ _____ _____    ______ ____
ROOT
ATOM      1  C   UNL     1       0.002  -0.004   0.002  0.00  0.00    +0.154 C 
ATOM      2  C   UNL     1      -0.101  -0.527   1.417  0.00  0.00    +0.046 A 
ATOM      3  C   UNL     1      -0.968  -1.492   1.793  0.00  0.00    -0.015 A 
ATOM      4  C   UNL     1      -0.763  -1.716   3.210  0.00  0.00    +0.003 A 
ATOM      5  C   UNL     1      -1.362  -2.583   4.129  0.00  0.00    +0.010 A 
ATOM      6  C   UNL     1      -0.908  -2.525   5.423  0.00  0.00    +0.001 A 
ATOM      7  C   UNL     1       0.094  -1.652   5.814  0.00  0.00    +0.002 A 
ATOM      8  C   UNL     1       0.704  -0.783   4.926  0.00  0.00    +0.026 A 
ATOM      9  C   UNL     1       0.264  -0.820   3.604  0.00  0.00    +0.047 A 
ATOM     10  N   UNL     1       0.639  -0.119   2.494  0.00  0.00    -0.356 N 
ATOM     11  H   UNL     1       1.327   0.565   2.472  0.00  0.00    +0.166 HD
ATOM     12  C   UNL     1      -1.947  -2.173   0.872  0.00  0.00    +0.069 C 
ATOM     13  C   UNL     1      -1.514  -1.929  -0.581  0.00  0.00    +0.167 C 
ATOM     14  N   UNL     1      -1.165  -0.518  -0.746  0.00  0.00    -0.276 N 
ATOM     15  C   UNL     1      -1.847   0.315  -1.534  0.00  0.00    +0.234 C 
ATOM     16  O   UNL     1      -1.515   1.481  -1.546  0.00  0.00    -0.274 OA
ATOM     17  C   UNL     1      -2.994  -0.092  -2.402  0.00  0.00    +0.204 C 
ATOM     18  N   UNL     1      -3.265  -1.517  -2.316  0.00  0.00    -0.287 N 
ATOM     19  C   UNL     1      -2.609  -2.348  -1.508  0.00  0.00    +0.237 C 
ATOM     20  O   UNL     1      -2.920  -3.521  -1.526  0.00  0.00    -0.274 OA
ENDROOT
BRANCH   1  24
ATOM     21  C   UNL     1      -0.055   4.267   0.026  0.00  0.00    -0.045 A 
ATOM     22  C   UNL     1      -1.029   3.559   0.706  0.00  0.00    +0.004 A 
ATOM     23  C   UNL     1      -1.010   2.177   0.698  0.00  0.00    +0.006 A 
ATOM     24  C   UNL     1      -0.018   1.503   0.010  0.00  0.00    -0.021 A 
ATOM     25  C   UNL     1       0.958   2.211  -0.665  0.00  0.00    +0.006 A 
ATOM     26  C   UNL     1       0.936   3.593  -0.661  0.00  0.00    +0.004 A 
BRANCH  21  28
ATOM     27  C   UNL     1       1.222   6.298   0.651  0.00  0.00    +0.012 C 
ATOM     28  C   UNL     1      -0.076   5.774   0.034  0.00  0.00    +0.013 C 
ATOM     29  C   UNL     1      -0.204   6.290  -1.400  0.00  0.00    +0.012 C 
ENDBRANCH  21  28
ENDBRANCH   1  24
BRANCH  18  30
ATOM     30  C   UNL     1      -4.320  -2.072  -3.167  0.00  0.00    +0.143 C 
BRANCH  30  31
ATOM     31  C   UNL     1      -5.636  -2.019  -2.435  0.00  0.00    -0.026 A 
ATOM     32  C   UNL     1      -6.033  -3.087  -1.652  0.00  0.00    +0.009 A 
ATOM     33  C   UNL     1      -7.237  -3.041  -0.974  0.00  0.00    +0.050 A 
ATOM     34  C   UNL     1      -8.054  -1.929  -1.087  0.00  0.00    +0.166 A 
ATOM     35  C   UNL     1      -7.657  -0.855  -1.880  0.00  0.00    +0.167 A 
ATOM     36  C   UNL     1      -6.446  -0.905  -2.552  0.00  0.00    +0.054 A 
ATOM     37  O   UNL     1      -8.623   0.108  -1.827  0.00  0.00    -0.453 OA
ATOM     38  C   UNL     1      -9.799  -0.555  -1.325  0.00  0.00    +0.466 C 
ATOM     39  O   UNL     1      -9.270  -1.639  -0.538  0.00  0.00    -0.453 OA
ENDBRANCH  30  31
ENDBRANCH  18  30
TORSDOF 4
