REMARK  Name = ZINC42477579
REMARK  7 active torsions:
REMARK  status: ('A' for Active; 'I' for Inactive)
REMARK    1  A    between atoms: C_1  and  C_2
REMARK    2  A    between atoms: C_2  and  C_20
REMARK    3  A    between atoms: N_7  and  C_8
REMARK    4  A    between atoms: C_8  and  C_9
REMARK    5  A    between atoms: C_9  and  C_10
REMARK    6  A    between atoms: C_13  and  S_16
REMARK    7  A    between atoms: S_16  and  N_19
REMARK                            x       y       z     vdW  Elec       q    Type
REMARK                         _______ _______ _______ _____ _____    ______ ____
ROOT
ATOM      1  C   UNL     1       0.415  -2.320   5.671  0.00  0.00    +0.054 C 
ENDROOT
BRANCH   1   2
ATOM      2  C   UNL     1      -0.519  -2.815   6.745  0.00  0.00    -0.046 A 
ATOM      3  C   UNL     1      -1.020  -1.935   7.686  0.00  0.00    +0.005 A 
ATOM      4  C   UNL     1      -1.876  -2.389   8.671  0.00  0.00    +0.029 A 
ATOM      5  C   UNL     1      -2.233  -3.724   8.715  0.00  0.00    +0.105 A 
ATOM      6  C   UNL     1      -1.733  -4.604   7.774  0.00  0.00    +0.029 A 
ATOM      7  C   UNL     1      -0.880  -4.149   6.786  0.00  0.00    +0.005 A 
BRANCH   5   8
ATOM      8  S   UNL     1      -3.324  -4.303   9.971  0.00  0.00    +0.056 S 
ATOM      9  O   UNL     1      -3.070  -5.693  10.120  0.00  0.00    -0.153 OA
ATOM     10  O   UNL     1      -3.218  -3.389  11.054  0.00  0.00    -0.153 OA
BRANCH   8  11
ATOM     11  N   UNL     1      -4.866  -4.164   9.383  0.00  0.00    -0.204 NA
ATOM     12  H   UNL     1      -5.015  -3.812   8.492  0.00  0.00    +0.144 HD
ATOM     13  H   UNL     1      -5.620  -4.434   9.931  0.00  0.00    +0.144 HD
ENDBRANCH   8  11
ENDBRANCH   5   8
ENDBRANCH   1   2
BRANCH   1  14
ATOM     14  C   UNL     1      -0.398  -1.873   4.455  0.00  0.00    +0.108 C 
BRANCH  14  21
ATOM     15  C   UNL     1      -0.019   1.526   0.010  0.00  0.00    +0.034 C 
ATOM     16  C   UNL     1       0.002  -0.004   0.002  0.00  0.00    +0.044 C 
ATOM     17  C   UNL     1      -1.456  -0.533  -0.066  0.00  0.00    +0.104 C 
ATOM     18  S   UNL     1      -1.714  -0.842   1.734  0.00  0.00    -0.090 S 
ATOM     19  C   UNL     1       0.003  -0.934   2.216  0.00  0.00    +0.128 C 
ATOM     20  N   UNL     1       0.675  -0.478   1.198  0.00  0.00    -0.362 N 
ATOM     21  N   UNL     1       0.510  -1.391   3.410  0.00  0.00    -0.325 N 
ATOM     22  C   UNL     1       0.768  -0.489  -1.231  0.00  0.00    +0.034 C 
ATOM     23  H   UNL     1       1.468  -1.394   3.562  0.00  0.00    +0.148 HD
ATOM     24  H   UNL     1       1.644  -0.455   1.239  0.00  0.00    +0.162 HD
ENDBRANCH  14  21
ENDBRANCH   1  14
TORSDOF 5
