REMARK  Name = ZINC35069792
REMARK  13 active torsions:
REMARK  status: ('A' for Active; 'I' for Inactive)
REMARK    1  A    between atoms: C_1  and  C_2
REMARK    2  A    between atoms: C_5  and  N_9
REMARK    3  A    between atoms: C_7  and  C_8
REMARK    4  A    between atoms: C_19  and  C_20
REMARK    5  A    between atoms: C_20  and  C_22
REMARK    6  A    between atoms: C_20  and  N_23
REMARK    7  A    between atoms: N_23  and  C_24
REMARK    8  A    between atoms: C_24  and  C_25
REMARK    9  A    between atoms: C_25  and  O_26
REMARK   10  A    between atoms: O_26  and  C_27
REMARK   11  A    between atoms: N_30  and  C_31
REMARK   12  A    between atoms: C_34  and  S_37
REMARK   13  A    between atoms: S_37  and  C_38
REMARK                            x       y       z     vdW  Elec       q    Type
REMARK                         _______ _______ _______ _____ _____    ______ ____
ROOT
ATOM      1  N   UNL     1      -0.709  -5.651  -0.871  0.00  0.00    -0.263 N 
ATOM      2  C   UNL     1      -0.788  -6.427   0.235  0.00  0.00    +0.266 A 
ATOM      3  O   UNL     1      -1.854  -6.873   0.620  0.00  0.00    -0.267 OA
ATOM      4  C   UNL     1       0.462  -6.712   0.954  0.00  0.00    +0.065 A 
ATOM      5  C   UNL     1       0.489  -7.500   2.103  0.00  0.00    +0.015 A 
ATOM      6  C   UNL     1       1.689  -7.735   2.737  0.00  0.00    +0.001 A 
ATOM      7  C   UNL     1       2.868  -7.193   2.241  0.00  0.00    +0.002 A 
ATOM      8  C   UNL     1       2.863  -6.411   1.108  0.00  0.00    +0.028 A 
ATOM      9  C   UNL     1       1.660  -6.159   0.447  0.00  0.00    +0.078 A 
ATOM     10  N   UNL     1       1.609  -5.396  -0.673  0.00  0.00    -0.231 NA
ATOM     11  C   UNL     1       0.491  -5.166  -1.291  0.00  0.00    +0.138 A 
ENDROOT
BRANCH   1  16
ATOM     12  C   UNL     1      -5.416  -4.431  -3.795  0.00  0.00    +0.044 C 
ATOM     13  C   UNL     1      -4.166  -4.755  -3.018  0.00  0.00    -0.047 A 
ATOM     14  C   UNL     1      -3.511  -3.759  -2.317  0.00  0.00    +0.005 A 
ATOM     15  C   UNL     1      -2.366  -4.053  -1.605  0.00  0.00    +0.026 A 
ATOM     16  C   UNL     1      -1.871  -5.350  -1.592  0.00  0.00    +0.051 A 
ATOM     17  C   UNL     1      -2.530  -6.348  -2.297  0.00  0.00    +0.030 A 
ATOM     18  C   UNL     1      -3.679  -6.049  -3.003  0.00  0.00    -0.046 A 
ATOM     19  C   UNL     1      -4.399  -7.133  -3.763  0.00  0.00    +0.044 C 
ENDBRANCH   1  16
BRANCH  11  20
ATOM     20  C   UNL     1       0.522  -4.312  -2.533  0.00  0.00    +0.141 C 
ATOM     21  C   UNL     1       1.848  -3.553  -2.597  0.00  0.00    +0.036 C 
BRANCH  20  22
ATOM     22  N   UNL     1       0.390  -5.167  -3.715  0.00  0.00    -0.273 N 
ATOM     23  C   UNL     1      -0.635  -4.980  -4.571  0.00  0.00    +0.307 C 
ATOM     24  O   UNL     1      -1.450  -4.103  -4.360  0.00  0.00    -0.252 OA
ATOM     25  N   UNL     1      -0.756  -5.766  -5.659  0.00  0.00    -0.269 N 
ATOM     26  H   UNL     1      -0.153  -6.515  -5.786  0.00  0.00    +0.156 HD
BRANCH  25  27
ATOM     27  C   UNL     1      -1.753  -5.500  -6.608  0.00  0.00    +0.035 A 
ATOM     28  C   UNL     1      -2.125  -4.189  -6.876  0.00  0.00    +0.024 A 
ATOM     29  C   UNL     1      -3.107  -3.928  -7.810  0.00  0.00    +0.016 A 
ATOM     30  C   UNL     1      -3.723  -4.976  -8.483  0.00  0.00    +0.008 A 
ATOM     31  C   UNL     1      -3.350  -6.287  -8.214  0.00  0.00    +0.016 A 
ATOM     32  C   UNL     1      -2.365  -6.548  -7.284  0.00  0.00    +0.024 A 
BRANCH  30  33
ATOM     33  S   UNL     1      -4.976  -4.642  -9.675  0.00  0.00    -0.129 S 
ATOM     34  C   UNL     1      -5.466  -6.285 -10.268  0.00  0.00    +0.090 C 
ENDBRANCH  30  33
ENDBRANCH  25  27
BRANCH  22  35
ATOM     35  C   UNL     1       1.372  -6.223  -3.969  0.00  0.00    +0.138 C 
BRANCH  35  36
ATOM     36  C   UNL     1       0.864  -7.543  -3.385  0.00  0.00    +0.178 C 
BRANCH  36  37
ATOM     37  O   UNL     1      -0.301  -7.962  -4.098  0.00  0.00    -0.381 OA
ATOM     38  C   UNL     1      -0.904  -9.150  -3.581  0.00  0.00    +0.194 C 
ENDBRANCH  36  37
ENDBRANCH  35  36
ENDBRANCH  22  35
ENDBRANCH  20  22
ENDBRANCH  11  20
TORSDOF 8
