REMARK  Name = ZINC36068711
REMARK  11 active torsions:
REMARK  status: ('A' for Active; 'I' for Inactive)
REMARK    1  A    between atoms: C_1  and  C_2
REMARK    2  A    between atoms: C_2  and  O_3
REMARK    3  A    between atoms: O_3  and  C_4
REMARK    4  A    between atoms: C_4  and  C_6
REMARK    5  A    between atoms: C_12  and  C_14
REMARK    6  A    between atoms: C_17  and  C_19
REMARK    7  A    between atoms: C_19  and  N_20
REMARK    8  A    between atoms: N_20  and  C_21
REMARK    9  A    between atoms: N_20  and  C_29
REMARK   10  A    between atoms: C_21  and  C_22
REMARK   11  A    between atoms: C_29  and  C_30
REMARK                            x       y       z     vdW  Elec       q    Type
REMARK                         _______ _______ _______ _____ _____    ______ ____
ROOT
ATOM      1  C   UNL     1      -4.569  -9.792   0.803  0.00  0.00    +0.020 C 
ENDROOT
BRANCH   1   5
ATOM      2  C   UNL     1      -5.981  -7.058   2.715  0.00  0.00    +0.164 A 
ATOM      3  C   UNL     1      -5.372  -7.762   3.708  0.00  0.00    +0.230 A 
ATOM      4  O   UNL     1      -4.794  -8.828   3.133  0.00  0.00    -0.449 OA
ATOM      5  C   UNL     1      -5.041  -8.781   1.816  0.00  0.00    +0.179 A 
ATOM      6  N   UNL     1      -5.755  -7.728   1.552  0.00  0.00    -0.210 NA
BRANCH   2  13
ATOM      7  C   UNL     1      -7.214  -3.234  -0.297  0.00  0.00    +0.101 C 
ATOM      8  C   UNL     1      -7.474  -2.812   1.151  0.00  0.00    +0.033 C 
ATOM      9  C   UNL     1      -8.082  -3.989   1.920  0.00  0.00    +0.109 C 
ATOM     10  N   UNL     1      -7.195  -5.152   1.781  0.00  0.00    -0.296 N 
ATOM     11  C   UNL     1      -6.807  -5.588   0.433  0.00  0.00    +0.109 C 
ATOM     12  C   UNL     1      -6.214  -4.392  -0.320  0.00  0.00    +0.033 C 
ATOM     13  C   UNL     1      -6.745  -5.807   2.870  0.00  0.00    +0.268 C 
ATOM     14  O   UNL     1      -6.971  -5.366   3.981  0.00  0.00    -0.268 OA
BRANCH   7  15
ATOM     15  C   UNL     1      -6.648  -2.067  -1.066  0.00  0.00    +0.310 C 
ATOM     16  O   UNL     1      -5.558  -2.154  -1.580  0.00  0.00    -0.251 OA
BRANCH  15  17
ATOM     17  O   UNL     1      -7.355  -0.932  -1.180  0.00  0.00    -0.465 OA
BRANCH  17  19
ATOM     18  C   UNL     1      -7.705   1.334  -1.944  0.00  0.00    +0.048 C 
ATOM     19  C   UNL     1      -6.758   0.132  -1.923  0.00  0.00    +0.229 C 
ENDBRANCH  17  19
ENDBRANCH  15  17
ENDBRANCH   7  15
ENDBRANCH   2  13
ENDBRANCH   1   5
BRANCH   1  20
ATOM     20  N   UNL     1      -3.178 -10.163   1.093  0.00  0.00    +0.391 N 
ATOM     21  H   UNL     1      -3.086 -10.388   2.072  0.00  0.00    -0.080 HD
BRANCH  20  22
ATOM     22  C   UNL     1      -2.805 -11.332   0.285  0.00  0.00    -0.042 C 
BRANCH  22  23
ATOM     23  C   UNL     1      -1.421 -11.788   0.671  0.00  0.00    -0.064 A 
ATOM     24  C   UNL     1      -0.317 -11.269   0.020  0.00  0.00    +0.004 A 
ATOM     25  C   UNL     1       0.953 -11.685   0.373  0.00  0.00    +0.038 A 
ATOM     26  C   UNL     1       1.119 -12.623   1.378  0.00  0.00    +0.123 A 
ATOM     27  C   UNL     1       0.012 -13.142   2.029  0.00  0.00    +0.038 A 
ATOM     28  C   UNL     1      -1.256 -12.720   1.678  0.00  0.00    +0.004 A 
ATOM     29  F   UNL     1       2.359 -13.031   1.724  0.00  0.00    -0.205 F 
ENDBRANCH  22  23
ENDBRANCH  20  22
BRANCH  20  30
ATOM     30  C   UNL     1      -2.292  -9.038   0.764  0.00  0.00    -0.039 C 
BRANCH  30  31
ATOM     31  C   UNL     1      -2.593  -7.878   1.678  0.00  0.00    -0.029 A 
ATOM     32  C   UNL     1      -3.217  -6.749   1.181  0.00  0.00    +0.004 A 
ATOM     33  C   UNL     1      -3.493  -5.686   2.019  0.00  0.00    +0.000 A 
ATOM     34  C   UNL     1      -3.145  -5.749   3.356  0.00  0.00    +0.003 A 
ATOM     35  C   UNL     1      -2.521  -6.877   3.855  0.00  0.00    +0.038 A 
ATOM     36  C   UNL     1      -2.249  -7.945   3.017  0.00  0.00    +0.125 A 
ATOM     37  F   UNL     1      -1.644  -9.050   3.505  0.00  0.00    -0.205 F 
ENDBRANCH  30  31
ENDBRANCH  20  30
ENDBRANCH   1  20
TORSDOF 10
