REMARK  Name = ZINC26780632
REMARK  12 active torsions:
REMARK  status: ('A' for Active; 'I' for Inactive)
REMARK    1  A    between atoms: C_1  and  C_2
REMARK    2  A    between atoms: C_4  and  C_34
REMARK    3  A    between atoms: C_5  and  C_33
REMARK    4  A    between atoms: C_6  and  O_8
REMARK    5  A    between atoms: O_8  and  C_9
REMARK    6  A    between atoms: C_9  and  C_10
REMARK    7  A    between atoms: C_10  and  C_12
REMARK    8  A    between atoms: C_10  and  O_32
REMARK    9  A    between atoms: C_12  and  N_13
REMARK   10  A    between atoms: N_16  and  C_19
REMARK   11  A    between atoms: C_19  and  C_20
REMARK   12  A    between atoms: C_19  and  C_26
REMARK                            x       y       z     vdW  Elec       q    Type
REMARK                         _______ _______ _______ _____ _____    ______ ____
ROOT
ATOM      1  N   UNL     1       8.386  -1.205  -0.382  0.00  0.00    -0.303 NA
ATOM      2  C   UNL     1       8.377  -2.125   0.764  0.00  0.00    +0.066 C 
ATOM      3  C   UNL     1       9.692  -2.907   0.796  0.00  0.00    -0.062 C 
ATOM      4  N   UNL     1      10.817  -1.966   0.888  0.00  0.00    +0.389 N 
ATOM      5  C   UNL     1      10.825  -1.046  -0.258  0.00  0.00    -0.062 C 
ATOM      6  C   UNL     1       9.510  -0.264  -0.290  0.00  0.00    +0.066 C 
ATOM      7  H   UNL     1      10.686  -1.368   1.802  0.00  0.00    -0.080 HD
ENDROOT
BRANCH   1   8
ATOM      8  C   UNL     1       7.107  -0.489  -0.492  0.00  0.00    +0.119 C 
BRANCH   8   9
ATOM      9  C   UNL     1       5.995  -1.482  -0.834  0.00  0.00    +0.166 C 
BRANCH   9  10
ATOM     10  O   UNL     1       6.291  -2.120  -2.078  0.00  0.00    -0.387 OA
ATOM     11  H   UNL     1       7.215  -2.707  -2.188  0.00  0.00    +0.210 HD
ENDBRANCH   9  10
BRANCH   9  12
ATOM     12  C   UNL     1       4.663  -0.736  -0.948  0.00  0.00    +0.261 C 
BRANCH  12  13
ATOM     13  O   UNL     1       3.607  -1.676  -1.153  0.00  0.00    -0.489 OA
BRANCH  13  19
ATOM     14  C   UNL     1       0.628   2.189  -1.248  0.00  0.00    +0.044 C 
ATOM     15  C   UNL     1       0.859   0.702  -1.327  0.00  0.00    -0.047 A 
ATOM     16  C   UNL     1      -0.209  -0.153  -1.527  0.00  0.00    +0.007 A 
ATOM     17  C   UNL     1      -0.000  -1.518  -1.600  0.00  0.00    -0.044 A 
ATOM     18  C   UNL     1       1.277  -2.030  -1.475  0.00  0.00    -0.006 A 
ATOM     19  C   UNL     1       2.350  -1.175  -1.275  0.00  0.00    +0.124 A 
ATOM     20  C   UNL     1       2.138   0.195  -1.201  0.00  0.00    +0.049 A 
ATOM     21  C   UNL     1       1.504  -3.518  -1.556  0.00  0.00    +0.048 C 
ATOM     22  C   UNL     1      -1.167  -2.447  -1.818  0.00  0.00    +0.044 C 
ENDBRANCH  13  19
ENDBRANCH  12  13
ENDBRANCH   9  12
ENDBRANCH   8   9
ENDBRANCH   1   8
BRANCH   4  23
ATOM     23  C   UNL     1      12.095  -2.682   0.998  0.00  0.00    -0.007 C 
BRANCH  23  24
ATOM     24  C   UNL     1      13.204  -1.694   1.255  0.00  0.00    -0.057 A 
ATOM     25  C   UNL     1      13.022  -0.674   2.170  0.00  0.00    +0.002 A 
ATOM     26  C   UNL     1      14.041   0.230   2.409  0.00  0.00    +0.000 A 
ATOM     27  C   UNL     1      15.238   0.119   1.726  0.00  0.00    +0.000 A 
ATOM     28  C   UNL     1      15.417  -0.898   0.807  0.00  0.00    +0.000 A 
ATOM     29  C   UNL     1      14.400  -1.804   0.571  0.00  0.00    +0.002 A 
ENDBRANCH  23  24
BRANCH  23  30
ATOM     30  C   UNL     1      12.024  -3.665   2.138  0.00  0.00    -0.057 A 
ATOM     31  C   UNL     1      11.493  -3.276   3.353  0.00  0.00    +0.002 A 
ATOM     32  C   UNL     1      11.423  -4.179   4.398  0.00  0.00    +0.000 A 
ATOM     33  C   UNL     1      11.894  -5.468   4.229  0.00  0.00    +0.000 A 
ATOM     34  C   UNL     1      12.431  -5.855   3.016  0.00  0.00    +0.000 A 
ATOM     35  C   UNL     1      12.495  -4.953   1.970  0.00  0.00    +0.002 A 
ENDBRANCH  23  30
ENDBRANCH   4  23
TORSDOF 9
