REMARK  Name = ZINC39964655
REMARK  8 active torsions:
REMARK  status: ('A' for Active; 'I' for Inactive)
REMARK    1  A    between atoms: C_1  and  C_2
REMARK    2  A    between atoms: C_5  and  N_9
REMARK    3  A    between atoms: C_7  and  C_8
REMARK    4  A    between atoms: C_19  and  C_23
REMARK    5  A    between atoms: C_19  and  C_37
REMARK    6  A    between atoms: C_24  and  C_36
REMARK    7  A    between atoms: N_27  and  C_30
REMARK    8  A    between atoms: C_28  and  O_29
REMARK                            x       y       z     vdW  Elec       q    Type
REMARK                         _______ _______ _______ _____ _____    ______ ____
ROOT
ATOM      1  N   UNL     1      -1.842  -4.143  -0.878  0.00  0.00    -0.234 N 
ATOM      2  C   UNL     1      -1.163  -4.939  -1.889  0.00  0.00    +0.183 C 
ATOM      3  C   UNL     1      -0.120  -5.875  -1.242  0.00  0.00    +0.144 C 
ATOM      4  C   UNL     1      -0.633  -6.396   0.071  0.00  0.00    +0.248 C 
ATOM      5  O   UNL     1      -0.184  -7.579   0.519  0.00  0.00    -0.273 OA
ATOM      6  N   UNL     1      -1.496  -5.740   0.786  0.00  0.00    -0.127 NA
ATOM      7  C   UNL     1      -2.026  -4.590   0.374  0.00  0.00    +0.334 C 
ATOM      8  O   UNL     1      -2.677  -3.923   1.156  0.00  0.00    -0.250 OA
ATOM      9  C   UNL     1      -0.115  -7.038  -2.273  0.00  0.00    +0.187 C 
ATOM     10  C   UNL     1      -1.542  -7.043  -2.788  0.00  0.00    +0.235 C 
ATOM     11  O   UNL     1      -2.091  -7.985  -3.319  0.00  0.00    -0.274 OA
ATOM     12  N   UNL     1      -2.109  -5.829  -2.575  0.00  0.00    -0.295 N 
ATOM     13  H   UNL     1      -3.012  -5.582  -2.831  0.00  0.00    +0.151 HD
ENDROOT
BRANCH   1  18
ATOM     14  C   UNL     1      -3.747   1.017  -2.264  0.00  0.00    +0.044 C 
ATOM     15  C   UNL     1      -3.241  -0.354  -1.896  0.00  0.00    -0.047 A 
ATOM     16  C   UNL     1      -2.201  -0.486  -0.994  0.00  0.00    +0.005 A 
ATOM     17  C   UNL     1      -1.735  -1.741  -0.654  0.00  0.00    +0.024 A 
ATOM     18  C   UNL     1      -2.312  -2.871  -1.220  0.00  0.00    +0.040 A 
ATOM     19  C   UNL     1      -3.356  -2.734  -2.125  0.00  0.00    +0.027 A 
ATOM     20  C   UNL     1      -3.821  -1.477  -2.457  0.00  0.00    -0.046 A 
ATOM     21  C   UNL     1      -4.957  -1.328  -3.435  0.00  0.00    +0.044 C 
ENDBRANCH   1  18
BRANCH   9  22
ATOM     22  C   UNL     1       0.855  -6.755  -3.391  0.00  0.00    +0.061 A 
ATOM     23  C   UNL     1       0.792  -7.277  -4.687  0.00  0.00    +0.069 A 
ATOM     24  N   UNL     1       1.802  -6.805  -5.373  0.00  0.00    -0.168 NA
ATOM     25  N   UNL     1       2.548  -5.963  -4.538  0.00  0.00    -0.200 N 
ATOM     26  C   UNL     1       1.942  -5.941  -3.321  0.00  0.00    +0.220 A 
ATOM     27  C   UNL     1      -0.260  -8.223  -5.206  0.00  0.00    +0.068 C 
BRANCH  25  28
ATOM     28  C   UNL     1       3.708  -5.262  -4.896  0.00  0.00    +0.069 A 
ATOM     29  C   UNL     1       3.956  -4.007  -4.357  0.00  0.00    +0.028 A 
ATOM     30  C   UNL     1       5.101  -3.319  -4.711  0.00  0.00    +0.002 A 
ATOM     31  C   UNL     1       5.998  -3.880  -5.601  0.00  0.00    +0.000 A 
ATOM     32  C   UNL     1       5.754  -5.130  -6.139  0.00  0.00    +0.002 A 
ATOM     33  C   UNL     1       4.614  -5.825  -5.785  0.00  0.00    +0.028 A 
ENDBRANCH  25  28
BRANCH  26  35
ATOM     34  H   UNL     1       2.963  -5.719  -1.662  0.00  0.00    +0.294 HD
ATOM     35  O   UNL     1       2.349  -5.238  -2.234  0.00  0.00    -0.492 OA
ENDBRANCH  26  35
ENDBRANCH   9  22
BRANCH   9  36
ATOM     36  C   UNL     1       0.218  -8.366  -1.589  0.00  0.00    +0.409 C 
ATOM     37  F   UNL     1      -0.883  -8.793  -0.840  0.00  0.00    -0.169 F 
ATOM     38  F   UNL     1       0.524  -9.326  -2.560  0.00  0.00    -0.169 F 
ATOM     39  F   UNL     1       1.319  -8.191  -0.743  0.00  0.00    -0.169 F 
ENDBRANCH   9  36
TORSDOF 5
