REMARK  Name = ZINC38926161
REMARK  6 active torsions:
REMARK  status: ('A' for Active; 'I' for Inactive)
REMARK    1  A    between atoms: C_1  and  C_2
REMARK    2  A    between atoms: C_7  and  O_8
REMARK    3  A    between atoms: O_8  and  C_9
REMARK    4  A    between atoms: C_9  and  C_10
REMARK    5  A    between atoms: N_21  and  N_22
REMARK    6  A    between atoms: C_23  and  C_24
REMARK                            x       y       z     vdW  Elec       q    Type
REMARK                         _______ _______ _______ _____ _____    ______ ____
ROOT
ATOM      1  C   UNL     1       0.051   0.111   4.806  0.00  0.00    +0.222 C 
ATOM      2  N   UNL     1       1.240   0.971   4.768  0.00  0.00    -0.321 N 
ATOM      3  C   UNL     1       1.259   2.036   3.875  0.00  0.00    +0.041 A 
ATOM      4  C   UNL     1       2.438   2.511   3.325  0.00  0.00    +0.024 A 
ATOM      5  C   UNL     1       2.401   3.569   2.438  0.00  0.00    +0.002 A 
ATOM      6  C   UNL     1       1.194   4.159   2.093  0.00  0.00    +0.001 A 
ATOM      7  C   UNL     1       0.011   3.700   2.633  0.00  0.00    +0.015 A 
ATOM      8  C   UNL     1       0.033   2.635   3.531  0.00  0.00    +0.059 A 
ATOM      9  C   UNL     1      -1.199   2.112   4.145  0.00  0.00    +0.269 C 
ATOM     10  O   UNL     1      -2.236   2.743   4.077  0.00  0.00    -0.268 OA
ATOM     11  N   UNL     1      -1.163   0.926   4.781  0.00  0.00    -0.165 N 
ATOM     12  H   UNL     1       1.994   0.801   5.353  0.00  0.00    +0.148 HD
ENDROOT
BRANCH  11  13
ATOM     13  N   UNL     1      -2.315   0.464   5.431  0.00  0.00    -0.183 NA
ATOM     14  C   UNL     1      -2.332  -0.733   5.961  0.00  0.00    +0.136 C 
BRANCH  14  15
ATOM     15  C   UNL     1      -3.515  -1.235   6.520  0.00  0.00    +0.000 C 
ATOM     16  C   UNL     1      -3.701  -2.476   7.125  0.00  0.00    +0.004 A 
ATOM     17  C   UNL     1      -2.830  -3.563   7.360  0.00  0.00    +0.010 A 
ATOM     18  C   UNL     1      -3.295  -4.674   7.985  0.00  0.00    +0.001 A 
ATOM     19  C   UNL     1      -4.623  -4.776   8.408  0.00  0.00    +0.002 A 
ATOM     20  C   UNL     1      -5.513  -3.773   8.216  0.00  0.00    +0.026 A 
ATOM     21  C   UNL     1      -5.102  -2.578   7.569  0.00  0.00    +0.043 A 
ATOM     22  N   UNL     1      -5.761  -1.479   7.268  0.00  0.00    -0.380 N 
ATOM     23  C   UNL     1      -4.856  -0.539   6.600  0.00  0.00    +0.150 C 
ATOM     24  H   UNL     1      -6.698  -1.315   7.461  0.00  0.00    +0.160 HD
ENDBRANCH  14  15
ENDBRANCH  11  13
BRANCH   1  25
ATOM     25  C   UNL     1       0.061  -0.821   3.592  0.00  0.00    +0.273 C 
BRANCH  25  26
ATOM     26  O   UNL     1       0.041  -0.043   2.394  0.00  0.00    -0.488 OA
BRANCH  26  33
ATOM     27  C   UNL     1       0.001   1.478   0.014  0.00  0.00    +0.047 C 
ATOM     28  C   UNL     1       0.028  -0.029   0.015  0.00  0.00    -0.009 A 
ATOM     29  C   UNL     1       0.040  -0.722  -1.180  0.00  0.00    +0.007 A 
ATOM     30  C   UNL     1       0.064  -2.104  -1.179  0.00  0.00    +0.000 A 
ATOM     31  C   UNL     1       0.077  -2.797   0.017  0.00  0.00    +0.004 A 
ATOM     32  C   UNL     1       0.066  -2.109   1.215  0.00  0.00    +0.046 A 
ATOM     33  C   UNL     1       0.047  -0.722   1.217  0.00  0.00    +0.124 A 
ENDBRANCH  26  33
ENDBRANCH  25  26
ENDBRANCH   1  25
TORSDOF 5
