REMARK  Name = ZINC06888513
REMARK  4 active torsions:
REMARK  status: ('A' for Active; 'I' for Inactive)
REMARK    1  A    between atoms: C_1  and  C_2
REMARK    2  A    between atoms: N_6  and  C_7
REMARK    3  A    between atoms: N_8  and  N_9
REMARK    4  A    between atoms: C_10  and  C_11
REMARK                            x       y       z     vdW  Elec       q    Type
REMARK                         _______ _______ _______ _____ _____    ______ ____
ROOT
ATOM      1  C   UNL     1      -2.637   1.336   0.049  0.00  0.00    +0.020 A 
ATOM      2  C   UNL     1      -3.382   2.474   0.069  0.00  0.00    +0.093 A 
ATOM      3  N   UNL     1      -2.561   3.561   0.102  0.00  0.00    -0.360 N 
ATOM      4  H   UNL     1      -2.861   4.483   0.119  0.00  0.00    +0.165 HD
ATOM      5  C   UNL     1      -1.240   3.163   0.089  0.00  0.00    +0.047 A 
ATOM      6  C   UNL     1      -1.225   1.758   0.058  0.00  0.00    +0.009 A 
ATOM      7  C   UNL     1      -0.011   1.074   0.047  0.00  0.00    +0.026 A 
ATOM      8  C   UNL     1       1.171   1.782   0.055  0.00  0.00    +0.019 A 
ATOM      9  C   UNL     1       1.157   3.170   0.079  0.00  0.00    +0.017 A 
ATOM     10  C   UNL     1      -0.036   3.859   0.097  0.00  0.00    +0.027 A 
ATOM     11 BR   UNL     1       2.821   0.859   0.032  0.00  0.00    -0.050 Br
ENDROOT
BRANCH   1  13
ATOM     12  N   UNL     1      -2.307  -1.042   0.005  0.00  0.00    -0.172 NA
ATOM     13  C   UNL     1      -3.141  -0.046   0.023  0.00  0.00    +0.143 C 
BRANCH  12  21
ATOM     14  C   UNL     1      -0.731  -3.143  -1.056  0.00  0.00    +0.066 C 
ATOM     15  C   UNL     1      -2.059  -3.399  -0.391  0.00  0.00    +0.049 A 
ATOM     16  C   UNL     1      -2.523  -4.646  -0.290  0.00  0.00    +0.071 A 
ATOM     17  S   UNL     1      -4.079  -4.402   0.551  0.00  0.00    -0.056 S 
ATOM     18  C   UNL     1      -3.992  -2.625   0.714  0.00  0.00    +0.189 A 
ATOM     19  N   UNL     1      -4.848  -1.798   1.262  0.00  0.00    -0.263 NA
ATOM     20  C   UNL     1      -6.085  -2.312   1.857  0.00  0.00    +0.173 C 
ATOM     21  N   UNL     1      -2.783  -2.356   0.105  0.00  0.00    -0.213 N 
ENDBRANCH  12  21
ENDBRANCH   1  13
TORSDOF 2
