REMARK  Name = ZINC32899926
REMARK  4 active torsions:
REMARK  status: ('A' for Active; 'I' for Inactive)
REMARK    1  A    between atoms: C_3  and  N_17
REMARK    2  A    between atoms: C_6  and  C_7
REMARK    3  A    between atoms: N_17  and  S_18
REMARK    4  A    between atoms: S_18  and  C_21
REMARK                            x       y       z     vdW  Elec       q    Type
REMARK                         _______ _______ _______ _____ _____    ______ ____
ROOT
ATOM      1  N   UNL     1      -1.265   2.118   0.001  0.00  0.00    -0.216 N 
ATOM      2  H   UNL     1      -1.665   2.594  -0.907  0.00  0.00    +0.174 HD
ENDROOT
BRANCH   1   5
ATOM      3  C   UNL     1       1.481  -0.323  -0.059  0.00  0.00    +0.006 A 
ATOM      4  C   UNL     1       0.205   0.205  -0.049  0.00  0.00    +0.025 A 
ATOM      5  C   UNL     1       0.025   1.581  -0.004  0.00  0.00    +0.048 A 
ATOM      6  C   UNL     1       1.129   2.423   0.032  0.00  0.00    +0.025 A 
ATOM      7  C   UNL     1       2.403   1.889   0.022  0.00  0.00    +0.006 A 
ATOM      8  C   UNL     1       2.579   0.518  -0.024  0.00  0.00    -0.041 A 
BRANCH   8   9
ATOM      9  C   UNL     1       3.970  -0.061  -0.035  0.00  0.00    -0.003 C 
ATOM     10  C   UNL     1       4.171  -0.880  -1.312  0.00  0.00    +0.015 C 
ATOM     11  C   UNL     1       5.584  -1.468  -1.323  0.00  0.00    -0.010 C 
ATOM     12  C   UNL     1       6.609  -0.333  -1.278  0.00  0.00    +0.007 C 
ATOM     13  C   UNL     1       6.408   0.485  -0.002  0.00  0.00    -0.010 C 
ATOM     14  C   UNL     1       4.995   1.073   0.010  0.00  0.00    +0.015 C 
ATOM     15  C   UNL     1       6.594  -0.419   1.219  0.00  0.00    +0.007 C 
ATOM     16  C   UNL     1       5.569  -1.554   1.174  0.00  0.00    -0.010 C 
ATOM     17  C   UNL     1       5.770  -2.372  -0.103  0.00  0.00    +0.007 C 
ATOM     18  C   UNL     1       4.156  -0.966   1.185  0.00  0.00    +0.015 C 
ENDBRANCH   8   9
ENDBRANCH   1   5
BRANCH   1  19
ATOM     19  S   UNL     1      -2.191   2.038   1.371  0.00  0.00    +0.072 S 
ATOM     20  O   UNL     1      -3.408   2.711   1.079  0.00  0.00    -0.150 OA
ATOM     21  O   UNL     1      -2.153   0.687   1.809  0.00  0.00    -0.150 OA
BRANCH  19  22
ATOM     22  C   UNL     1      -1.373   2.991   2.608  0.00  0.00    +0.110 A 
ATOM     23  C   UNL     1      -0.412   2.402   3.409  0.00  0.00    +0.032 A 
ATOM     24  C   UNL     1       0.238   3.144   4.378  0.00  0.00    +0.049 A 
ATOM     25  C   UNL     1      -0.082   4.479   4.554  0.00  0.00    +0.142 A 
ATOM     26  C   UNL     1      -1.056   5.071   3.752  0.00  0.00    +0.078 A 
ATOM     27  C   UNL     1      -1.700   4.324   2.779  0.00  0.00    +0.055 A 
ATOM     28  N   UNL     1      -1.373   6.424   3.943  0.00  0.00    -0.280 N 
ATOM     29  C   UNL     1      -0.530   7.198   4.661  0.00  0.00    +0.255 C 
ATOM     30  O   UNL     1      -0.799   8.363   4.865  0.00  0.00    -0.272 OA
ATOM     31  C   UNL     1       0.744   6.607   5.209  0.00  0.00    +0.325 C 
ATOM     32  O   UNL     1       0.544   5.223   5.505  0.00  0.00    -0.481 OA
ATOM     33  H   UNL     1      -2.295   6.839   3.510  0.00  0.00    +0.155 HD
ENDBRANCH  19  22
ENDBRANCH   1  19
TORSDOF 4
