REMARK  Name = ZINC23970376
REMARK  11 active torsions:
REMARK  status: ('A' for Active; 'I' for Inactive)
REMARK    1  A    between atoms: C_1  and  C_2
REMARK    2  A    between atoms: C_8  and  N_10
REMARK    3  A    between atoms: C_14  and  C_16
REMARK    4  A    between atoms: C_16  and  S_17
REMARK    5  A    between atoms: S_17  and  C_18
REMARK    6  A    between atoms: C_21  and  C_30
REMARK    7  A    between atoms: N_22  and  C_23
REMARK    8  A    between atoms: C_30  and  C_32
REMARK    9  A    between atoms: C_30  and  N_33
REMARK   10  A    between atoms: N_33  and  C_34
REMARK   11  A    between atoms: N_33  and  C_35
REMARK                            x       y       z     vdW  Elec       q    Type
REMARK                         _______ _______ _______ _____ _____    ______ ____
ROOT
ATOM      1  C   UNL     1      -1.709   1.716  -3.163  0.00  0.00    +0.197 A 
ATOM      2  N   UNL     1      -1.761   2.877  -2.553  0.00  0.00    -0.122 NA
ATOM      3  N   UNL     1      -1.190   2.793  -1.405  0.00  0.00    -0.135 NA
ATOM      4  C   UNL     1      -0.742   1.585  -1.213  0.00  0.00    +0.125 A 
ATOM      5  N   UNL     1      -1.050   0.854  -2.329  0.00  0.00    -0.275 N 
ENDROOT
BRANCH   5   6
ATOM      6  C   UNL     1      -0.756  -0.497  -2.567  0.00  0.00    +0.050 A 
ATOM      7  C   UNL     1       0.564  -0.910  -2.686  0.00  0.00    +0.028 A 
ATOM      8  C   UNL     1       0.852  -2.241  -2.915  0.00  0.00    +0.022 A 
ATOM      9  C   UNL     1      -0.175  -3.161  -3.036  0.00  0.00    +0.041 A 
ATOM     10  C   UNL     1      -1.492  -2.751  -2.923  0.00  0.00    +0.022 A 
ATOM     11  C   UNL     1      -1.784  -1.421  -2.689  0.00  0.00    +0.028 A 
ATOM     12 CL   UNL     1       0.189  -4.832  -3.332  0.00  0.00    -0.084 Cl
ENDBRANCH   5   6
BRANCH   4  13
ATOM     13  C   UNL     1      -0.013   1.086   0.008  0.00  0.00    -0.003 C 
ATOM     14  C   UNL     1       1.423   1.615  -0.003  0.00  0.00    -0.005 C 
BRANCH  13  15
ATOM     15  N   UNL     1      -0.700   1.560   1.217  0.00  0.00    +0.382 N 
ATOM     16  C   UNL     1      -0.087   0.995   2.426  0.00  0.00    -0.096 C 
ATOM     17  C   UNL     1      -0.718   3.027   1.271  0.00  0.00    -0.096 C 
ATOM     18  H   UNL     1      -1.743   1.211   1.171  0.00  0.00    -0.082 HD
ENDBRANCH  13  15
ENDBRANCH   4  13
BRANCH   1  19
ATOM     19  S   UNL     1      -2.358   1.340  -4.758  0.00  0.00    -0.076 S 
BRANCH  19  20
ATOM     20  C   UNL     1      -3.047   2.953  -5.205  0.00  0.00    +0.173 C 
BRANCH  20  25
ATOM     21  N   UNL     1      -5.395   4.973  -8.881  0.00  0.00    -0.296 N 
ATOM     22  C   UNL     1      -4.815   3.884  -8.338  0.00  0.00    +0.306 C 
ATOM     23  O   UNL     1      -4.798   2.835  -8.952  0.00  0.00    -0.252 OA
ATOM     24  N   UNL     1      -4.254   3.959  -7.115  0.00  0.00    -0.239 N 
ATOM     25  C   UNL     1      -3.674   2.870  -6.572  0.00  0.00    +0.231 C 
ATOM     26  O   UNL     1      -3.657   1.823  -7.185  0.00  0.00    -0.274 OA
ATOM     27  H   UNL     1      -5.411   5.922  -8.326  0.00  0.00    +0.151 HD
ATOM     28  H   UNL     1      -4.270   4.908  -6.560  0.00  0.00    +0.159 HD
BRANCH  21  35
ATOM     29  C   UNL     1      -4.587   6.802 -10.977  0.00  0.00    +0.009 C 
ATOM     30  C   UNL     1      -6.021   6.282 -10.850  0.00  0.00    +0.006 C 
ATOM     31  C   UNL     1      -6.658   6.198 -12.239  0.00  0.00    +0.005 C 
ATOM     32  C   UNL     1      -8.091   5.678 -12.111  0.00  0.00    +0.000 C 
ATOM     33  C   UNL     1      -8.075   4.288 -11.472  0.00  0.00    +0.002 C 
ATOM     34  C   UNL     1      -7.438   4.373 -10.084  0.00  0.00    +0.022 C 
ATOM     35  C   UNL     1      -6.005   4.892 -10.211  0.00  0.00    +0.077 C 
ENDBRANCH  21  35
ENDBRANCH  20  25
ENDBRANCH  19  20
ENDBRANCH   1  19
TORSDOF 7
