REMARK  Name = ZINC03234574
REMARK  9 active torsions:
REMARK  status: ('A' for Active; 'I' for Inactive)
REMARK    1  A    between atoms: C_1  and  C_2
REMARK    2  A    between atoms: C_2  and  C_4
REMARK    3  A    between atoms: C_2  and  N_10
REMARK    4  A    between atoms: C_11  and  C_13
REMARK    5  A    between atoms: C_13  and  O_14
REMARK    6  A    between atoms: O_14  and  C_15
REMARK    7  A    between atoms: C_15  and  C_17
REMARK    8  A    between atoms: N_19  and  C_27
REMARK    9  A    between atoms: C_21  and  C_22
REMARK                            x       y       z     vdW  Elec       q    Type
REMARK                         _______ _______ _______ _____ _____    ______ ____
ROOT
ATOM      1  C   UNL     1      -5.175  -1.688   2.723  0.00  0.00    +0.343 C 
ATOM      2  O   UNL     1      -5.849  -2.018   1.768  0.00  0.00    -0.245 OA
ENDROOT
BRANCH   1   3
ATOM      3  C   UNL     1      -5.730  -1.778   4.082  0.00  0.00    +0.105 A 
ATOM      4  C   UNL     1      -5.095  -1.438   5.260  0.00  0.00    +0.130 A 
ATOM      5  N   UNL     1      -5.949  -1.671   6.271  0.00  0.00    -0.238 N 
ATOM      6  N   UNL     1      -7.154  -2.167   5.766  0.00  0.00    -0.165 NA
ATOM      7  C   UNL     1      -7.072  -2.243   4.455  0.00  0.00    +0.114 A 
BRANCH   5   8
ATOM      8  C   UNL     1      -5.672  -1.450   7.626  0.00  0.00    +0.065 A 
ATOM      9  C   UNL     1      -4.437  -0.947   8.012  0.00  0.00    +0.028 A 
ATOM     10  C   UNL     1      -4.168  -0.730   9.349  0.00  0.00    +0.002 A 
ATOM     11  C   UNL     1      -5.127  -1.014  10.304  0.00  0.00    +0.000 A 
ATOM     12  C   UNL     1      -6.358  -1.515   9.923  0.00  0.00    +0.002 A 
ATOM     13  C   UNL     1      -6.636  -1.728   8.587  0.00  0.00    +0.028 A 
ENDBRANCH   5   8
BRANCH   7  14
ATOM     14  C   UNL     1      -8.127  -2.711   3.534  0.00  0.00    +0.040 A 
ATOM     15  C   UNL     1      -9.067  -3.690   3.724  0.00  0.00    +0.018 A 
ATOM     16  C   UNL     1      -9.960  -3.954   2.710  0.00  0.00    +0.008 A 
ATOM     17  C   UNL     1      -9.884  -3.240   1.557  0.00  0.00    +0.046 A 
ATOM     18  S   UNL     1      -8.516  -2.142   1.887  0.00  0.00    -0.095 S 
ENDBRANCH   7  14
ENDBRANCH   1   3
BRANCH   1  19
ATOM     19  O   UNL     1      -3.917  -1.239   2.538  0.00  0.00    -0.452 OA
BRANCH  19  20
ATOM     20  C   UNL     1      -3.442  -1.177   1.191  0.00  0.00    +0.328 C 
BRANCH  20  22
ATOM     21  N   UNL     1      -1.372  -0.511   0.012  0.00  0.00    -0.306 N 
ATOM     22  C   UNL     1      -2.029  -0.655   1.181  0.00  0.00    +0.251 C 
ATOM     23  O   UNL     1      -1.481  -0.365   2.224  0.00  0.00    -0.272 OA
ATOM     24  H   UNL     1      -1.810  -0.743  -0.822  0.00  0.00    +0.149 HD
BRANCH  21  26
ATOM     25  C   UNL     1      -0.019   1.526   0.010  0.00  0.00    +0.033 C 
ATOM     26  C   UNL     1       0.002  -0.004   0.002  0.00  0.00    +0.100 C 
BRANCH  26  27
ATOM     27  C   UNL     1       0.707  -0.490  -1.238  0.00  0.00    -0.027 A 
ATOM     28  C   UNL     1       0.038  -0.522  -2.447  0.00  0.00    +0.005 A 
ATOM     29  C   UNL     1       0.685  -0.967  -3.584  0.00  0.00    +0.000 A 
ATOM     30  C   UNL     1       2.002  -1.381  -3.513  0.00  0.00    +0.000 A 
ATOM     31  C   UNL     1       2.672  -1.349  -2.304  0.00  0.00    +0.000 A 
ATOM     32  C   UNL     1       2.026  -0.899  -1.167  0.00  0.00    +0.005 A 
ENDBRANCH  26  27
ENDBRANCH  21  26
ENDBRANCH  20  22
ENDBRANCH  19  20
ENDBRANCH   1  19
TORSDOF 8
