REMARK  Name = ZINC01936435
REMARK  10 active torsions:
REMARK  status: ('A' for Active; 'I' for Inactive)
REMARK    1  A    between atoms: C_1  and  C_2
REMARK    2  A    between atoms: C_2  and  C_3
REMARK    3  A    between atoms: C_2  and  C_4
REMARK    4  A    between atoms: C_9  and  O_10
REMARK    5  A    between atoms: O_10  and  C_11
REMARK    6  A    between atoms: C_16  and  O_22
REMARK    7  A    between atoms: O_22  and  C_23
REMARK    8  A    between atoms: C_23  and  C_24
REMARK    9  A    between atoms: N_26  and  C_27
REMARK   10  A    between atoms: C_28  and  C_35
REMARK                            x       y       z     vdW  Elec       q    Type
REMARK                         _______ _______ _______ _____ _____    ______ ____
ROOT
ATOM      1  C   UNL     1       1.202   6.236  -0.047  0.00  0.00    +0.210 A 
ATOM      2  C   UNL     1       2.329   5.500  -0.128  0.00  0.00    +0.245 A 
ATOM      3  O   UNL     1       2.317   4.163  -0.205  0.00  0.00    -0.459 OA
ATOM      4  C   UNL     1       1.173   3.450  -0.207  0.00  0.00    +0.142 A 
ATOM      5  C   UNL     1       1.195   2.064  -0.287  0.00  0.00    +0.092 A 
ATOM      6  C   UNL     1       0.005   1.357  -0.288  0.00  0.00    +0.125 A 
ATOM      7  C   UNL     1      -1.216   2.024  -0.213  0.00  0.00    +0.046 A 
ATOM      8  C   UNL     1      -1.255   3.386  -0.128  0.00  0.00    +0.019 A 
ATOM      9  C   UNL     1      -0.064   4.114  -0.126  0.00  0.00    +0.068 A 
ATOM     10  C   UNL     1      -0.063   5.584  -0.042  0.00  0.00    +0.234 A 
ATOM     11  O   UNL     1      -1.104   6.217   0.031  0.00  0.00    -0.283 OA
ENDROOT
BRANCH   1  12
ATOM     12  O   UNL     1       1.275   7.593   0.029  0.00  0.00    -0.449 OA
BRANCH  12  18
ATOM     13  C   UNL     1       3.225   8.459  -1.023  0.00  0.00    -0.003 A 
ATOM     14  C   UNL     1       4.475   9.038  -0.923  0.00  0.00    +0.007 A 
ATOM     15  C   UNL     1       5.009   9.321   0.320  0.00  0.00    +0.001 A 
ATOM     16  C   UNL     1       4.294   9.027   1.466  0.00  0.00    +0.004 A 
ATOM     17  C   UNL     1       3.041   8.453   1.372  0.00  0.00    +0.046 A 
ATOM     18  C   UNL     1       2.505   8.162   0.125  0.00  0.00    +0.132 A 
BRANCH  13  20
ATOM     19  C   UNL     1       2.517   9.444  -3.187  0.00  0.00    +0.012 C 
ATOM     20  C   UNL     1       2.643   8.150  -2.379  0.00  0.00    +0.016 C 
ATOM     21  C   UNL     1       3.562   7.175  -3.118  0.00  0.00    +0.012 C 
ENDBRANCH  13  20
ENDBRANCH  12  18
ENDBRANCH   1  12
BRANCH   6  22
ATOM     22  O   UNL     1       0.028   0.002  -0.367  0.00  0.00    -0.483 OA
BRANCH  22  23
ATOM     23  C   UNL     1      -1.233  -0.670  -0.363  0.00  0.00    +0.324 C 
BRANCH  23  24
ATOM     24  C   UNL     1      -1.011  -2.157  -0.457  0.00  0.00    +0.255 C 
ATOM     25  O   UNL     1       0.117  -2.599  -0.521  0.00  0.00    -0.272 OA
ATOM     26  N   UNL     1      -2.065  -2.997  -0.469  0.00  0.00    -0.276 N 
ATOM     27  H   UNL     1      -2.967  -2.644  -0.418  0.00  0.00    +0.155 HD
BRANCH  26  28
ATOM     28  C   UNL     1      -1.860  -4.367  -0.556  0.00  0.00    +0.090 A 
ATOM     29  C   UNL     1      -2.804  -5.378  -0.577  0.00  0.00    +0.084 A 
ATOM     30  C   UNL     1      -2.322  -6.754  -0.678  0.00  0.00    -0.018 A 
ATOM     31  C   UNL     1      -0.984  -6.887  -0.732  0.00  0.00    -0.004 A 
ATOM     32  S   UNL     1      -0.361  -5.226  -0.656  0.00  0.00    -0.077 S 
ATOM     33  C   UNL     1      -0.564  -8.329  -0.833  0.00  0.00    +0.043 C 
ATOM     34  C   UNL     1      -1.843  -9.076  -1.272  0.00  0.00    +0.010 C 
ATOM     35  C   UNL     1      -2.950  -8.147  -0.736  0.00  0.00    +0.037 C 
BRANCH  29  36
ATOM     36  C   UNL     1      -4.204  -5.086  -0.505  0.00  0.00    +0.102 C 
ATOM     37  N   UNL     1      -5.315  -4.855  -0.448  0.00  0.00    -0.191 NA
ENDBRANCH  29  36
ENDBRANCH  26  28
ENDBRANCH  23  24
ENDBRANCH  22  23
ENDBRANCH   6  22
TORSDOF 8
