REMARK  Name = ZINC09333829
REMARK  3 active torsions:
REMARK  status: ('A' for Active; 'I' for Inactive)
REMARK    1  A    between atoms: C_6  and  C_7
REMARK    2  A    between atoms: C_10  and  C_12
REMARK    3  A    between atoms: C_22  and  C_24
REMARK                            x       y       z     vdW  Elec       q    Type
REMARK                         _______ _______ _______ _____ _____    ______ ____
ROOT
ATOM      1  C   UNL     1      -4.809  -1.052   0.036  0.00  0.00    +0.063 C 
ATOM      2  C   UNL     1      -5.354   0.218   0.147  0.00  0.00    +0.084 C 
ATOM      3  C   UNL     1      -4.503   1.438   0.140  0.00  0.00    +0.153 C 
ATOM      4  N   UNL     1      -3.393   1.536  -0.546  0.00  0.00    -0.283 NA
ATOM      5  N   UNL     1      -5.011   2.480   0.944  0.00  0.00    -0.152 N 
ATOM      6  C   UNL     1      -6.363   2.477   1.211  0.00  0.00    +0.181 C 
ATOM      7  N   UNL     1      -7.237   1.559   0.883  0.00  0.00    -0.152 NA
ATOM      8  C   UNL     1      -6.813   0.432   0.271  0.00  0.00    +0.273 C 
ATOM      9  O   UNL     1      -7.608  -0.387  -0.163  0.00  0.00    -0.268 OA
ATOM     10  S   UNL     1      -6.570   3.992   2.108  0.00  0.00    -0.029 S 
ATOM     11  C   UNL     1      -4.848   4.473   2.155  0.00  0.00    +0.202 C 
ATOM     12  N   UNL     1      -4.276   3.515   1.482  0.00  0.00    -0.160 NA
ATOM     13  H   UNL     1      -2.874   2.355  -0.515  0.00  0.00    +0.188 HD
ENDROOT
BRANCH   1  17
ATOM     14  C   UNL     1      -1.276  -0.801   0.368  0.00  0.00    +0.136 A 
ATOM     15  C   UNL     1      -1.378  -2.138   0.045  0.00  0.00    +0.050 A 
ATOM     16  C   UNL     1      -2.734  -2.414  -0.125  0.00  0.00    +0.050 A 
ATOM     17  C   UNL     1      -3.417  -1.228   0.102  0.00  0.00    +0.129 A 
ATOM     18  O   UNL     1      -2.511  -0.272   0.404  0.00  0.00    -0.455 OA
BRANCH  14  24
ATOM     19  C   UNL     1      -0.052   1.285   0.961  0.00  0.00    +0.013 A 
ATOM     20  C   UNL     1       1.125   1.958   1.211  0.00  0.00    +0.021 A 
ATOM     21  C   UNL     1       2.337   1.291   1.141  0.00  0.00    +0.041 A 
ATOM     22  C   UNL     1       2.375  -0.056   0.820  0.00  0.00    +0.021 A 
ATOM     23  C   UNL     1       1.205  -0.741   0.567  0.00  0.00    +0.013 A 
ATOM     24  C   UNL     1      -0.021  -0.074   0.637  0.00  0.00    +0.017 A 
ATOM     25 CL   UNL     1       3.814   2.146   1.458  0.00  0.00    -0.084 Cl
ENDBRANCH  14  24
ENDBRANCH   1  17
BRANCH  11  26
ATOM     26  C   UNL     1      -4.220   5.678   2.805  0.00  0.00    +0.442 C 
ATOM     27  F   UNL     1      -2.838   5.656   2.592  0.00  0.00    -0.164 F 
ATOM     28  F   UNL     1      -4.760   6.843   2.249  0.00  0.00    -0.164 F 
ATOM     29  F   UNL     1      -4.480   5.654   4.180  0.00  0.00    -0.164 F 
ENDBRANCH  11  26
TORSDOF 3
