REMARK  Name = ZINC41586321
REMARK  14 active torsions:
REMARK  status: ('A' for Active; 'I' for Inactive)
REMARK    1  A    between atoms: C_1  and  C_2
REMARK    2  A    between atoms: C_2  and  C_3
REMARK    3  A    between atoms: C_3  and  O_4
REMARK    4  A    between atoms: O_4  and  C_5
REMARK    5  A    between atoms: C_5  and  C_7
REMARK    6  A    between atoms: C_10  and  O_13
REMARK    7  A    between atoms: O_13  and  C_14
REMARK    8  A    between atoms: C_23  and  O_37
REMARK    9  A    between atoms: C_24  and  C_25
REMARK   10  A    between atoms: C_25  and  N_26
REMARK   11  A    between atoms: C_29  and  C_32
REMARK   12  A    between atoms: C_32  and  O_34
REMARK   13  A    between atoms: O_34  and  C_35
REMARK   14  A    between atoms: C_35  and  C_36
REMARK                            x       y       z     vdW  Elec       q    Type
REMARK                         _______ _______ _______ _____ _____    ______ ____
ROOT
ATOM      1  C   UNL     1       2.174  -8.799   3.533  0.00  0.00    +0.210 A 
ATOM      2  C   UNL     1       2.675  -8.108   4.577  0.00  0.00    +0.245 A 
ATOM      3  O   UNL     1       3.245  -8.702   5.633  0.00  0.00    -0.459 OA
ATOM      4  C   UNL     1       3.362 -10.042   5.732  0.00  0.00    +0.143 A 
ATOM      5  C   UNL     1       2.874 -10.864   4.701  0.00  0.00    +0.068 A 
ATOM      6  C   UNL     1       2.240 -10.222   3.537  0.00  0.00    +0.235 A 
ATOM      7  O   UNL     1       1.793 -10.880   2.613  0.00  0.00    -0.283 OA
ATOM      8  C   UNL     1       2.989 -12.252   4.793  0.00  0.00    +0.019 A 
ATOM      9  C   UNL     1       3.578 -12.811   5.891  0.00  0.00    +0.046 A 
ATOM     10  C   UNL     1       4.065 -12.004   6.917  0.00  0.00    +0.122 A 
ATOM     11  C   UNL     1       3.959 -10.626   6.841  0.00  0.00    +0.020 A 
ENDROOT
BRANCH  10  12
ATOM     12  O   UNL     1       4.648 -12.575   8.002  0.00  0.00    -0.506 OA
ATOM     13  H   UNL     1       5.603 -12.702   7.914  0.00  0.00    +0.292 HD
ENDBRANCH  10  12
BRANCH   1  14
ATOM     14  O   UNL     1       1.605  -8.142   2.486  0.00  0.00    -0.449 OA
BRANCH  14  18
ATOM     15  C   UNL     1       3.506  -8.313  -1.173  0.00  0.00    +0.059 A 
ATOM     16  C   UNL     1       4.109  -8.873  -0.043  0.00  0.00    +0.018 A 
ATOM     17  C   UNL     1       3.471  -8.814   1.175  0.00  0.00    +0.047 A 
ATOM     18  C   UNL     1       2.229  -8.198   1.283  0.00  0.00    +0.129 A 
ATOM     19  C   UNL     1       1.626  -7.640   0.162  0.00  0.00    +0.047 A 
ATOM     20  C   UNL     1       2.259  -7.690  -1.060  0.00  0.00    +0.018 A 
BRANCH  15  21
ATOM     21  C   UNL     1       4.185  -8.374  -2.481  0.00  0.00    +0.339 C 
ATOM     22  O   UNL     1       3.661  -7.883  -3.461  0.00  0.00    -0.245 OA
BRANCH  21  23
ATOM     23  O   UNL     1       5.386  -8.976  -2.589  0.00  0.00    -0.461 OA
BRANCH  23  24
ATOM     24  C   UNL     1       5.986  -8.998  -3.885  0.00  0.00    +0.232 C 
BRANCH  24  26
ATOM     25  C   UNL     1       7.977  -9.741  -5.199  0.00  0.00    +0.007 C 
ATOM     26  C   UNL     1       7.334  -9.717  -3.811  0.00  0.00    +0.038 C 
ENDBRANCH  24  26
ENDBRANCH  23  24
ENDBRANCH  21  23
ENDBRANCH  15  21
ENDBRANCH  14  18
ENDBRANCH   1  14
BRANCH  11  27
ATOM     27  C   UNL     1       4.489  -9.763   7.957  0.00  0.00    -0.036 C 
BRANCH  27  28
ATOM     28  N   UNL     1       3.430  -9.543   8.951  0.00  0.00    +0.383 N 
ATOM     29  C   UNL     1       3.072 -10.822   9.574  0.00  0.00    -0.078 C 
ATOM     30  C   UNL     1       1.914 -10.611  10.552  0.00  0.00    -0.004 C 
ATOM     31  C   UNL     1       2.341  -9.616  11.634  0.00  0.00    +0.094 C 
ATOM     32  C   UNL     1       2.783  -8.310  10.967  0.00  0.00    -0.004 C 
ATOM     33  C   UNL     1       3.909  -8.606   9.975  0.00  0.00    -0.078 C 
ATOM     34  H   UNL     1       2.618  -9.154   8.495  0.00  0.00    -0.081 HD
BRANCH  31  35
ATOM     35  C   UNL     1       1.180  -9.344  12.555  0.00  0.00    +0.310 C 
ATOM     36  O   UNL     1       0.118  -9.889  12.367  0.00  0.00    -0.251 OA
BRANCH  35  37
ATOM     37  O   UNL     1       1.325  -8.496  13.585  0.00  0.00    -0.465 OA
BRANCH  37  38
ATOM     38  C   UNL     1       0.183  -8.285  14.418  0.00  0.00    +0.229 C 
ATOM     39  C   UNL     1       0.537  -7.295  15.529  0.00  0.00    +0.048 C 
ENDBRANCH  37  38
ENDBRANCH  35  37
ENDBRANCH  31  35
ENDBRANCH  27  28
ENDBRANCH  11  27
TORSDOF 12
