REMARK  Name = ZINC41021232
REMARK  10 active torsions:
REMARK  status: ('A' for Active; 'I' for Inactive)
REMARK    1  A    between atoms: C_1  and  C_2
REMARK    2  A    between atoms: C_5  and  C_8
REMARK    3  A    between atoms: C_11  and  C_13
REMARK    4  A    between atoms: C_13  and  C_14
REMARK    5  A    between atoms: C_14  and  C_15
REMARK    6  A    between atoms: N_17  and  C_18
REMARK    7  A    between atoms: C_18  and  C_19
REMARK    8  A    between atoms: C_19  and  C_21
REMARK    9  A    between atoms: C_19  and  N_28
REMARK   10  A    between atoms: C_24  and  C_27
REMARK                            x       y       z     vdW  Elec       q    Type
REMARK                         _______ _______ _______ _____ _____    ______ ____
ROOT
ATOM      1  C   UNL     1       0.780 -10.253   5.185  0.00  0.00    +0.213 C 
ATOM      2  O   UNL     1       0.229  -9.960   4.145  0.00  0.00    -0.276 OA
ATOM      3  N   UNL     1       2.058 -10.682   5.174  0.00  0.00    -0.317 N 
ATOM      4  H   UNL     1       2.498 -10.916   6.005  0.00  0.00    +0.149 HD
ENDROOT
BRANCH   1   5
ATOM      5  C   UNL     1       0.036 -10.137   6.490  0.00  0.00    +0.105 C 
BRANCH   5   6
ATOM      6  C   UNL     1      -1.384  -9.631   6.225  0.00  0.00    +0.105 C 
BRANCH   6  10
ATOM      7  C   UNL     1      -3.363  -9.997   9.252  0.00  0.00    +0.155 A 
ATOM      8  C   UNL     1      -2.921  -8.718   9.365  0.00  0.00    +0.161 A 
ATOM      9  N   UNL     1      -2.165  -8.456   8.289  0.00  0.00    -0.221 NA
ATOM     10  C   UNL     1      -2.128  -9.515   7.530  0.00  0.00    +0.197 A 
ATOM     11  O   UNL     1      -2.854 -10.486   8.101  0.00  0.00    -0.440 OA
BRANCH   7  16
ATOM     12  C   UNL     1      -6.737 -12.800  12.977  0.00  0.00    +0.044 C 
ATOM     13  C   UNL     1      -5.854 -12.066  12.002  0.00  0.00    -0.050 A 
ATOM     14  C   UNL     1      -5.490 -10.755  12.254  0.00  0.00    +0.004 A 
ATOM     15  C   UNL     1      -4.681 -10.077  11.365  0.00  0.00    +0.012 A 
ATOM     16  C   UNL     1      -4.229 -10.717  10.210  0.00  0.00    +0.019 A 
ATOM     17  C   UNL     1      -4.600 -12.040   9.962  0.00  0.00    +0.012 A 
ATOM     18  C   UNL     1      -5.404 -12.708  10.861  0.00  0.00    +0.004 A 
ENDBRANCH   7  16
ENDBRANCH   6  10
ENDBRANCH   5   6
ENDBRANCH   1   5
BRANCH   3  19
ATOM     19  C   UNL     1       2.781 -10.794   3.905  0.00  0.00    +0.093 C 
BRANCH  19  20
ATOM     20  C   UNL     1       4.234 -11.188   4.179  0.00  0.00    -0.020 C 
BRANCH  20  21
ATOM     21  N   UNL     1       4.976 -11.236   2.912  0.00  0.00    +0.385 N 
ATOM     22  C   UNL     1       6.347 -11.709   3.184  0.00  0.00    -0.078 C 
ATOM     23  C   UNL     1       6.894 -12.325   1.921  0.00  0.00    -0.019 C 
ATOM     24  C   UNL     1       7.743 -11.317   1.124  0.00  0.00    -0.002 C 
ATOM     25  C   UNL     1       7.107  -9.912   1.119  0.00  0.00    -0.002 C 
ATOM     26  C   UNL     1       5.612  -9.959   0.935  0.00  0.00    -0.019 C 
ATOM     27  C   UNL     1       4.934  -9.972   2.321  0.00  0.00    -0.078 C 
ATOM     28  H   UNL     1       4.523 -11.895   2.297  0.00  0.00    -0.081 HD
ENDBRANCH  20  21
BRANCH  20  29
ATOM     29  C   UNL     1       4.272 -12.544   4.835  0.00  0.00    -0.059 A 
ATOM     30  C   UNL     1       4.149 -13.687   4.067  0.00  0.00    +0.002 A 
ATOM     31  C   UNL     1       4.184 -14.931   4.669  0.00  0.00    +0.003 A 
ATOM     32  C   UNL     1       4.342 -15.032   6.038  0.00  0.00    -0.050 A 
ATOM     33  C   UNL     1       4.466 -13.889   6.806  0.00  0.00    +0.003 A 
ATOM     34  C   UNL     1       4.435 -12.645   6.204  0.00  0.00    +0.002 A 
ATOM     35  C   UNL     1       4.379 -16.388   6.694  0.00  0.00    +0.044 C 
ENDBRANCH  20  29
ENDBRANCH  19  20
ENDBRANCH   3  19
TORSDOF 8
