REMARK  Name = ZINC20681899
REMARK  6 active torsions:
REMARK  status: ('A' for Active; 'I' for Inactive)
REMARK    1  A    between atoms: C_2  and  C_3
REMARK    2  A    between atoms: C_3  and  N_4
REMARK    3  A    between atoms: C_5  and  C_7
REMARK    4  A    between atoms: C_14  and  C_23
REMARK    5  A    between atoms: C_26  and  O_30
REMARK    6  A    between atoms: C_28  and  O_29
REMARK                            x       y       z     vdW  Elec       q    Type
REMARK                         _______ _______ _______ _____ _____    ______ ____
ROOT
ATOM      1  C   UNL     1       3.953  -3.048  -1.377  0.00  0.00    +0.058 A 
ATOM      2  C   UNL     1       3.164  -4.188  -1.520  0.00  0.00    +0.015 A 
ATOM      3  C   UNL     1       1.817  -4.135  -1.236  0.00  0.00    +0.001 A 
ATOM      4  C   UNL     1       1.250  -2.949  -0.802  0.00  0.00    +0.006 A 
ATOM      5  C   UNL     1       2.015  -1.813  -0.649  0.00  0.00    -0.019 A 
ATOM      6  C   UNL     1       3.382  -1.834  -0.942  0.00  0.00    +0.044 A 
ATOM      7  N   UNL     1       4.218  -0.735  -0.837  0.00  0.00    -0.336 N 
ATOM      8  C   UNL     1       3.625   0.504  -0.307  0.00  0.00    +0.108 C 
ATOM      9  C   UNL     1       2.225   0.606  -0.876  0.00  0.00    +0.029 C 
ATOM     10  C   UNL     1       1.432  -0.540  -0.172  0.00  0.00    +0.049 C 
ATOM     11  C   UNL     1       0.017  -0.167  -0.414  0.00  0.00    -0.023 C 
ATOM     12  C   UNL     1      -0.057   1.155  -0.531  0.00  0.00    -0.030 C 
ATOM     13  C   UNL     1       1.341   1.768  -0.410  0.00  0.00    +0.033 C 
ATOM     14  H   UNL     1       5.278  -0.756  -1.127  0.00  0.00    +0.147 HD
ENDROOT
BRANCH   8  15
ATOM     15  C   UNL     1       4.444   1.692  -0.742  0.00  0.00    +0.015 A 
ATOM     16  C   UNL     1       5.181   1.633  -1.909  0.00  0.00    +0.012 A 
ATOM     17  C   UNL     1       5.932   2.720  -2.311  0.00  0.00    +0.046 A 
ATOM     18  C   UNL     1       5.948   3.876  -1.542  0.00  0.00    +0.120 A 
ATOM     19  C   UNL     1       5.209   3.938  -0.371  0.00  0.00    +0.091 A 
ATOM     20  C   UNL     1       4.452   2.847   0.027  0.00  0.00    +0.125 A 
BRANCH  20  21
ATOM     21  O   UNL     1       3.723   2.906   1.172  0.00  0.00    -0.506 OA
ATOM     22  H   UNL     1       3.730   3.822   1.782  0.00  0.00    +0.292 HD
ENDBRANCH  20  21
BRANCH  18  23
ATOM     23  O   UNL     1       6.687   4.946  -1.938  0.00  0.00    -0.507 OA
ATOM     24  H   UNL     1       6.699   5.861  -1.328  0.00  0.00    +0.292 HD
ENDBRANCH  18  23
ENDBRANCH   8  15
BRANCH   1  26
ATOM     25  N   UNL     1       5.943  -4.269  -2.101  0.00  0.00    -0.308 N 
ATOM     26  C   UNL     1       5.393  -3.111  -1.684  0.00  0.00    +0.246 C 
ATOM     27  O   UNL     1       6.085  -2.119  -1.561  0.00  0.00    -0.270 OA
ATOM     28  H   UNL     1       5.317  -5.166  -2.212  0.00  0.00    +0.149 HD
BRANCH  25  29
ATOM     29  C   UNL     1       7.375  -4.332  -2.405  0.00  0.00    +0.131 C 
BRANCH  29  31
ATOM     30  C   UNL     1       8.332  -5.918  -3.996  0.00  0.00    +0.005 C 
ATOM     31  C   UNL     1       7.734  -5.728  -2.846  0.00  0.00    -0.016 C 
ENDBRANCH  29  31
ENDBRANCH  25  29
ENDBRANCH   1  26
TORSDOF 6
