REMARK  Name = ZINC13151902
REMARK  5 active torsions:
REMARK  status: ('A' for Active; 'I' for Inactive)
REMARK    1  A    between atoms: C_1  and  C_2
REMARK    2  A    between atoms: C_2  and  C_3
REMARK    3  A    between atoms: C_3  and  C_4
REMARK    4  A    between atoms: C_10  and  C_16
REMARK    5  A    between atoms: N_14  and  O_15
REMARK                            x       y       z     vdW  Elec       q    Type
REMARK                         _______ _______ _______ _____ _____    ______ ____
ROOT
ATOM      1  C   UNL     1      -1.413  -2.041   0.005  0.00  0.00    +0.093 A 
ATOM      2  C   UNL     1      -1.407  -2.864  -1.133  0.00  0.00    +0.064 A 
ATOM      3  C   UNL     1      -1.385  -4.170  -0.717  0.00  0.00    +0.147 A 
ATOM      4  O   UNL     1      -1.382  -4.165   0.614  0.00  0.00    -0.359 OA
ATOM      5  N   UNL     1      -1.392  -2.817   1.053  0.00  0.00    -0.082 NA
ATOM      6  C   UNL     1      -1.368  -5.340  -1.666  0.00  0.00    +0.086 C 
ATOM      7  C   UNL     1      -0.872  -4.875  -3.038  0.00  0.00    +0.032 C 
ATOM      8  C   UNL     1      -1.680  -3.667  -3.522  0.00  0.00    +0.068 C 
ATOM      9  C   UNL     1      -1.422  -2.508  -2.571  0.00  0.00    +0.093 C 
ATOM     10  N   UNL     1      -1.229  -1.298  -2.988  0.00  0.00    -0.091 NA
ENDROOT
BRANCH   7  11
ATOM     11  C   UNL     1      -1.021  -6.001  -4.029  0.00  0.00    -0.044 A 
ATOM     12  C   UNL     1      -2.271  -6.531  -4.289  0.00  0.00    +0.004 A 
ATOM     13  C   UNL     1      -2.408  -7.563  -5.198  0.00  0.00    +0.000 A 
ATOM     14  C   UNL     1      -1.296  -8.066  -5.846  0.00  0.00    +0.000 A 
ATOM     15  C   UNL     1      -0.046  -7.536  -5.586  0.00  0.00    +0.000 A 
ATOM     16  C   UNL     1       0.091  -6.500  -4.681  0.00  0.00    +0.004 A 
ENDBRANCH   7  11
BRANCH  10  17
ATOM     17  O   UNL     1      -1.254  -1.014  -4.375  0.00  0.00    -0.409 OA
ATOM     18  H   UNL     1      -1.100  -0.084  -4.590  0.00  0.00    +0.328 HD
ENDBRANCH  10  17
BRANCH   1  19
ATOM     19  C   UNL     1      -1.433  -0.534   0.013  0.00  0.00    +0.059 C 
BRANCH  19  21
ATOM     20  C   UNL     1      -0.019   1.526   0.010  0.00  0.00    +0.004 C 
ATOM     21  C   UNL     1       0.002  -0.004   0.002  0.00  0.00    +0.003 C 
ENDBRANCH  19  21
ENDBRANCH   1  19
TORSDOF 4
