REMARK  Name = ZINC09741398
REMARK  9 active torsions:
REMARK  status: ('A' for Active; 'I' for Inactive)
REMARK    1  A    between atoms: C_1  and  C_2
REMARK    2  A    between atoms: C_2  and  C_4
REMARK    3  A    between atoms: C_2  and  N_12
REMARK    4  A    between atoms: C_13  and  C_15
REMARK    5  A    between atoms: C_15  and  N_47
REMARK    6  A    between atoms: C_16  and  N_47
REMARK    7  A    between atoms: C_17  and  C_18
REMARK    8  A    between atoms: C_17  and  N_47
REMARK    9  A    between atoms: N_20  and  C_21
REMARK                            x       y       z     vdW  Elec       q    Type
REMARK                         _______ _______ _______ _____ _____    ______ ____
ROOT
ATOM      1  C   UNL     1       5.237   6.823   3.664  0.00  0.00    -0.095 C 
ATOM      2  N   UNL     1       4.674   7.876   2.794  0.00  0.00    +0.389 N 
ATOM      3  H   UNL     1       5.281   7.990   1.973  0.00  0.00    -0.081 HD
ENDROOT
BRANCH   2   4
ATOM      4  C   UNL     1       3.322   7.488   2.340  0.00  0.00    +0.019 C 
BRANCH   4   6
ATOM      5  N   UNL     1       2.336   5.774   0.853  0.00  0.00    -0.310 N 
ATOM      6  C   UNL     1       3.441   6.304   1.415  0.00  0.00    +0.197 C 
ATOM      7  O   UNL     1       4.530   5.829   1.175  0.00  0.00    -0.278 OA
ATOM      8  H   UNL     1       1.465   6.155   1.044  0.00  0.00    +0.149 HD
BRANCH   5  10
ATOM      9  C   UNL     1       2.759   5.114  -1.464  0.00  0.00    +0.033 C 
ATOM     10  C   UNL     1       2.452   4.624  -0.047  0.00  0.00    +0.100 C 
BRANCH  10  11
ATOM     11  C   UNL     1       1.155   3.857  -0.051  0.00  0.00    -0.026 A 
ATOM     12  C   UNL     1      -0.050   4.536  -0.041  0.00  0.00    +0.007 A 
ATOM     13  C   UNL     1      -1.240   3.834  -0.045  0.00  0.00    +0.022 A 
ATOM     14  C   UNL     1      -1.227   2.450  -0.064  0.00  0.00    +0.059 A 
ATOM     15  C   UNL     1      -0.021   1.770  -0.068  0.00  0.00    +0.060 A 
ATOM     16  C   UNL     1       1.170   2.475  -0.065  0.00  0.00    +0.027 A 
ATOM     17 CL   UNL     1      -0.002   0.035  -0.085  0.00  0.00    -0.082 Cl
ATOM     18 CL   UNL     1      -2.721   1.568  -0.075  0.00  0.00    -0.082 Cl
ENDBRANCH  10  11
ENDBRANCH   5  10
ENDBRANCH   4   6
ENDBRANCH   2   4
BRANCH   2  19
ATOM     19  C   UNL     1       4.612   9.158   3.527  0.00  0.00    +0.019 C 
BRANCH  19  20
ATOM     20  C   UNL     1       6.016   9.640   3.784  0.00  0.00    +0.201 C 
ATOM     21  O   UNL     1       6.962   8.978   3.412  0.00  0.00    -0.278 OA
ATOM     22  N   UNL     1       6.222  10.806   4.427  0.00  0.00    -0.285 N 
ATOM     23  H   UNL     1       5.468  11.367   4.667  0.00  0.00    +0.155 HD
BRANCH  22  24
ATOM     24  C   UNL     1       7.525  11.209   4.748  0.00  0.00    +0.072 A 
ATOM     25  C   UNL     1       8.576  10.907   3.894  0.00  0.00    +0.029 A 
ATOM     26  C   UNL     1       9.861  11.308   4.209  0.00  0.00    +0.043 A 
ATOM     27  C   UNL     1      10.102  12.003   5.382  0.00  0.00    +0.161 A 
ATOM     28  C   UNL     1       9.056  12.302   6.241  0.00  0.00    +0.195 A 
ATOM     29  C   UNL     1       7.767  11.906   5.926  0.00  0.00    +0.182 A 
ATOM     30  F   UNL     1       6.747  12.197   6.762  0.00  0.00    -0.200 F 
ATOM     31  F   UNL     1       9.294  12.980   7.386  0.00  0.00    -0.199 F 
ATOM     32  F   UNL     1      11.360  12.390   5.690  0.00  0.00    -0.202 F 
ENDBRANCH  22  24
ENDBRANCH  19  20
ENDBRANCH   2  19
TORSDOF 7
