REMARK  Name = ZINC59404955
REMARK  12 active torsions:
REMARK  status: ('A' for Active; 'I' for Inactive)
REMARK    1  A    between atoms: C_1  and  C_2
REMARK    2  A    between atoms: C_2  and  C_3
REMARK    3  A    between atoms: C_3  and  N_4
REMARK    4  A    between atoms: N_4  and  C_5
REMARK    5  A    between atoms: N_4  and  C_20
REMARK    6  A    between atoms: C_5  and  C_6
REMARK    7  A    between atoms: N_8  and  C_9
REMARK    8  A    between atoms: C_14  and  S_15
REMARK    9  A    between atoms: S_15  and  C_16
REMARK   10  A    between atoms: C_16  and  C_17
REMARK   11  A    between atoms: C_20  and  C_22
REMARK   12  A    between atoms: C_20  and  C_23
REMARK                            x       y       z     vdW  Elec       q    Type
REMARK                         _______ _______ _______ _____ _____    ______ ____
ROOT
ATOM      1  C   UNL     1       0.241  -2.260   3.618  0.00  0.00    +0.201 C 
ATOM      2  O   UNL     1      -0.786  -1.634   3.461  0.00  0.00    -0.278 OA
ATOM      3  N   UNL     1       0.569  -2.723   4.840  0.00  0.00    -0.286 N 
ATOM      4  H   UNL     1       1.357  -3.277   4.954  0.00  0.00    +0.155 HD
ENDROOT
BRANCH   3   5
ATOM      5  C   UNL     1      -0.229  -2.403   5.947  0.00  0.00    +0.047 A 
ATOM      6  C   UNL     1      -1.603  -2.280   5.802  0.00  0.00    +0.024 A 
ATOM      7  C   UNL     1      -2.388  -1.965   6.896  0.00  0.00    +0.002 A 
ATOM      8  C   UNL     1      -1.808  -1.771   8.136  0.00  0.00    +0.001 A 
ATOM      9  C   UNL     1      -0.440  -1.891   8.290  0.00  0.00    +0.016 A 
ATOM     10  C   UNL     1       0.356  -2.213   7.200  0.00  0.00    +0.030 A 
BRANCH  10  11
ATOM     11  S   UNL     1       2.099  -2.374   7.394  0.00  0.00    -0.114 S 
BRANCH  11  12
ATOM     12  C   UNL     1       2.377  -2.044   9.156  0.00  0.00    +0.169 C 
BRANCH  12  13
ATOM     13  C   UNL     1       3.848  -2.150   9.462  0.00  0.00    +0.221 C 
ATOM     14  O   UNL     1       4.633  -2.422   8.578  0.00  0.00    -0.275 OA
ATOM     15  N   UNL     1       4.293  -1.944  10.718  0.00  0.00    -0.329 N 
ATOM     16  H   UNL     1       3.665  -1.726  11.425  0.00  0.00    +0.145 HD
ATOM     17  H   UNL     1       5.240  -2.012  10.914  0.00  0.00    +0.145 HD
ENDBRANCH  12  13
ENDBRANCH  11  12
ENDBRANCH  10  11
ENDBRANCH   3   5
BRANCH   1  18
ATOM     18  C   UNL     1       1.150  -2.521   2.445  0.00  0.00    +0.020 C 
BRANCH  18  19
ATOM     19  N   UNL     1       0.575  -1.919   1.235  0.00  0.00    +0.390 N 
ATOM     20  H   UNL     1      -0.364  -2.264   1.101  0.00  0.00    -0.080 HD
BRANCH  19  21
ATOM     21  C   UNL     1       1.398  -2.274   0.071  0.00  0.00    -0.040 C 
ATOM     22  C   UNL     1       0.871  -1.547  -1.167  0.00  0.00    -0.008 C 
BRANCH  21  23
ATOM     23  C   UNL     1       1.333  -3.763  -0.154  0.00  0.00    -0.060 A 
ATOM     24  C   UNL     1       0.134  -4.433  -0.001  0.00  0.00    +0.003 A 
ATOM     25  C   UNL     1       0.073  -5.798  -0.207  0.00  0.00    +0.021 A 
ATOM     26  C   UNL     1       1.213  -6.495  -0.567  0.00  0.00    +0.059 A 
ATOM     27  C   UNL     1       2.414  -5.824  -0.720  0.00  0.00    +0.059 A 
ATOM     28  C   UNL     1       2.471  -4.456  -0.519  0.00  0.00    +0.023 A 
ATOM     29 CL   UNL     1       3.845  -6.696  -1.171  0.00  0.00    -0.082 Cl
ATOM     30 CL   UNL     1       1.137  -8.210  -0.825  0.00  0.00    -0.082 Cl
ENDBRANCH  21  23
ENDBRANCH  19  21
BRANCH  19  31
ATOM     31  C   UNL     1       0.542  -0.458   1.384  0.00  0.00    -0.078 C 
BRANCH  31  33
ATOM     32  C   UNL     1       1.942   1.608   1.503  0.00  0.00    +0.002 C 
ATOM     33  C   UNL     1       1.972   0.079   1.468  0.00  0.00    -0.022 C 
ENDBRANCH  31  33
ENDBRANCH  19  31
ENDBRANCH  18  19
ENDBRANCH   1  18
TORSDOF 10
