REMARK  Name = ZINC39669497
REMARK  4 active torsions:
REMARK  status: ('A' for Active; 'I' for Inactive)
REMARK    1  A    between atoms: C_9  and  C_12
REMARK    2  A    between atoms: C_16  and  C_25
REMARK    3  A    between atoms: N_27  and  C_28
REMARK    4  A    between atoms: C_28  and  C_29
REMARK                            x       y       z     vdW  Elec       q    Type
REMARK                         _______ _______ _______ _____ _____    ______ ____
ROOT
ATOM      1  C   UNL     1       4.684  -2.626  -0.061  0.00  0.00    +0.260 C 
ATOM      2  O   UNL     1       5.478  -1.960  -0.692  0.00  0.00    -0.271 OA
ATOM      3  N   UNL     1       5.029  -3.855   0.371  0.00  0.00    -0.297 N 
ATOM      4  C   UNL     1       4.171  -4.851   1.057  0.00  0.00    +0.121 C 
ATOM      5  C   UNL     1       4.591  -6.209   0.453  0.00  0.00    +0.100 C 
ATOM      6  C   UNL     1       6.023  -5.985  -0.061  0.00  0.00    -0.004 C 
ATOM      7  C   UNL     1       6.350  -4.520   0.262  0.00  0.00    +0.115 C 
ATOM      8  C   UNL     1       6.085  -6.213  -1.569  0.00  0.00    -0.010 C 
ATOM      9  C   UNL     1       7.529  -6.039  -2.048  0.00  0.00    -0.082 C 
ATOM     10  N   UNL     1       8.395  -6.998  -1.352  0.00  0.00    +0.379 N 
ATOM     11  C   UNL     1       8.402  -6.714   0.088  0.00  0.00    -0.082 C 
ATOM     12  C   UNL     1       6.995  -6.915   0.657  0.00  0.00    -0.010 C 
ATOM     13  H   UNL     1       8.051  -7.934  -1.506  0.00  0.00    -0.086 HD
ATOM     14  H   UNL     1       9.335  -6.924  -1.712  0.00  0.00    -0.086 HD
ENDROOT
BRANCH   1  23
ATOM     15  C   UNL     1      -0.439   1.117  -0.251  0.00  0.00    +0.004 A 
ATOM     16  C   UNL     1       0.700   1.887  -0.100  0.00  0.00    +0.004 A 
ATOM     17  C   UNL     1       1.941   1.284  -0.032  0.00  0.00    +0.049 A 
ATOM     18  C   UNL     1       2.048  -0.097  -0.115  0.00  0.00    +0.163 A 
ATOM     19  C   UNL     1       0.903  -0.871  -0.265  0.00  0.00    +0.162 A 
ATOM     20  C   UNL     1      -0.340  -0.259  -0.334  0.00  0.00    +0.049 A 
ATOM     21  O   UNL     1       0.985  -2.227  -0.341  0.00  0.00    -0.484 OA
ATOM     22  C   UNL     1       2.271  -2.779  -0.642  0.00  0.00    +0.283 C 
ATOM     23  C   UNL     1       3.313  -2.078   0.240  0.00  0.00    +0.296 C 
ATOM     24  O   UNL     1       3.277  -0.677  -0.051  0.00  0.00    -0.473 OA
ENDBRANCH   1  23
BRANCH   5  25
ATOM     25  C   UNL     1       4.574  -7.282   1.512  0.00  0.00    +0.218 C 
ATOM     26  O   UNL     1       4.813  -6.998   2.666  0.00  0.00    -0.275 OA
ATOM     27  N   UNL     1       4.291  -8.556   1.175  0.00  0.00    -0.315 N 
ATOM     28  H   UNL     1       4.099  -8.783   0.252  0.00  0.00    +0.149 HD
BRANCH  27  29
ATOM     29  C   UNL     1       4.274  -9.599   2.204  0.00  0.00    +0.109 C 
BRANCH  29  30
ATOM     30  C   UNL     1       3.929 -10.944   1.562  0.00  0.00    +0.024 C 
ATOM     31  C   UNL     1       3.790 -12.009   2.652  0.00  0.00    +0.008 C 
ATOM     32  C   UNL     1       3.413 -13.348   2.013  0.00  0.00    +0.019 C 
ATOM     33  C   UNL     1       4.524 -13.782   1.052  0.00  0.00    +0.108 C 
ATOM     34  N   UNL     1       4.763 -12.700   0.087  0.00  0.00    -0.299 N 
ATOM     35  C   UNL     1       5.045 -11.350   0.595  0.00  0.00    +0.113 C 
ATOM     36  C   UNL     1       4.725 -12.947  -1.274  0.00  0.00    +0.218 A 
ATOM     37  N   UNL     1       4.951 -11.951  -2.119  0.00  0.00    -0.223 NA
ATOM     38  C   UNL     1       4.921 -12.153  -3.426  0.00  0.00    +0.116 A 
ATOM     39  C   UNL     1       4.651 -13.425  -3.907  0.00  0.00    +0.039 A 
ATOM     40  C   UNL     1       4.419 -14.443  -2.996  0.00  0.00    +0.116 A 
ATOM     41  N   UNL     1       4.468 -14.174  -1.702  0.00  0.00    -0.223 NA
ENDBRANCH  29  30
ENDBRANCH  27  29
ENDBRANCH   5  25
TORSDOF 4
