REMARK  Name = ZINC45820488
REMARK  10 active torsions:
REMARK  status: ('A' for Active; 'I' for Inactive)
REMARK    1  A    between atoms: C_1  and  C_2
REMARK    2  A    between atoms: C_2  and  C_3
REMARK    3  A    between atoms: C_6  and  C_9
REMARK    4  A    between atoms: C_9  and  C_11
REMARK    5  A    between atoms: C_9  and  N_29
REMARK    6  A    between atoms: C_11  and  N_12
REMARK    7  A    between atoms: C_13  and  C_15
REMARK    8  A    between atoms: C_15  and  N_16
REMARK    9  A    between atoms: N_29  and  C_30
REMARK   10  A    between atoms: N_29  and  C_31
REMARK                            x       y       z     vdW  Elec       q    Type
REMARK                         _______ _______ _______ _____ _____    ______ ____
ROOT
ATOM      1  N   UNL     1       4.303  -0.199   4.486  0.00  0.00    -0.315 N 
ATOM      2  C   UNL     1       4.885   0.909   4.987  0.00  0.00    +0.233 C 
ATOM      3  O   UNL     1       4.529   1.348   6.060  0.00  0.00    -0.274 OA
ATOM      4  H   UNL     1       4.588  -0.550   3.627  0.00  0.00    +0.149 HD
ENDROOT
BRANCH   1   5
ATOM      5  C   UNL     1       3.241  -0.873   5.237  0.00  0.00    +0.093 C 
BRANCH   5   6
ATOM      6  C   UNL     1       2.823  -2.146   4.499  0.00  0.00    -0.021 C 
BRANCH   6  10
ATOM      7  C   UNL     1       1.104  -1.107   0.729  0.00  0.00    -0.048 A 
ATOM      8  C   UNL     1       2.417  -1.535   0.795  0.00  0.00    +0.004 A 
ATOM      9  C   UNL     1       2.973  -1.871   2.015  0.00  0.00    +0.002 A 
ATOM     10  C   UNL     1       2.217  -1.779   3.169  0.00  0.00    -0.059 A 
ATOM     11  C   UNL     1       0.904  -1.350   3.102  0.00  0.00    +0.002 A 
ATOM     12  C   UNL     1       0.349  -1.010   1.883  0.00  0.00    +0.004 A 
BRANCH   7  14
ATOM     13  C   UNL     1       0.733   0.746  -0.878  0.00  0.00    +0.009 C 
ATOM     14  C   UNL     1       0.498  -0.741  -0.602  0.00  0.00    +0.032 C 
ENDBRANCH   7  14
ENDBRANCH   6  10
BRANCH   6  15
ATOM     15  N   UNL     1       1.834  -2.876   5.303  0.00  0.00    +0.382 N 
ATOM     16  C   UNL     1       1.398  -4.074   4.574  0.00  0.00    -0.096 C 
ATOM     17  C   UNL     1       2.439  -3.273   6.581  0.00  0.00    -0.096 C 
ATOM     18  H   UNL     1       1.038  -2.281   5.478  0.00  0.00    -0.082 HD
ENDBRANCH   6  15
ENDBRANCH   5   6
ENDBRANCH   1   5
BRANCH   2  19
ATOM     19  C   UNL     1       5.977   1.602   4.214  0.00  0.00    +0.222 C 
BRANCH  19  20
ATOM     20  N   UNL     1       6.441   2.771   4.966  0.00  0.00    -0.285 N 
ATOM     21  C   UNL     1       5.830   4.001   4.769  0.00  0.00    +0.059 A 
ATOM     22  C   UNL     1       4.784   4.157   3.873  0.00  0.00    +0.027 A 
ATOM     23  C   UNL     1       4.203   5.399   3.707  0.00  0.00    +0.002 A 
ATOM     24  C   UNL     1       4.657   6.493   4.428  0.00  0.00    +0.001 A 
ATOM     25  C   UNL     1       5.696   6.356   5.324  0.00  0.00    +0.015 A 
ATOM     26  C   UNL     1       6.290   5.109   5.501  0.00  0.00    +0.063 A 
ATOM     27  C   UNL     1       7.404   4.908   6.444  0.00  0.00    +0.262 A 
ATOM     28  O   UNL     1       7.840   5.833   7.102  0.00  0.00    -0.267 OA
ATOM     29  N   UNL     1       7.929   3.668   6.560  0.00  0.00    -0.274 N 
ATOM     30  H   UNL     1       8.662   3.518   7.177  0.00  0.00    +0.173 HD
ATOM     31  C   UNL     1       7.451   2.640   5.843  0.00  0.00    +0.330 A 
ATOM     32  O   UNL     1       7.956   1.544   5.989  0.00  0.00    -0.246 OA
ENDBRANCH  19  20
ENDBRANCH   2  19
TORSDOF 7
