REMARK  Name = ZINC11692011
REMARK  8 active torsions:
REMARK  status: ('A' for Active; 'I' for Inactive)
REMARK    1  A    between atoms: C_1  and  O_2
REMARK    2  A    between atoms: O_2  and  C_3
REMARK    3  A    between atoms: C_6  and  C_11
REMARK    4  A    between atoms: C_8  and  O_9
REMARK    5  A    between atoms: O_9  and  C_10
REMARK    6  A    between atoms: C_12  and  O_13
REMARK    7  A    between atoms: C_23  and  C_25
REMARK    8  A    between atoms: C_28  and  N_31
REMARK                            x       y       z     vdW  Elec       q    Type
REMARK                         _______ _______ _______ _____ _____    ______ ____
ROOT
ATOM      1  C   UNL     1       2.479   1.067  -0.015  0.00  0.00    +0.052 A 
ATOM      2  C   UNL     1       3.285   1.213  -1.137  0.00  0.00    +0.135 A 
ATOM      3  C   UNL     1       4.590   0.633  -1.432  0.00  0.00    +0.031 A 
ATOM      4  C   UNL     1       5.240   0.914  -2.643  0.00  0.00    +0.012 A 
ATOM      5  C   UNL     1       6.461   0.366  -2.907  0.00  0.00    +0.001 A 
ATOM      6  C   UNL     1       7.088  -0.474  -1.998  0.00  0.00    +0.001 A 
ATOM      7  C   UNL     1       6.475  -0.771  -0.795  0.00  0.00    +0.016 A 
ATOM      8  C   UNL     1       5.241  -0.223  -0.519  0.00  0.00    +0.025 A 
ATOM      9  S   UNL     1       4.376  -0.544   0.996  0.00  0.00    -0.073 S 
ATOM     10  C   UNL     1       2.804   0.294   1.101  0.00  0.00    +0.084 A 
ATOM     11  N   UNL     1       1.974   0.183   2.196  0.00  0.00    -0.275 N 
ATOM     12  C   UNL     1       2.341  -0.579   3.245  0.00  0.00    +0.249 C 
ATOM     13  O   UNL     1       3.403  -1.169   3.226  0.00  0.00    -0.270 OA
ATOM     14  H   UNL     1       1.012   0.717   2.213  0.00  0.00    +0.156 HD
ENDROOT
BRANCH   1  18
ATOM     15  C   UNL     1      -1.239   3.136   0.031  0.00  0.00    +0.162 A 
ATOM     16  C   UNL     1      -1.217   1.750   0.017  0.00  0.00    +0.050 A 
ATOM     17  C   UNL     1      -0.013   1.076   0.008  0.00  0.00    +0.012 A 
ATOM     18  C   UNL     1       1.185   1.789   0.000  0.00  0.00    -0.008 A 
ATOM     19  C   UNL     1       1.164   3.183   0.008  0.00  0.00    +0.058 A 
ATOM     20  C   UNL     1      -0.046   3.854   0.023  0.00  0.00    +0.162 A 
BRANCH  15  22
ATOM     21  C   UNL     1      -3.614   2.997   0.053  0.00  0.00    +0.277 C 
ATOM     22  O   UNL     1      -2.429   3.796   0.046  0.00  0.00    -0.491 OA
ENDBRANCH  15  22
BRANCH  20  23
ATOM     23  O   UNL     1      -0.071   5.213   0.031  0.00  0.00    -0.491 OA
ATOM     24  C   UNL     1       1.190   5.885   0.023  0.00  0.00    +0.277 C 
ENDBRANCH  20  23
ENDBRANCH   1  18
BRANCH  12  25
ATOM     25  C   UNL     1       1.451  -0.697   4.420  0.00  0.00    +0.037 A 
ATOM     26  C   UNL     1       0.233  -0.016   4.447  0.00  0.00    +0.015 A 
ATOM     27  C   UNL     1      -0.596  -0.135   5.544  0.00  0.00    +0.033 A 
ATOM     28  C   UNL     1      -0.216  -0.918   6.620  0.00  0.00    +0.126 A 
ATOM     29  C   UNL     1       0.993  -1.591   6.601  0.00  0.00    +0.033 A 
ATOM     30  C   UNL     1       1.828  -1.486   5.508  0.00  0.00    +0.015 A 
BRANCH  28  31
ATOM     31  N   UNL     1      -1.107  -1.036   7.796  0.00  0.00    +0.056 N 
ATOM     32  O   UNL     1      -0.775  -1.724   8.745  0.00  0.00    -0.126 OA
ATOM     33  O   UNL     1      -2.171  -0.444   7.816  0.00  0.00    -0.126 OA
ENDBRANCH  28  31
ENDBRANCH  12  25
BRANCH   2  34
ATOM     34  O   UNL     1       2.831   1.936  -2.009  0.00  0.00    -0.505 OA
ATOM     35  H   UNL     1       3.402   2.108  -2.933  0.00  0.00    +0.292 HD
ENDBRANCH   2  34
TORSDOF 6
