REMARK  Name = ZINC40295272
REMARK  6 active torsions:
REMARK  status: ('A' for Active; 'I' for Inactive)
REMARK    1  A    between atoms: C_1  and  C_2
REMARK    2  A    between atoms: C_7  and  N_12
REMARK    3  A    between atoms: C_9  and  C_11
REMARK    4  A    between atoms: C_13  and  C_15
REMARK    5  A    between atoms: C_18  and  N_22
REMARK    6  A    between atoms: C_20  and  N_21
REMARK                            x       y       z     vdW  Elec       q    Type
REMARK                         _______ _______ _______ _____ _____    ______ ____
ROOT
ATOM      1  N   UNL     1      -0.606  -2.566   1.198  0.00  0.00    -0.308 N 
ATOM      2  C   UNL     1      -0.871  -3.783   1.713  0.00  0.00    +0.246 C 
ATOM      3  O   UNL     1       0.033  -4.463   2.162  0.00  0.00    -0.270 OA
ATOM      4  H   UNL     1      -1.327  -2.023   0.840  0.00  0.00    +0.149 HD
ENDROOT
BRANCH   1  10
ATOM      5  C   UNL     1      -0.004   1.479  -0.122  0.00  0.00    +0.008 C 
ATOM      6  C   UNL     1       0.014  -0.051  -0.098  0.00  0.00    -0.009 C 
ATOM      7  C   UNL     1       0.730  -0.573  -1.345  0.00  0.00    +0.003 C 
ATOM      8  C   UNL     1       0.747  -2.103  -1.321  0.00  0.00    +0.002 C 
ATOM      9  C   UNL     1       1.485  -2.584  -0.070  0.00  0.00    +0.022 C 
ATOM     10  C   UNL     1       0.769  -2.062   1.177  0.00  0.00    +0.076 C 
ATOM     11  C   UNL     1       0.752  -0.532   1.153  0.00  0.00    +0.009 C 
ATOM     12  C   UNL     1       0.036  -0.010   2.400  0.00  0.00    +0.009 C 
ENDBRANCH   1  10
BRANCH   2  13
ATOM     13  C   UNL     1      -2.252  -4.289   1.734  0.00  0.00    +0.057 A 
ATOM     14  C   UNL     1      -3.309  -3.463   1.334  0.00  0.00    +0.016 A 
ATOM     15  C   UNL     1      -4.590  -3.932   1.353  0.00  0.00    +0.023 A 
ATOM     16  C   UNL     1      -4.857  -5.236   1.769  0.00  0.00    +0.026 A 
ATOM     17  C   UNL     1      -3.822  -6.069   2.169  0.00  0.00    +0.046 A 
ATOM     18  C   UNL     1      -2.515  -5.606   2.149  0.00  0.00    +0.039 A 
BRANCH  18  19
ATOM     19  N   UNL     1      -1.473  -6.436   2.542  0.00  0.00    -0.357 N 
ATOM     20  H   UNL     1      -0.572  -6.084   2.607  0.00  0.00    +0.142 HD
ATOM     21  H   UNL     1      -1.647  -7.366   2.752  0.00  0.00    +0.142 HD
ENDBRANCH  18  19
BRANCH  16  22
ATOM     22  N   UNL     1      -6.168  -5.702   1.785  0.00  0.00    -0.358 N 
ATOM     23  H   UNL     1      -6.893  -5.122   1.506  0.00  0.00    +0.142 HD
ATOM     24  H   UNL     1      -6.356  -6.609   2.074  0.00  0.00    +0.142 HD
ENDBRANCH  16  22
ENDBRANCH   2  13
TORSDOF 4
