REMARK  Name = ZINC58613915
REMARK  8 active torsions:
REMARK  status: ('A' for Active; 'I' for Inactive)
REMARK    1  A    between atoms: C_1  and  C_2
REMARK    2  A    between atoms: C_2  and  C_4
REMARK    3  A    between atoms: C_2  and  O_16
REMARK    4  A    between atoms: N_9  and  C_10
REMARK    5  A    between atoms: O_16  and  C_17
REMARK    6  A    between atoms: C_17  and  C_19
REMARK    7  A    between atoms: C_24  and  N_25
REMARK    8  A    between atoms: C_26  and  C_28
REMARK                            x       y       z     vdW  Elec       q    Type
REMARK                         _______ _______ _______ _____ _____    ______ ____
ROOT
ATOM      1  O   UNL     1       0.837  -0.742  -0.865  0.00  0.00    -0.449 OA
ENDROOT
BRANCH   1   3
ATOM      2  C   UNL     1       0.470   1.159   0.582  0.00  0.00    +0.062 C 
ATOM      3  C   UNL     1       0.477  -0.367   0.466  0.00  0.00    +0.259 C 
BRANCH   3   4
ATOM      4  C   UNL     1       1.476  -0.940   1.438  0.00  0.00    +0.261 C 
ATOM      5  O   UNL     1       2.454  -1.527   1.026  0.00  0.00    -0.271 OA
ATOM      6  N   UNL     1       1.282  -0.801   2.764  0.00  0.00    -0.237 N 
ATOM      7  C   UNL     1       2.176  -1.313   3.633  0.00  0.00    +0.310 C 
ATOM      8  O   UNL     1       3.156  -1.901   3.221  0.00  0.00    -0.252 OA
ATOM      9  N   UNL     1       1.983  -1.173   4.960  0.00  0.00    -0.269 N 
ATOM     10  H   UNL     1       0.500  -0.331   3.094  0.00  0.00    +0.159 HD
ATOM     11  H   UNL     1       1.236  -0.648   5.288  0.00  0.00    +0.156 HD
BRANCH   9  12
ATOM     12  C   UNL     1       2.858  -1.786   5.863  0.00  0.00    +0.035 A 
ATOM     13  C   UNL     1       2.377  -2.296   7.062  0.00  0.00    +0.023 A 
ATOM     14  C   UNL     1       3.244  -2.900   7.951  0.00  0.00    +0.002 A 
ATOM     15  C   UNL     1       4.590  -2.998   7.649  0.00  0.00    +0.000 A 
ATOM     16  C   UNL     1       5.072  -2.492   6.456  0.00  0.00    +0.002 A 
ATOM     17  C   UNL     1       4.209  -1.892   5.559  0.00  0.00    +0.023 A 
ENDBRANCH   9  12
ENDBRANCH   3   4
ENDBRANCH   1   3
BRANCH   1  18
ATOM     18  C   UNL     1      -0.166  -0.884  -1.754  0.00  0.00    +0.342 C 
ATOM     19  O   UNL     1      -1.315  -0.694  -1.408  0.00  0.00    -0.245 OA
BRANCH  18  20
ATOM     20  C   UNL     1       0.131  -1.269  -3.145  0.00  0.00    +0.080 A 
ATOM     21  C   UNL     1       1.438  -1.593  -3.521  0.00  0.00    +0.017 A 
ATOM     22  C   UNL     1       1.709  -1.952  -4.823  0.00  0.00    +0.001 A 
ATOM     23  C   UNL     1       0.692  -1.994  -5.764  0.00  0.00    +0.002 A 
ATOM     24  C   UNL     1      -0.603  -1.676  -5.408  0.00  0.00    +0.024 A 
ATOM     25  C   UNL     1      -0.897  -1.318  -4.099  0.00  0.00    +0.048 A 
BRANCH  25  26
ATOM     26  N   UNL     1      -2.203  -1.004  -3.736  0.00  0.00    -0.280 N 
ATOM     27  C   UNL     1      -3.008  -0.363  -4.606  0.00  0.00    +0.255 C 
ATOM     28  O   UNL     1      -2.621  -0.133  -5.737  0.00  0.00    -0.269 OA
ATOM     29  H   UNL     1      -2.534  -1.246  -2.857  0.00  0.00    +0.155 HD
BRANCH  27  30
ATOM     30  C   UNL     1      -4.349   0.057  -4.191  0.00  0.00    +0.074 A 
ATOM     31  C   UNL     1      -5.325   0.715  -4.924  0.00  0.00    +0.021 A 
ATOM     32  C   UNL     1      -6.498   0.977  -4.257  0.00  0.00    +0.008 A 
ATOM     33  C   UNL     1      -6.621   0.587  -2.964  0.00  0.00    +0.046 A 
ATOM     34  S   UNL     1      -5.154  -0.153  -2.615  0.00  0.00    -0.092 S 
ENDBRANCH  27  30
ENDBRANCH  25  26
ENDBRANCH  18  20
ENDBRANCH   1  18
TORSDOF 7
