REMARK  Name = ZINC31892805
REMARK  12 active torsions:
REMARK  status: ('A' for Active; 'I' for Inactive)
REMARK    1  A    between atoms: C_1  and  C_2
REMARK    2  A    between atoms: C_2  and  N_3
REMARK    3  A    between atoms: N_3  and  C_4
REMARK    4  A    between atoms: N_3  and  C_6
REMARK    5  A    between atoms: C_4  and  C_5
REMARK    6  A    between atoms: C_9  and  C_12
REMARK    7  A    between atoms: N_13  and  N_14
REMARK    8  A    between atoms: C_15  and  C_17
REMARK    9  A    between atoms: C_17  and  S_18
REMARK   10  A    between atoms: S_18  and  C_19
REMARK   11  A    between atoms: N_29  and  C_30
REMARK   12  A    between atoms: C_33  and  C_36
REMARK                            x       y       z     vdW  Elec       q    Type
REMARK                         _______ _______ _______ _____ _____    ______ ____
ROOT
ATOM      1  S   UNL     1      -2.860  -2.679   0.906  0.00  0.00    -0.078 S 
ENDROOT
BRANCH   1   2
ATOM      2  C   UNL     1      -1.392  -2.034   1.637  0.00  0.00    +0.177 A 
ATOM      3  N   UNL     1      -1.415  -0.813   2.111  0.00  0.00    -0.223 NA
ATOM      4  C   UNL     1      -0.323  -0.257   2.685  0.00  0.00    +0.079 A 
ATOM      5  C   UNL     1      -0.345   1.046   3.191  0.00  0.00    +0.028 A 
ATOM      6  C   UNL     1       0.781   1.569   3.763  0.00  0.00    +0.002 A 
ATOM      7  C   UNL     1       1.950   0.824   3.850  0.00  0.00    +0.001 A 
ATOM      8  C   UNL     1       2.003  -0.453   3.363  0.00  0.00    +0.015 A 
ATOM      9  C   UNL     1       0.869  -1.011   2.774  0.00  0.00    +0.065 A 
ATOM     10  C   UNL     1       0.868  -2.377   2.235  0.00  0.00    +0.267 A 
ATOM     11  O   UNL     1       1.864  -3.076   2.282  0.00  0.00    -0.267 OA
ATOM     12  N   UNL     1      -0.281  -2.831   1.682  0.00  0.00    -0.255 N 
BRANCH  12  13
ATOM     13  C   UNL     1      -0.334  -4.127   1.153  0.00  0.00    +0.052 A 
ATOM     14  C   UNL     1      -1.124  -5.095   1.760  0.00  0.00    +0.026 A 
ATOM     15  C   UNL     1      -1.177  -6.370   1.233  0.00  0.00    +0.005 A 
ATOM     16  C   UNL     1      -0.437  -6.687   0.109  0.00  0.00    -0.050 A 
ATOM     17  C   UNL     1       0.355  -5.728  -0.494  0.00  0.00    +0.005 A 
ATOM     18  C   UNL     1       0.409  -4.449   0.025  0.00  0.00    +0.026 A 
ATOM     19  C   UNL     1      -0.493  -8.082  -0.460  0.00  0.00    +0.044 C 
ENDBRANCH  12  13
ENDBRANCH   1   2
BRANCH   1  20
ATOM     20  C   UNL     1      -3.962  -1.258   1.108  0.00  0.00    +0.174 C 
BRANCH  20  22
ATOM     21  N   UNL     1      -6.307  -0.675   0.578  0.00  0.00    -0.206 N 
ATOM     22  C   UNL     1      -5.318  -1.589   0.538  0.00  0.00    +0.242 C 
ATOM     23  O   UNL     1      -5.518  -2.679   0.043  0.00  0.00    -0.273 OA
ATOM     24  H   UNL     1      -6.125   0.313   1.026  0.00  0.00    +0.177 HD
BRANCH  21  26
ATOM     25  C   UNL     1      -8.484  -0.066  -0.020  0.00  0.00    +0.138 C 
ATOM     26  N   UNL     1      -7.567  -0.982   0.047  0.00  0.00    -0.188 NA
BRANCH  25  30
ATOM     27  C   UNL     1      -7.392   4.037   0.016  0.00  0.00    +0.030 A 
ATOM     28  C   UNL     1      -6.421   3.063  -0.192  0.00  0.00    +0.024 A 
ATOM     29  C   UNL     1      -6.772   1.731  -0.204  0.00  0.00    +0.011 A 
ATOM     30  C   UNL     1      -8.105   1.359  -0.007  0.00  0.00    -0.005 A 
ATOM     31  C   UNL     1      -9.078   2.341   0.196  0.00  0.00    +0.011 A 
ATOM     32  C   UNL     1      -8.720   3.671   0.211  0.00  0.00    +0.024 A 
BRANCH  27  33
ATOM     33  N   UNL     1      -7.033   5.385   0.027  0.00  0.00    -0.330 N 
BRANCH  33  35
ATOM     34  C   UNL     1      -8.179   6.697   1.744  0.00  0.00    +0.024 C 
ATOM     35  C   UNL     1      -8.054   6.413   0.246  0.00  0.00    +0.102 C 
ENDBRANCH  33  35
BRANCH  33  36
ATOM     36  C   UNL     1      -5.636   5.773  -0.179  0.00  0.00    +0.102 C 
ATOM     37  C   UNL     1      -5.380   5.981  -1.673  0.00  0.00    +0.024 C 
ENDBRANCH  33  36
ENDBRANCH  27  33
ENDBRANCH  25  30
ENDBRANCH  21  26
ENDBRANCH  20  22
ENDBRANCH   1  20
TORSDOF 9
