REMARK  Name = ZINC20100476
REMARK  5 active torsions:
REMARK  status: ('A' for Active; 'I' for Inactive)
REMARK    1  A    between atoms: C_4  and  C_7
REMARK    2  A    between atoms: C_7  and  C_8
REMARK    3  A    between atoms: C_7  and  N_14
REMARK    4  A    between atoms: N_17  and  C_20
REMARK    5  A    between atoms: C_20  and  C_21
REMARK                            x       y       z     vdW  Elec       q    Type
REMARK                         _______ _______ _______ _____ _____    ______ ____
ROOT
ATOM      1  N   UNL     1      -5.921   3.081  -5.115  0.00  0.00    -0.295 NA
ATOM      2  C   UNL     1      -4.643   3.606  -5.615  0.00  0.00    +0.067 C 
ATOM      3  C   UNL     1      -3.566   3.425  -4.543  0.00  0.00    -0.063 C 
ATOM      4  N   UNL     1      -3.977   4.123  -3.317  0.00  0.00    +0.387 N 
ATOM      5  C   UNL     1      -5.255   3.598  -2.817  0.00  0.00    -0.063 C 
ATOM      6  C   UNL     1      -6.332   3.779  -3.889  0.00  0.00    +0.067 C 
ATOM      7  H   UNL     1      -4.119   5.186  -3.563  0.00  0.00    -0.081 HD
ENDROOT
BRANCH   1   8
ATOM      8  C   UNL     1      -6.965   3.168  -6.146  0.00  0.00    +0.117 C 
BRANCH   8  12
ATOM      9  C   UNL     1      -5.705   1.046  -9.632  0.00  0.00    +0.000 A 
ATOM     10  C   UNL     1      -6.295   2.290  -9.756  0.00  0.00    +0.000 A 
ATOM     11  C   UNL     1      -6.704   2.976  -8.627  0.00  0.00    +0.005 A 
ATOM     12  C   UNL     1      -6.521   2.419  -7.376  0.00  0.00    -0.026 A 
ATOM     13  C   UNL     1      -5.925   1.178  -7.252  0.00  0.00    +0.005 A 
ATOM     14  C   UNL     1      -5.521   0.490  -8.380  0.00  0.00    +0.000 A 
ENDBRANCH   8  12
BRANCH   8  15
ATOM     15  C   UNL     1      -8.241   2.560  -5.621  0.00  0.00    -0.026 A 
ATOM     16  C   UNL     1      -8.204   1.358  -4.939  0.00  0.00    +0.005 A 
ATOM     17  C   UNL     1      -9.373   0.803  -4.454  0.00  0.00    +0.000 A 
ATOM     18  C   UNL     1     -10.580   1.445  -4.660  0.00  0.00    +0.000 A 
ATOM     19  C   UNL     1     -10.617   2.644  -5.346  0.00  0.00    +0.000 A 
ATOM     20  C   UNL     1      -9.447   3.202  -5.827  0.00  0.00    +0.005 A 
ENDBRANCH   8  15
ENDBRANCH   1   8
BRANCH   4  21
ATOM     21  C   UNL     1      -2.933   4.036  -2.287  0.00  0.00    +0.020 C 
BRANCH  21  22
ATOM     22  C   UNL     1      -3.275   4.959  -1.146  0.00  0.00    +0.208 C 
ATOM     23  O   UNL     1      -4.288   5.624  -1.187  0.00  0.00    -0.277 OA
ATOM     24  N   UNL     1      -2.455   5.046  -0.080  0.00  0.00    -0.241 N 
ATOM     25  C   UNL     1      -1.276   4.288  -0.008  0.00  0.00    +0.044 A 
ATOM     26  C   UNL     1      -1.272   2.923   0.217  0.00  0.00    +0.024 A 
ATOM     27  C   UNL     1      -0.054   2.273   0.337  0.00  0.00    +0.002 A 
ATOM     28  C   UNL     1       1.129   2.978   0.215  0.00  0.00    +0.000 A 
ATOM     29  C   UNL     1       1.113   4.343  -0.037  0.00  0.00    +0.005 A 
ATOM     30  C   UNL     1      -0.102   4.979  -0.150  0.00  0.00    -0.025 A 
ATOM     31  C   UNL     1      -0.228   6.447  -0.468  0.00  0.00    +0.042 C 
ATOM     32  C   UNL     1      -0.546   7.260   0.774  0.00  0.00    +0.042 C 
ATOM     33  C   UNL     1      -1.865   6.879   1.409  0.00  0.00    -0.025 A 
ATOM     34  C   UNL     1      -2.750   5.897   0.996  0.00  0.00    +0.044 A 
ATOM     35  C   UNL     1      -3.959   5.704   1.656  0.00  0.00    +0.024 A 
ATOM     36  C   UNL     1      -4.284   6.463   2.761  0.00  0.00    +0.002 A 
ATOM     37  C   UNL     1      -3.392   7.423   3.204  0.00  0.00    +0.000 A 
ATOM     38  C   UNL     1      -2.206   7.628   2.538  0.00  0.00    +0.005 A 
ENDBRANCH  21  22
ENDBRANCH   4  21
TORSDOF 5
