REMARK  Name = ZINC14536875
REMARK  11 active torsions:
REMARK  status: ('A' for Active; 'I' for Inactive)
REMARK    1  A    between atoms: C_1  and  O_2
REMARK    2  A    between atoms: O_2  and  C_3
REMARK    3  A    between atoms: C_3  and  C_4
REMARK    4  A    between atoms: C_4  and  C_5
REMARK    5  A    between atoms: C_5  and  N_6
REMARK    6  A    between atoms: N_9  and  C_26
REMARK    7  A    between atoms: C_17  and  C_18
REMARK    8  A    between atoms: C_17  and  N_74
REMARK    9  A    between atoms: C_18  and  C_19
REMARK   10  A    between atoms: C_19  and  C_20
REMARK   11  A    between atoms: C_26  and  C_27
REMARK                            x       y       z     vdW  Elec       q    Type
REMARK                         _______ _______ _______ _____ _____    ______ ____
ROOT
ATOM      1  N   UNL     1      -0.027  -2.736  -3.572  0.00  0.00    -0.271 N 
ATOM      2  C   UNL     1       0.266  -3.313  -4.753  0.00  0.00    +0.312 C 
ATOM      3  O   UNL     1      -0.530  -3.961  -5.405  0.00  0.00    -0.252 OA
ATOM      4  N   UNL     1       1.532  -3.093  -5.130  0.00  0.00    -0.220 N 
ATOM      5  C   UNL     1       2.196  -2.344  -4.224  0.00  0.00    +0.247 C 
ATOM      6  O   UNL     1       3.350  -1.978  -4.280  0.00  0.00    -0.273 OA
ATOM      7  C   UNL     1       1.197  -2.058  -3.127  0.00  0.00    +0.112 C 
ATOM      8  C   UNL     1       1.679  -2.640  -1.802  0.00  0.00    +0.017 C 
ATOM      9  C   UNL     1       0.661  -2.312  -0.705  0.00  0.00    -0.076 C 
ATOM     10  C   UNL     1      -0.034  -0.297  -1.862  0.00  0.00    -0.076 C 
ATOM     11  C   UNL     1       0.961  -0.557  -2.997  0.00  0.00    +0.017 C 
ATOM     12  N   UNL     1       0.523  -0.843  -0.605  0.00  0.00    +0.380 N 
ATOM     13  H   UNL     1       1.450  -0.432  -0.445  0.00  0.00    -0.082 HD
ENDROOT
BRANCH   1  14
ATOM     14  C   UNL     1      -1.312  -2.776  -2.870  0.00  0.00    +0.112 C 
BRANCH  14  15
ATOM     15  C   UNL     1      -1.601  -4.209  -2.418  0.00  0.00    +0.047 C 
BRANCH  15  16
ATOM     16  C   UNL     1      -2.879  -4.230  -1.576  0.00  0.00    +0.161 C 
BRANCH  16  18
ATOM     17  C   UNL     1      -4.328  -5.699  -0.356  0.00  0.00    +0.193 C 
ATOM     18  O   UNL     1      -3.149  -5.568  -1.154  0.00  0.00    -0.383 OA
ENDBRANCH  16  18
ENDBRANCH  15  16
ENDBRANCH  14  15
ENDBRANCH   1  14
BRANCH  12  19
ATOM     19  C   UNL     1      -0.358  -0.496   0.529  0.00  0.00    -0.079 C 
BRANCH  19  20
ATOM     20  C   UNL     1      -0.308   1.018   0.746  0.00  0.00    -0.014 C 
BRANCH  20  21
ATOM     21  C   UNL     1      -1.197   1.393   1.933  0.00  0.00    +0.033 C 
BRANCH  21  22
ATOM     22  C   UNL     1      -1.147   2.884   2.147  0.00  0.00    -0.047 A 
ATOM     23  C   UNL     1      -0.197   3.430   2.990  0.00  0.00    +0.003 A 
ATOM     24  C   UNL     1      -0.148   4.798   3.182  0.00  0.00    +0.000 A 
ATOM     25  C   UNL     1      -1.056   5.619   2.539  0.00  0.00    +0.000 A 
ATOM     26  C   UNL     1      -2.010   5.072   1.701  0.00  0.00    +0.000 A 
ATOM     27  C   UNL     1      -2.055   3.705   1.504  0.00  0.00    +0.003 A 
ENDBRANCH  21  22
ENDBRANCH  20  21
ENDBRANCH  19  20
ENDBRANCH  12  19
BRANCH   4  28
ATOM     28  C   UNL     1       2.122  -3.601  -6.370  0.00  0.00    +0.153 C 
BRANCH  28  29
ATOM     29  C   UNL     1       2.732  -4.956  -6.117  0.00  0.00    -0.029 A 
ATOM     30  C   UNL     1       1.955  -6.101  -6.288  0.00  0.00    +0.006 A 
ATOM     31  C   UNL     1       2.474  -7.339  -6.068  0.00  0.00    +0.009 A 
ATOM     32  C   UNL     1       3.813  -7.470  -5.662  0.00  0.00    -0.018 A 
ATOM     33  C   UNL     1       4.385  -8.732  -5.426  0.00  0.00    +0.008 A 
ATOM     34  C   UNL     1       5.685  -8.820  -5.035  0.00  0.00    +0.001 A 
ATOM     35  C   UNL     1       6.462  -7.675  -4.864  0.00  0.00    +0.001 A 
ATOM     36  C   UNL     1       5.943  -6.437  -5.085  0.00  0.00    +0.008 A 
ATOM     37  C   UNL     1       4.603  -6.306  -5.489  0.00  0.00    -0.018 A 
ATOM     38  C   UNL     1       4.034  -5.044  -5.731  0.00  0.00    +0.013 A 
ENDBRANCH  28  29
ENDBRANCH   4  28
TORSDOF 10
