REMARK  Name = ZINC20883102
REMARK  7 active torsions:
REMARK  status: ('A' for Active; 'I' for Inactive)
REMARK    1  A    between atoms: C_1  and  O_2
REMARK    2  A    between atoms: O_2  and  C_3
REMARK    3  A    between atoms: C_7  and  C_9
REMARK    4  A    between atoms: C_14  and  C_24
REMARK    5  A    between atoms: C_27  and  O_32
REMARK    6  A    between atoms: C_28  and  O_30
REMARK    7  A    between atoms: O_30  and  C_31
REMARK                            x       y       z     vdW  Elec       q    Type
REMARK                         _______ _______ _______ _____ _____    ______ ____
ROOT
ATOM      1  C   UNL     1       4.196   5.297  -2.602  0.00  0.00    +0.032 C 
ATOM      2  C   UNL     1       3.828   5.196  -1.123  0.00  0.00    +0.059 C 
ATOM      3  C   UNL     1       3.261   3.818  -0.824  0.00  0.00    +0.017 C 
ATOM      4  C   UNL     1       3.695   2.741  -1.500  0.00  0.00    +0.036 C 
ATOM      5  C   UNL     1       3.225   1.320  -1.299  0.00  0.00    +0.136 C 
ATOM      6  N   UNL     1       2.422   1.114  -0.113  0.00  0.00    -0.331 N 
ATOM      7  C   UNL     1       1.174   1.720   0.024  0.00  0.00    +0.049 A 
ATOM      8  C   UNL     1       0.005   0.976   0.030  0.00  0.00    +0.025 A 
ATOM      9  C   UNL     1      -1.215   1.629   0.060  0.00  0.00    +0.002 A 
ATOM     10  C   UNL     1      -1.270   3.010   0.096  0.00  0.00    +0.002 A 
ATOM     11  C   UNL     1      -0.103   3.756   0.108  0.00  0.00    +0.025 A 
ATOM     12  C   UNL     1       1.118   3.104   0.089  0.00  0.00    +0.052 A 
ATOM     13  N   UNL     1       2.327   3.788   0.160  0.00  0.00    -0.316 N 
ATOM     14  C   UNL     1       4.672   2.883  -2.513  0.00  0.00    +0.163 C 
ATOM     15  O   UNL     1       5.065   1.889  -3.093  0.00  0.00    -0.292 OA
ATOM     16  C   UNL     1       5.241   4.216  -2.898  0.00  0.00    +0.088 C 
ATOM     17  H   UNL     1       2.794   0.470   0.698  0.00  0.00    +0.147 HD
ATOM     18  H   UNL     1       2.500   4.331   1.101  0.00  0.00    +0.152 HD
ENDROOT
BRANCH   1  23
ATOM     19  C   UNL     1       4.710   8.725  -4.108  0.00  0.00    +0.120 A 
ATOM     20  C   UNL     1       5.838   9.158  -3.426  0.00  0.00    +0.045 A 
ATOM     21  C   UNL     1       6.428   8.341  -2.481  0.00  0.00    +0.004 A 
ATOM     22  C   UNL     1       5.896   7.093  -2.216  0.00  0.00    +0.004 A 
ATOM     23  C   UNL     1       4.773   6.659  -2.894  0.00  0.00    -0.040 A 
ATOM     24  C   UNL     1       4.181   7.470  -3.843  0.00  0.00    +0.049 A 
BRANCH  19  26
ATOM     25  C   UNL     1       4.730  10.803  -5.263  0.00  0.00    +0.277 C 
ATOM     26  O   UNL     1       4.128   9.526  -5.039  0.00  0.00    -0.495 OA
ENDBRANCH  19  26
ENDBRANCH   1  23
BRANCH   5  27
ATOM     27  C   UNL     1       2.414   0.911  -2.502  0.00  0.00    -0.019 A 
ATOM     28  C   UNL     1       1.235   1.571  -2.795  0.00  0.00    +0.009 A 
ATOM     29  C   UNL     1       0.488   1.201  -3.897  0.00  0.00    +0.049 A 
ATOM     30  C   UNL     1       0.920   0.166  -4.711  0.00  0.00    +0.158 A 
ATOM     31  C   UNL     1       2.106  -0.499  -4.416  0.00  0.00    +0.162 A 
ATOM     32  C   UNL     1       2.853  -0.119  -3.312  0.00  0.00    +0.055 A 
BRANCH  31  33
ATOM     33  O   UNL     1       2.534  -1.515  -5.211  0.00  0.00    -0.491 OA
ATOM     34  C   UNL     1       3.761  -2.152  -4.847  0.00  0.00    +0.277 C 
ENDBRANCH  31  33
BRANCH  30  35
ATOM     35  O   UNL     1       0.186  -0.200  -5.796  0.00  0.00    -0.503 OA
ATOM     36  H   UNL     1       0.530  -1.022  -6.441  0.00  0.00    +0.292 HD
ENDBRANCH  30  35
ENDBRANCH   5  27
TORSDOF 5
