REMARK  Name = ZINC63374775
REMARK  10 active torsions:
REMARK  status: ('A' for Active; 'I' for Inactive)
REMARK    1  A    between atoms: C_1  and  C_2
REMARK    2  A    between atoms: C_2  and  C_3
REMARK    3  A    between atoms: C_2  and  O_4
REMARK    4  A    between atoms: O_4  and  C_5
REMARK    5  A    between atoms: C_8  and  C_13
REMARK    6  A    between atoms: C_10  and  O_11
REMARK    7  A    between atoms: O_11  and  C_12
REMARK    8  A    between atoms: N_20  and  C_35
REMARK    9  A    between atoms: C_23  and  C_34
REMARK   10  A    between atoms: C_35  and  C_36
REMARK                            x       y       z     vdW  Elec       q    Type
REMARK                         _______ _______ _______ _____ _____    ______ ____
ROOT
ATOM      1  C   UNL     1      -2.185  -0.716   6.114  0.00  0.00    +0.065 C 
ATOM      2  C   UNL     1      -3.201   0.399   6.377  0.00  0.00    +0.121 C 
ATOM      3  N   UNL     1      -4.404   0.289   5.572  0.00  0.00    -0.283 N 
ATOM      4  C   UNL     1      -5.219   1.395   5.513  0.00  0.00    +0.234 C 
ATOM      5  O   UNL     1      -4.883   2.458   5.990  0.00  0.00    -0.274 OA
ATOM      6  C   UNL     1      -6.556   1.222   4.823  0.00  0.00    +0.203 C 
ATOM      7  N   UNL     1      -7.151  -0.053   5.264  0.00  0.00    -0.288 N 
ATOM      8  C   UNL     1      -6.325  -1.143   5.264  0.00  0.00    +0.242 C 
ATOM      9  O   UNL     1      -6.713  -2.251   5.570  0.00  0.00    -0.273 OA
ATOM     10  C   UNL     1      -4.901  -0.873   4.855  0.00  0.00    +0.135 C 
ATOM     11  C   UNL     1      -4.030  -2.090   4.836  0.00  0.00    +0.139 C 
ATOM     12  C   UNL     1      -2.987  -1.981   5.941  0.00  0.00    -0.027 C 
ATOM     13  C   UNL     1      -3.013  -3.128   6.601  0.00  0.00    -0.000 A 
ATOM     14  C   UNL     1      -2.178  -3.654   7.694  0.00  0.00    +0.010 A 
ATOM     15  C   UNL     1      -2.506  -4.888   8.159  0.00  0.00    +0.001 A 
ATOM     16  C   UNL     1      -3.568  -5.644   7.654  0.00  0.00    +0.002 A 
ATOM     17  C   UNL     1      -4.382  -5.244   6.644  0.00  0.00    +0.026 A 
ATOM     18  C   UNL     1      -4.130  -3.966   6.066  0.00  0.00    +0.043 A 
ATOM     19  N   UNL     1      -4.731  -3.346   5.099  0.00  0.00    -0.375 N 
ATOM     20  C   UNL     1      -4.985  -0.435   3.391  0.00  0.00    +0.044 C 
ATOM     21  H   UNL     1      -5.513  -3.671   4.627  0.00  0.00    +0.160 HD
ENDROOT
BRANCH   1  25
ATOM     22  C   UNL     1       0.027   0.125   2.552  0.00  0.00    +0.162 A 
ATOM     23  C   UNL     1      -1.247   0.643   2.718  0.00  0.00    +0.050 A 
ATOM     24  C   UNL     1      -1.960   0.369   3.870  0.00  0.00    +0.008 A 
ATOM     25  C   UNL     1      -1.404  -0.421   4.860  0.00  0.00    -0.035 A 
ATOM     26  C   UNL     1      -0.132  -0.940   4.701  0.00  0.00    +0.053 A 
ATOM     27  C   UNL     1       0.585  -0.674   3.545  0.00  0.00    +0.162 A 
BRANCH  27  28
ATOM     28  O   UNL     1       1.833  -1.189   3.385  0.00  0.00    -0.491 OA
ATOM     29  C   UNL     1       2.342  -2.001   4.446  0.00  0.00    +0.277 C 
ENDBRANCH  27  28
BRANCH  22  30
ATOM     30  O   UNL     1       0.730   0.394   1.419  0.00  0.00    -0.486 OA
BRANCH  30  32
ATOM     31  C   UNL     1       0.351   2.720   0.885  0.00  0.00    +0.051 C 
ATOM     32  C   UNL     1       0.118   1.267   0.468  0.00  0.00    +0.167 C 
ATOM     33  C   UNL     1       0.732   1.028  -0.913  0.00  0.00    +0.051 C 
ENDBRANCH  30  32
ENDBRANCH  22  30
ENDBRANCH   1  25
BRANCH   7  34
ATOM     34  C   UNL     1      -8.552  -0.147   5.682  0.00  0.00    +0.140 C 
BRANCH  34  35
ATOM     35  C   UNL     1      -9.425  -0.470   4.468  0.00  0.00    +0.136 C 
ATOM     36  C   UNL     1     -10.914  -0.452   4.874  0.00  0.00    +0.035 C 
ATOM     37  C   UNL     1     -11.490  -1.649   4.071  0.00  0.00    +0.031 C 
ATOM     38  C   UNL     1     -10.286  -2.623   4.091  0.00  0.00    +0.160 C 
ATOM     39  O   UNL     1      -9.122  -1.785   3.987  0.00  0.00    -0.375 OA
ENDBRANCH  34  35
ENDBRANCH   7  34
TORSDOF 6
