REMARK  Name = ZINC08889473
REMARK  8 active torsions:
REMARK  status: ('A' for Active; 'I' for Inactive)
REMARK    1  A    between atoms: C_1  and  C_2
REMARK    2  A    between atoms: C_6  and  C_14
REMARK    3  A    between atoms: C_12  and  C_13
REMARK    4  A    between atoms: C_14  and  O_15
REMARK    5  A    between atoms: O_15  and  C_16
REMARK    6  A    between atoms: C_16  and  C_18
REMARK    7  A    between atoms: C_18  and  C_19
REMARK    8  A    between atoms: C_19  and  C_20
REMARK                            x       y       z     vdW  Elec       q    Type
REMARK                         _______ _______ _______ _____ _____    ______ ____
ROOT
ATOM      1  C   UNL     1      -2.439   9.223  -5.721  0.00  0.00    +0.308 C 
ATOM      2  O   UNL     1      -2.581   8.860  -6.864  0.00  0.00    -0.251 OA
ENDROOT
BRANCH   1   3
ATOM      3  O   UNL     1      -2.551  10.524  -5.412  0.00  0.00    -0.460 OA
BRANCH   3   4
ATOM      4  C   UNL     1      -2.844  11.438  -6.501  0.00  0.00    +0.268 C 
BRANCH   4  10
ATOM      5  C   UNL     1      -4.054  17.293  -9.412  0.00  0.00    +0.044 C 
ATOM      6  C   UNL     1      -3.760  16.126  -8.506  0.00  0.00    -0.044 A 
ATOM      7  C   UNL     1      -3.686  14.846  -9.036  0.00  0.00    +0.004 A 
ATOM      8  C   UNL     1      -3.420  13.775  -8.229  0.00  0.00    +0.012 A 
ATOM      9  C   UNL     1      -3.220  13.972  -6.860  0.00  0.00    +0.024 A 
ATOM     10  C   UNL     1      -2.933  12.845  -5.968  0.00  0.00    +0.007 A 
ATOM     11  C   UNL     1      -2.754  13.102  -4.647  0.00  0.00    +0.099 A 
ATOM     12  C   UNL     1      -2.839  14.429  -4.173  0.00  0.00    +0.338 A 
ATOM     13  O   UNL     1      -2.673  14.647  -2.986  0.00  0.00    -0.245 OA
ATOM     14  O   UNL     1      -3.102  15.456  -4.996  0.00  0.00    -0.422 OA
ATOM     15  C   UNL     1      -3.294  15.268  -6.319  0.00  0.00    +0.143 A 
ATOM     16  C   UNL     1      -3.566  16.341  -7.157  0.00  0.00    -0.005 A 
ATOM     17  C   UNL     1      -3.650  17.737  -6.595  0.00  0.00    +0.048 C 
ENDBRANCH   4  10
ENDBRANCH   3   4
ENDBRANCH   1   3
BRANCH   1  18
ATOM     18  C   UNL     1      -2.136   8.216  -4.642  0.00  0.00    +0.128 C 
BRANCH  18  19
ATOM     19  C   UNL     1      -2.062   6.816  -5.257  0.00  0.00    +0.085 C 
BRANCH  19  20
ATOM     20  C   UNL     1      -1.759   5.809  -4.178  0.00  0.00    +0.111 A 
ATOM     21  N   UNL     1      -1.651   4.504  -4.524  0.00  0.00    -0.310 N 
ATOM     22  H   UNL     1      -1.773   4.261  -5.456  0.00  0.00    +0.170 HD
ATOM     23  C   UNL     1      -1.382   3.522  -3.632  0.00  0.00    +0.260 A 
ATOM     24  O   UNL     1      -1.288   2.352  -3.962  0.00  0.00    -0.267 OA
ATOM     25  C   UNL     1      -1.213   3.947  -2.271  0.00  0.00    +0.075 A 
ATOM     26  C   UNL     1      -0.921   3.104  -1.126  0.00  0.00    -0.023 A 
ATOM     27  C   UNL     1      -0.803   3.725   0.071  0.00  0.00    -0.004 A 
ATOM     28  S   UNL     1      -1.074   5.446  -0.270  0.00  0.00    -0.073 S 
ATOM     29  C   UNL     1      -1.343   5.329  -2.010  0.00  0.00    +0.116 A 
ATOM     30  N   UNL     1      -1.610   6.237  -2.944  0.00  0.00    -0.227 NA
ATOM     31  C   UNL     1      -0.510   3.093   1.397  0.00  0.00    +0.043 C 
ATOM     32  C   UNL     1      -0.726   1.578   1.270  0.00  0.00    +0.005 C 
ATOM     33  C   UNL     1      -0.013   1.086   0.008  0.00  0.00    +0.005 C 
ATOM     34  C   UNL     1      -0.749   1.591  -1.233  0.00  0.00    +0.037 C 
ENDBRANCH  19  20
ENDBRANCH  18  19
ENDBRANCH   1  18
TORSDOF 6
