REMARK  Name = ZINC17145899
REMARK  5 active torsions:
REMARK  status: ('A' for Active; 'I' for Inactive)
REMARK    1  A    between atoms: C_1  and  C_2
REMARK    2  A    between atoms: C_2  and  C_3
REMARK    3  A    between atoms: C_3  and  C_4
REMARK    4  A    between atoms: C_4  and  C_5
REMARK    5  A    between atoms: C_5  and  C_13
REMARK                            x       y       z     vdW  Elec       q    Type
REMARK                         _______ _______ _______ _____ _____    ______ ____
ROOT
ATOM      1  C   UNL     1       1.444  -2.513  -2.505  0.00  0.00    -0.046 C 
ATOM      2  C   UNL     1       2.751  -2.815  -2.459  0.00  0.00    +0.096 C 
ATOM      3  C   UNL     1       3.603  -3.295  -3.563  0.00  0.00    +0.283 C 
ATOM      4  O   UNL     1       3.221  -3.521  -4.839  0.00  0.00    -0.267 OA
ATOM      5  N   UNL     1       4.809  -3.458  -3.060  0.00  0.00    -0.153 NA
ATOM      6  C   UNL     1       4.824  -3.139  -1.764  0.00  0.00    +0.162 C 
ATOM      7  S   UNL     1       6.209  -3.220  -0.761  0.00  0.00    -0.016 S 
ATOM      8  N   UNL     1       3.607  -2.738  -1.352  0.00  0.00    -0.291 N 
ATOM      9  C   UNL     1       0.682  -2.660  -3.797  0.00  0.00    +0.041 C 
ATOM     10  H   UNL     1       3.368  -2.451  -0.457  0.00  0.00    +0.154 HD
ENDROOT
BRANCH   1  11
ATOM     11  C   UNL     1       0.739  -2.027  -1.265  0.00  0.00    +0.032 C 
BRANCH  11  12
ATOM     12  C   UNL     1       0.718  -0.497  -1.257  0.00  0.00    +0.004 C 
BRANCH  12  14
ATOM     13  C   UNL     1      -0.019   1.526   0.010  0.00  0.00    +0.004 C 
ATOM     14  C   UNL     1       0.002  -0.004   0.002  0.00  0.00    -0.003 C 
ENDBRANCH  12  14
ENDBRANCH  11  12
ENDBRANCH   1  11
TORSDOF 3
