REMARK  Name = ZINC37425449
REMARK  17 active torsions:
REMARK  status: ('A' for Active; 'I' for Inactive)
REMARK    1  A    between atoms: C_1  and  C_2
REMARK    2  A    between atoms: C_2  and  C_3
REMARK    3  A    between atoms: C_2  and  C_4
REMARK    4  A    between atoms: C_2  and  C_5
REMARK    5  A    between atoms: N_8  and  C_10
REMARK    6  A    between atoms: N_11  and  C_28
REMARK    7  A    between atoms: C_16  and  C_18
REMARK    8  A    between atoms: C_21  and  O_26
REMARK    9  A    between atoms: C_22  and  O_24
REMARK   10  A    between atoms: O_24  and  C_25
REMARK   11  A    between atoms: O_26  and  C_27
REMARK   12  A    between atoms: C_28  and  C_29
REMARK   13  A    between atoms: N_31  and  C_32
REMARK   14  A    between atoms: C_32  and  C_33
REMARK   15  A    between atoms: C_33  and  N_34
REMARK   16  A    between atoms: N_34  and  C_35
REMARK   17  A    between atoms: N_34  and  C_36
REMARK                            x       y       z     vdW  Elec       q    Type
REMARK                         _______ _______ _______ _____ _____    ______ ____
ROOT
ATOM      1  C   UNL     1       0.087  -0.745  -1.565  0.00  0.00    +0.075 A 
ATOM      2  C   UNL     1      -1.114  -1.448  -1.669  0.00  0.00    +0.033 A 
ATOM      3  C   UNL     1      -1.504  -1.412  -2.964  0.00  0.00    +0.131 A 
ATOM      4  N   UNL     1      -0.590  -0.710  -3.660  0.00  0.00    -0.253 N 
ATOM      5  N   UNL     1       0.401  -0.297  -2.756  0.00  0.00    -0.174 NA
ATOM      6  C   UNL     1      -0.627  -0.425  -5.096  0.00  0.00    +0.174 C 
ATOM      7  N   UNL     1      -2.671  -2.026  -3.445  0.00  0.00    -0.246 N 
ATOM      8  C   UNL     1      -2.912  -3.296  -3.101  0.00  0.00    +0.231 C 
ATOM      9  O   UNL     1      -4.026  -3.756  -3.234  0.00  0.00    -0.274 OA
ATOM     10  C   UNL     1      -1.811  -4.152  -2.553  0.00  0.00    +0.166 C 
ATOM     11  S   UNL     1      -1.668  -3.941  -0.746  0.00  0.00    -0.138 S 
ATOM     12  C   UNL     1      -1.871  -2.133  -0.560  0.00  0.00    +0.112 C 
ENDROOT
BRANCH  12  13
ATOM     13  C   UNL     1      -1.320  -1.696   0.773  0.00  0.00    -0.026 A 
ATOM     14  C   UNL     1      -0.243  -2.364   1.326  0.00  0.00    +0.009 A 
ATOM     15  C   UNL     1       0.266  -1.967   2.549  0.00  0.00    +0.050 A 
ATOM     16  C   UNL     1      -0.304  -0.898   3.222  0.00  0.00    +0.162 A 
ATOM     17  C   UNL     1      -1.387  -0.226   2.665  0.00  0.00    +0.162 A 
ATOM     18  C   UNL     1      -1.889  -0.626   1.437  0.00  0.00    +0.054 A 
BRANCH  17  19
ATOM     19  O   UNL     1      -1.950   0.823   3.322  0.00  0.00    -0.491 OA
ATOM     20  C   UNL     1      -3.059   1.465   2.691  0.00  0.00    +0.277 C 
ENDBRANCH  17  19
BRANCH  16  21
ATOM     21  O   UNL     1       0.195  -0.507   4.426  0.00  0.00    -0.491 OA
ATOM     22  C   UNL     1       1.308  -1.244   4.936  0.00  0.00    +0.277 C 
ENDBRANCH  16  21
ENDBRANCH  12  13
BRANCH   1  24
ATOM     23  C   UNL     1       1.976   0.505  -0.556  0.00  0.00    +0.017 C 
ATOM     24  C   UNL     1       0.882  -0.533  -0.302  0.00  0.00    +0.007 C 
ATOM     25  C   UNL     1       1.522  -1.855   0.126  0.00  0.00    +0.017 C 
ATOM     26  C   UNL     1      -0.047  -0.034   0.807  0.00  0.00    +0.017 C 
ENDBRANCH   1  24
BRANCH   7  27
ATOM     27  C   UNL     1      -3.604  -1.293  -4.304  0.00  0.00    +0.210 C 
BRANCH  27  28
ATOM     28  C   UNL     1      -4.749  -0.774  -3.474  0.00  0.00    +0.231 C 
ATOM     29  O   UNL     1      -4.721  -0.884  -2.266  0.00  0.00    -0.274 OA
ATOM     30  N   UNL     1      -5.805  -0.187  -4.073  0.00  0.00    -0.316 N 
ATOM     31  H   UNL     1      -5.827  -0.099  -5.038  0.00  0.00    +0.149 HD
BRANCH  30  32
ATOM     32  C   UNL     1      -6.918   0.317  -3.265  0.00  0.00    +0.085 C 
BRANCH  32  33
ATOM     33  C   UNL     1      -7.977   0.931  -4.184  0.00  0.00    -0.061 C 
BRANCH  33  34
ATOM     34  N   UNL     1      -9.093   1.437  -3.374  0.00  0.00    +0.377 N 
ATOM     35  C   UNL     1     -10.053   2.132  -4.243  0.00  0.00    -0.097 C 
ATOM     36  C   UNL     1      -9.763   0.313  -2.706  0.00  0.00    -0.097 C 
ATOM     37  H   UNL     1      -8.741   2.080  -2.680  0.00  0.00    -0.083 HD
ENDBRANCH  33  34
ENDBRANCH  32  33
ENDBRANCH  30  32
ENDBRANCH  27  28
ENDBRANCH   7  27
TORSDOF 9
