REMARK  Name = ZINC39890285
REMARK  5 active torsions:
REMARK  status: ('A' for Active; 'I' for Inactive)
REMARK    1  A    between atoms: C_1  and  C_2
REMARK    2  A    between atoms: C_6  and  C_8
REMARK    3  A    between atoms: C_8  and  N_9
REMARK    4  A    between atoms: N_32  and  C_33
REMARK    5  A    between atoms: C_33  and  C_34
REMARK                            x       y       z     vdW  Elec       q    Type
REMARK                         _______ _______ _______ _____ _____    ______ ____
ROOT
ATOM      1  N   UNL     1       1.440  -3.073   2.903  0.00  0.00    -0.264 N 
ATOM      2  C   UNL     1       2.184  -4.181   2.538  0.00  0.00    +0.043 A 
ATOM      3  C   UNL     1       1.819  -5.272   1.747  0.00  0.00    +0.024 A 
ATOM      4  C   UNL     1       2.775  -6.254   1.541  0.00  0.00    +0.002 A 
ATOM      5  C   UNL     1       4.039  -6.170   2.089  0.00  0.00    +0.000 A 
ATOM      6  C   UNL     1       4.415  -5.089   2.879  0.00  0.00    +0.008 A 
ATOM      7  C   UNL     1       3.469  -4.109   3.090  0.00  0.00    +0.011 A 
ATOM      8  C   UNL     1       3.516  -2.835   3.870  0.00  0.00    +0.174 C 
ATOM      9  C   UNL     1       2.145  -2.224   3.681  0.00  0.00    +0.253 C 
ATOM     10  O   UNL     1       1.753  -1.174   4.142  0.00  0.00    -0.272 OA
ATOM     11  C   UNL     1       4.588  -1.913   3.405  0.00  0.00    +0.084 A 
ATOM     12  C   UNL     1       4.862  -1.323   2.090  0.00  0.00    +0.199 A 
ATOM     13  O   UNL     1       4.088  -1.400   1.152  0.00  0.00    -0.287 OA
ATOM     14  C   UNL     1       6.168  -0.623   2.010  0.00  0.00    +0.067 A 
ATOM     15  C   UNL     1       6.655  -0.177   0.781  0.00  0.00    +0.053 A 
ATOM     16  C   UNL     1       7.872   0.469   0.725  0.00  0.00    +0.124 A 
ATOM     17  C   UNL     1       8.607   0.671   1.887  0.00  0.00    +0.042 A 
ATOM     18  C   UNL     1       8.135   0.235   3.104  0.00  0.00    +0.050 A 
ATOM     19  C   UNL     1       6.906  -0.419   3.187  0.00  0.00    +0.140 A 
ATOM     20  O   UNL     1       6.462  -0.829   4.398  0.00  0.00    -0.450 OA
ATOM     21  C   UNL     1       5.394  -1.646   4.476  0.00  0.00    +0.200 A 
ATOM     22  C   UNL     1       4.877  -2.387   5.641  0.00  0.00    +0.284 C 
ATOM     23  O   UNL     1       5.369  -2.370   6.752  0.00  0.00    -0.267 OA
ATOM     24  N   UNL     1       3.776  -3.086   5.293  0.00  0.00    -0.266 N 
ATOM     25  F   UNL     1       8.351   0.905  -0.461  0.00  0.00    -0.205 F 
ENDROOT
BRANCH   1  26
ATOM     26  C   UNL     1       0.054  -2.845   2.489  0.00  0.00    +0.148 C 
BRANCH  26  32
ATOM     27  C   UNL     1      -0.018   1.503   0.010  0.00  0.00    +0.044 C 
ATOM     28  C   UNL     1       0.002  -0.004   0.002  0.00  0.00    -0.050 A 
ATOM     29  C   UNL     1       0.006  -0.689  -1.199  0.00  0.00    +0.003 A 
ATOM     30  C   UNL     1       0.025  -2.071  -1.207  0.00  0.00    +0.001 A 
ATOM     31  C   UNL     1       0.040  -2.768  -0.013  0.00  0.00    +0.005 A 
ATOM     32  C   UNL     1       0.037  -2.084   1.188  0.00  0.00    -0.029 A 
ATOM     33  C   UNL     1       0.023  -0.702   1.195  0.00  0.00    +0.008 A 
ENDBRANCH  26  32
ENDBRANCH   1  26
BRANCH  24  34
ATOM     34  C   UNL     1       2.981  -3.943   6.177  0.00  0.00    +0.184 C 
BRANCH  34  35
ATOM     35  C   UNL     1       3.524  -5.348   6.135  0.00  0.00    +0.122 A 
ATOM     36  C   UNL     1       4.474  -5.849   6.946  0.00  0.00    +0.046 A 
ATOM     37  C   UNL     1       4.675  -7.194   6.558  0.00  0.00    +0.041 A 
ATOM     38  C   UNL     1       3.836  -7.434   5.534  0.00  0.00    +0.195 A 
ATOM     39  O   UNL     1       3.138  -6.314   5.286  0.00  0.00    -0.466 OA
ENDBRANCH  34  35
ENDBRANCH  24  34
TORSDOF 4
