REMARK  Name = ZINC26920018
REMARK  8 active torsions:
REMARK  status: ('A' for Active; 'I' for Inactive)
REMARK    1  A    between atoms: C_1  and  C_2
REMARK    2  A    between atoms: C_5  and  C_32
REMARK    3  A    between atoms: C_6  and  N_8
REMARK    4  A    between atoms: C_9  and  C_11
REMARK    5  A    between atoms: C_12  and  C_31
REMARK    6  A    between atoms: C_17  and  C_19
REMARK    7  A    between atoms: C_28  and  O_29
REMARK    8  A    between atoms: O_29  and  C_30
REMARK                            x       y       z     vdW  Elec       q    Type
REMARK                         _______ _______ _______ _____ _____    ______ ____
ROOT
ATOM      1  C   UNL     1       1.581   0.390   0.720  0.00  0.00    +0.056 C 
ATOM      2  C   UNL     1       2.808   0.567   1.256  0.00  0.00    +0.017 C 
ATOM      3  N   UNL     1       3.679  -0.477   1.383  0.00  0.00    -0.300 N 
ATOM      4  C   UNL     1       3.399  -1.729   0.997  0.00  0.00    +0.135 C 
ATOM      5  S   UNL     1       4.584  -2.946   1.212  0.00  0.00    -0.019 S 
ATOM      6  N   UNL     1       2.216  -2.061   0.444  0.00  0.00    -0.315 N 
ATOM      7  C   UNL     1       1.203  -1.006   0.270  0.00  0.00    +0.143 C 
ATOM      8  C   UNL     1       3.222   1.938   1.724  0.00  0.00    +0.061 C 
ATOM      9  H   UNL     1       4.673  -0.313   1.823  0.00  0.00    +0.154 HD
ATOM     10  H   UNL     1       1.998  -3.091   0.125  0.00  0.00    +0.149 HD
ENDROOT
BRANCH   7  11
ATOM     11  C   UNL     1       0.853  -0.943  -1.194  0.00  0.00    +0.027 A 
ATOM     12  C   UNL     1      -0.490  -1.003  -1.603  0.00  0.00    -0.009 A 
ATOM     13  C   UNL     1      -1.533  -1.109  -0.666  0.00  0.00    +0.009 A 
ATOM     14  C   UNL     1      -2.822  -1.159  -1.097  0.00  0.00    +0.001 A 
ATOM     15  C   UNL     1      -3.128  -1.099  -2.455  0.00  0.00    +0.001 A 
ATOM     16  C   UNL     1      -2.145  -0.991  -3.391  0.00  0.00    +0.008 A 
ATOM     17  C   UNL     1      -0.801  -0.937  -2.984  0.00  0.00    -0.017 A 
ATOM     18  C   UNL     1       0.240  -0.824  -3.922  0.00  0.00    +0.012 A 
ATOM     19  C   UNL     1       1.530  -0.774  -3.495  0.00  0.00    +0.046 A 
ATOM     20  C   UNL     1       1.839  -0.833  -2.132  0.00  0.00    +0.126 A 
BRANCH  20  21
ATOM     21  O   UNL     1       3.138  -0.781  -1.737  0.00  0.00    -0.495 OA
ATOM     22  C   UNL     1       4.125  -0.666  -2.763  0.00  0.00    +0.277 C 
ENDBRANCH  20  21
ENDBRANCH   7  11
BRANCH   1  24
ATOM     23  N   UNL     1       0.846   2.376  -0.397  0.00  0.00    -0.281 N 
ATOM     24  C   UNL     1       0.677   1.472   0.589  0.00  0.00    +0.248 C 
ATOM     25  O   UNL     1      -0.253   1.586   1.366  0.00  0.00    -0.270 OA
ATOM     26  H   UNL     1       1.720   2.307  -1.062  0.00  0.00    +0.155 HD
BRANCH  23  32
ATOM     27  C   UNL     1      -2.536   5.392   1.507  0.00  0.00    +0.044 C 
ATOM     28  C   UNL     1      -1.742   4.883   0.332  0.00  0.00    -0.049 A 
ATOM     29  C   UNL     1      -1.937   5.430  -0.923  0.00  0.00    +0.004 A 
ATOM     30  C   UNL     1      -1.209   4.966  -2.003  0.00  0.00    +0.005 A 
ATOM     31  C   UNL     1      -0.282   3.957  -1.831  0.00  0.00    -0.029 A 
ATOM     32  C   UNL     1      -0.088   3.401  -0.574  0.00  0.00    +0.037 A 
ATOM     33  C   UNL     1      -0.820   3.870   0.510  0.00  0.00    +0.027 A 
ATOM     34  C   UNL     1       0.514   3.455  -3.009  0.00  0.00    +0.045 C 
ENDBRANCH  23  32
ENDBRANCH   1  24
TORSDOF 4
