REMARK  Name = ZINC09297826
REMARK  12 active torsions:
REMARK  status: ('A' for Active; 'I' for Inactive)
REMARK    1  A    between atoms: C_1  and  C_2
REMARK    2  A    between atoms: C_2  and  O_3
REMARK    3  A    between atoms: O_3  and  C_4
REMARK    4  A    between atoms: C_4  and  C_6
REMARK    5  A    between atoms: C_7  and  C_35
REMARK    6  A    between atoms: C_8  and  C_33
REMARK    7  A    between atoms: C_9  and  N_11
REMARK    8  A    between atoms: C_12  and  C_14
REMARK    9  A    between atoms: C_17  and  S_20
REMARK   10  A    between atoms: S_20  and  N_23
REMARK   11  A    between atoms: C_25  and  C_32
REMARK   12  A    between atoms: C_28  and  C_31
REMARK                            x       y       z     vdW  Elec       q    Type
REMARK                         _______ _______ _______ _____ _____    ______ ____
ROOT
ATOM      1  N   UNL     1       3.642   3.507  -0.015  0.00  0.00    -0.275 N 
ATOM      2  C   UNL     1       3.656   2.160  -0.023  0.00  0.00    +0.249 C 
ATOM      3  O   UNL     1       4.716   1.564  -0.037  0.00  0.00    -0.270 OA
ATOM      4  H   UNL     1       2.796   3.983  -0.004  0.00  0.00    +0.156 HD
ENDROOT
BRANCH   1   8
ATOM      5  C   UNL     1       7.338   5.138  -0.044  0.00  0.00    +0.102 A 
ATOM      6  C   UNL     1       6.321   6.071  -0.029  0.00  0.00    -0.010 A 
ATOM      7  C   UNL     1       5.021   5.596  -0.018  0.00  0.00    +0.084 A 
ATOM      8  C   UNL     1       4.830   4.211  -0.024  0.00  0.00    +0.091 A 
ATOM      9  S   UNL     1       6.449   3.592  -0.036  0.00  0.00    -0.065 S 
ATOM     10  C   UNL     1       6.615   7.549  -0.025  0.00  0.00    +0.046 C 
BRANCH   5  11
ATOM     11  C   UNL     1       8.783   5.361  -0.057  0.00  0.00    +0.346 C 
ATOM     12  O   UNL     1       9.223   6.495  -0.056  0.00  0.00    -0.244 OA
BRANCH  11  13
ATOM     13  O   UNL     1       9.628   4.308  -0.071  0.00  0.00    -0.461 OA
BRANCH  13  15
ATOM     14  C   UNL     1      11.820   3.292  -0.099  0.00  0.00    +0.048 C 
ATOM     15  C   UNL     1      11.027   4.600  -0.084  0.00  0.00    +0.229 C 
ENDBRANCH  13  15
ENDBRANCH  11  13
ENDBRANCH   5  11
BRANCH   7  16
ATOM     16  C   UNL     1       3.906   6.495  -0.003  0.00  0.00    +0.102 C 
ATOM     17  N   UNL     1       3.022   7.208   0.009  0.00  0.00    -0.191 NA
ENDBRANCH   7  16
ENDBRANCH   1   8
BRANCH   2  18
ATOM     18  C   UNL     1       2.385   1.407  -0.014  0.00  0.00    +0.037 A 
ATOM     19  C   UNL     1       1.167   2.088   0.002  0.00  0.00    +0.015 A 
ATOM     20  C   UNL     1      -0.017   1.379   0.010  0.00  0.00    +0.029 A 
ATOM     21  C   UNL     1       0.002  -0.004   0.002  0.00  0.00    +0.106 A 
ATOM     22  C   UNL     1       1.206  -0.686  -0.013  0.00  0.00    +0.029 A 
ATOM     23  C   UNL     1       2.397   0.011  -0.021  0.00  0.00    +0.015 A 
BRANCH  21  24
ATOM     24  S   UNL     1      -1.514  -0.902   0.012  0.00  0.00    +0.061 S 
ATOM     25  O   UNL     1      -1.224  -2.183   0.553  0.00  0.00    -0.153 OA
ATOM     26  O   UNL     1      -2.492  -0.040   0.578  0.00  0.00    -0.153 OA
BRANCH  24  27
ATOM     27  N   UNL     1      -1.951  -1.143  -1.567  0.00  0.00    -0.172 NA
ATOM     28  C   UNL     1      -2.799  -0.171  -2.275  0.00  0.00    +0.140 C 
ATOM     29  C   UNL     1      -2.118   0.176  -3.609  0.00  0.00    +0.131 C 
ATOM     30  O   UNL     1      -1.818  -1.033  -4.310  0.00  0.00    -0.371 OA
ATOM     31  C   UNL     1      -0.895  -1.889  -3.632  0.00  0.00    +0.131 C 
ATOM     32  C   UNL     1      -1.508  -2.338  -2.301  0.00  0.00    +0.140 C 
ATOM     33  C   UNL     1      -0.603  -3.115  -4.500  0.00  0.00    +0.039 C 
ATOM     34  C   UNL     1      -0.824   0.947  -3.341  0.00  0.00    +0.039 C 
ENDBRANCH  24  27
ENDBRANCH  21  24
ENDBRANCH   2  18
TORSDOF 8
