REMARK  Name = ZINC45545796
REMARK  7 active torsions:
REMARK  status: ('A' for Active; 'I' for Inactive)
REMARK    1  A    between atoms: C_1  and  C_2
REMARK    2  A    between atoms: C_2  and  C_4
REMARK    3  A    between atoms: C_2  and  O_21
REMARK    4  A    between atoms: C_9  and  C_12
REMARK    5  A    between atoms: C_16  and  N_18
REMARK    6  A    between atoms: O_21  and  C_22
REMARK    7  A    between atoms: C_22  and  C_24
REMARK                            x       y       z     vdW  Elec       q    Type
REMARK                         _______ _______ _______ _____ _____    ______ ____
ROOT
ATOM      1  C   UNL     1       0.707  -0.490  -1.238  0.00  0.00    +0.259 C 
ATOM      2  O   UNL     1       1.753  -1.097  -1.142  0.00  0.00    -0.271 OA
ATOM      3  N   UNL     1       0.176  -0.250  -2.453  0.00  0.00    -0.262 N 
ATOM      4  C   UNL     1       0.827  -0.698  -3.596  0.00  0.00    +0.165 A 
ATOM      5  N   UNL     1       0.479  -0.562  -4.862  0.00  0.00    -0.225 NA
ATOM      6  C   UNL     1       1.226  -1.058  -5.838  0.00  0.00    +0.080 A 
ATOM      7  C   UNL     1       2.379  -1.724  -5.527  0.00  0.00    +0.076 A 
ATOM      8  S   UNL     1       2.360  -1.605  -3.743  0.00  0.00    -0.060 S 
ATOM      9  H   UNL     1      -0.660   0.235  -2.530  0.00  0.00    +0.157 HD
ENDROOT
BRANCH   6  10
ATOM     10  C   UNL     1       0.814  -0.894  -7.253  0.00  0.00    +0.003 A 
ATOM     11  C   UNL     1       1.600  -1.423  -8.276  0.00  0.00    +0.010 A 
ATOM     12  C   UNL     1       1.212  -1.266  -9.591  0.00  0.00    +0.003 A 
ATOM     13  C   UNL     1       0.046  -0.586  -9.895  0.00  0.00    +0.033 A 
ATOM     14  C   UNL     1      -0.737  -0.059  -8.884  0.00  0.00    +0.127 A 
ATOM     15  C   UNL     1      -0.362  -0.215  -7.565  0.00  0.00    +0.042 A 
BRANCH  14  16
ATOM     16  N   UNL     1      -1.982   0.668  -9.218  0.00  0.00    +0.056 N 
ATOM     17  O   UNL     1      -2.315   0.800 -10.373  0.00  0.00    -0.126 OA
ATOM     18  O   UNL     1      -2.668   1.129  -8.335  0.00  0.00    -0.126 OA
ENDBRANCH  14  16
ENDBRANCH   6  10
BRANCH   1  20
ATOM     19  C   UNL     1      -0.019   1.526   0.010  0.00  0.00    +0.062 C 
ATOM     20  C   UNL     1       0.002  -0.004   0.002  0.00  0.00    +0.259 C 
BRANCH  20  21
ATOM     21  O   UNL     1       0.693  -0.477   1.160  0.00  0.00    -0.452 OA
BRANCH  21  22
ATOM     22  C   UNL     1      -0.042  -0.697   2.261  0.00  0.00    +0.315 C 
ATOM     23  O   UNL     1      -1.233  -0.493   2.243  0.00  0.00    -0.250 OA
BRANCH  22  24
ATOM     24  C   UNL     1       0.618  -1.196   3.521  0.00  0.00    +0.139 C 
ATOM     25  C   UNL     1      -0.434  -1.377   4.618  0.00  0.00    +0.057 C 
ATOM     26  C   UNL     1       0.161  -2.147   5.769  0.00  0.00    -0.005 A 
ATOM     27  C   UNL     1      -0.473  -2.100   7.000  0.00  0.00    +0.007 A 
ATOM     28  C   UNL     1       0.042  -2.796   8.076  0.00  0.00    +0.000 A 
ATOM     29  C   UNL     1       1.195  -3.545   7.927  0.00  0.00    +0.004 A 
ATOM     30  C   UNL     1       1.831  -3.594   6.704  0.00  0.00    +0.046 A 
ATOM     31  C   UNL     1       1.317  -2.892   5.618  0.00  0.00    +0.124 A 
ATOM     32  O   UNL     1       1.977  -2.956   4.433  0.00  0.00    -0.491 OA
ATOM     33  C   UNL     1       1.276  -2.556   3.255  0.00  0.00    +0.244 C 
ENDBRANCH  22  24
ENDBRANCH  21  22
ENDBRANCH  20  21
ENDBRANCH   1  20
TORSDOF 6
