REMARK  Name = ZINC59888133
REMARK  13 active torsions:
REMARK  status: ('A' for Active; 'I' for Inactive)
REMARK    1  A    between atoms: C_1  and  C_2
REMARK    2  A    between atoms: C_3  and  C_11
REMARK    3  A    between atoms: C_4  and  C_10
REMARK    4  A    between atoms: N_5  and  C_7
REMARK    5  A    between atoms: C_7  and  C_8
REMARK    6  A    between atoms: C_8  and  O_9
REMARK    7  A    between atoms: N_12  and  N_13
REMARK    8  A    between atoms: C_16  and  S_19
REMARK    9  A    between atoms: S_19  and  C_20
REMARK   10  A    between atoms: C_20  and  C_21
REMARK   11  A    between atoms: C_21  and  C_22
REMARK   12  A    between atoms: N_24  and  C_25
REMARK   13  A    between atoms: C_28  and  N_31
REMARK                            x       y       z     vdW  Elec       q    Type
REMARK                         _______ _______ _______ _____ _____    ______ ____
ROOT
ATOM      1  N   UNL     1      -0.042   1.333  -4.149  0.00  0.00    -0.205 N 
ATOM      2  C   UNL     1      -0.059   2.685  -4.436  0.00  0.00    +0.232 A 
ATOM      3  N   UNL     1      -0.069   3.663  -3.555  0.00  0.00    -0.186 NA
ATOM      4  C   UNL     1      -0.084   4.840  -4.190  0.00  0.00    +0.210 A 
ATOM      5  N   UNL     1      -0.084   4.626  -5.485  0.00  0.00    -0.144 NA
ATOM      6  N   UNL     1      -0.063   3.235  -5.670  0.00  0.00    -0.245 N 
ATOM      7  H   UNL     1      -0.032   0.684  -4.870  0.00  0.00    +0.177 HD
ATOM      8  H   UNL     1      -0.055   2.761  -6.516  0.00  0.00    +0.192 HD
ENDROOT
BRANCH   1  10
ATOM      9  C   UNL     1      -0.024  -0.369  -2.548  0.00  0.00    +0.141 C 
ATOM     10  N   UNL     1      -0.040   0.899  -2.817  0.00  0.00    -0.187 NA
BRANCH   9  13
ATOM     11  C   UNL     1      -0.057   1.503   0.011  0.00  0.00    +0.068 C 
ATOM     12  C   UNL     1      -0.036  -0.004   0.003  0.00  0.00    +0.069 A 
ATOM     13  C   UNL     1      -0.022  -0.826  -1.144  0.00  0.00    +0.038 A 
ATOM     14  C   UNL     1      -0.005  -2.134  -0.710  0.00  0.00    +0.045 A 
ATOM     15  N   UNL     1      -0.010  -2.111   0.638  0.00  0.00    -0.266 N 
ATOM     16  N   UNL     1      -0.023  -0.776   1.056  0.00  0.00    -0.176 NA
ATOM     17  C   UNL     1       0.014  -3.363  -1.582  0.00  0.00    +0.066 C 
BRANCH  15  18
ATOM     18  C   UNL     1       0.004  -3.285   1.515  0.00  0.00    +0.171 C 
BRANCH  18  19
ATOM     19  C   UNL     1       1.451  -3.674   1.825  0.00  0.00    +0.179 C 
BRANCH  19  20
ATOM     20  O   UNL     1       1.464  -4.818   2.680  0.00  0.00    -0.393 OA
ATOM     21  H   UNL     1       2.351  -5.121   2.918  0.00  0.00    +0.209 HD
ENDBRANCH  19  20
ENDBRANCH  18  19
ENDBRANCH  15  18
ENDBRANCH   9  13
ENDBRANCH   1  10
BRANCH   4  22
ATOM     22  S   UNL     1      -0.101   6.422  -3.414  0.00  0.00    -0.084 S 
BRANCH  22  23
ATOM     23  C   UNL     1      -0.117   7.591  -4.801  0.00  0.00    +0.086 C 
BRANCH  23  24
ATOM     24  C   UNL     1      -0.134   9.023  -4.261  0.00  0.00    +0.107 C 
BRANCH  24  25
ATOM     25  C   UNL     1      -0.147   9.994  -5.413  0.00  0.00    +0.218 C 
ATOM     26  O   UNL     1      -0.144   9.582  -6.554  0.00  0.00    -0.275 OA
ATOM     27  N   UNL     1      -0.162  11.320  -5.176  0.00  0.00    -0.285 N 
ATOM     28  H   UNL     1      -0.233  11.650  -4.266  0.00  0.00    +0.155 HD
BRANCH  27  29
ATOM     29  C   UNL     1      -0.077  12.223  -6.242  0.00  0.00    +0.034 A 
ATOM     30  C   UNL     1       0.612  13.419  -6.088  0.00  0.00    +0.025 A 
ATOM     31  C   UNL     1       0.694  14.308  -7.142  0.00  0.00    +0.034 A 
ATOM     32  C   UNL     1       0.092  14.007  -8.350  0.00  0.00    +0.126 A 
ATOM     33  C   UNL     1      -0.595  12.817  -8.507  0.00  0.00    +0.034 A 
ATOM     34  C   UNL     1      -0.675  11.921  -7.458  0.00  0.00    +0.025 A 
BRANCH  32  35
ATOM     35  N   UNL     1       0.182  14.962  -9.478  0.00  0.00    +0.056 N 
ATOM     36  O   UNL     1       0.782  16.003  -9.342  0.00  0.00    -0.126 OA
ATOM     37  O   UNL     1      -0.344  14.700 -10.534  0.00  0.00    -0.126 OA
ENDBRANCH  32  35
ENDBRANCH  27  29
ENDBRANCH  24  25
ENDBRANCH  23  24
ENDBRANCH  22  23
ENDBRANCH   4  22
TORSDOF 11
