REMARK  Name = ZINC16050946
REMARK  10 active torsions:
REMARK  status: ('A' for Active; 'I' for Inactive)
REMARK    1  A    between atoms: C_1  and  C_2
REMARK    2  A    between atoms: C_4  and  C_18
REMARK    3  A    between atoms: C_5  and  C_17
REMARK    4  A    between atoms: N_6  and  C_7
REMARK    5  A    between atoms: C_10  and  O_13
REMARK    6  A    between atoms: O_13  and  C_14
REMARK    7  A    between atoms: C_18  and  C_20
REMARK    8  A    between atoms: C_20  and  O_21
REMARK    9  A    between atoms: O_21  and  C_22
REMARK   10  A    between atoms: C_22  and  C_24
REMARK                            x       y       z     vdW  Elec       q    Type
REMARK                         _______ _______ _______ _____ _____    ______ ____
ROOT
ATOM      1  C   UNL     1       1.396   1.969   0.041  0.00  0.00    +0.202 C 
ATOM      2  O   UNL     1       2.329   1.193   0.044  0.00  0.00    -0.288 OA
ENDROOT
BRANCH   1   6
ATOM      3  C   UNL     1       0.701   7.017   0.061  0.00  0.00    +0.064 C 
ATOM      4  C   UNL     1       1.318   5.642   0.059  0.00  0.00    +0.022 A 
ATOM      5  C   UNL     1       0.638   4.483   0.048  0.00  0.00    +0.034 A 
ATOM      6  C   UNL     1       1.644   3.412   0.050  0.00  0.00    +0.042 A 
ATOM      7  C   UNL     1       2.873   4.046   0.067  0.00  0.00    +0.032 A 
ATOM      8  N   UNL     1       2.659   5.376   0.067  0.00  0.00    -0.317 N 
ATOM      9  C   UNL     1       4.218   3.367   0.080  0.00  0.00    +0.064 C 
BRANCH   8  10
ATOM     10  C   UNL     1       3.668   6.349   0.079  0.00  0.00    +0.047 A 
ATOM     11  C   UNL     1       4.532   6.468  -1.002  0.00  0.00    +0.030 A 
ATOM     12  C   UNL     1       5.522   7.430  -0.992  0.00  0.00    +0.048 A 
ATOM     13  C   UNL     1       5.661   8.271   0.102  0.00  0.00    +0.127 A 
ATOM     14  C   UNL     1       4.802   8.149   1.185  0.00  0.00    +0.048 A 
ATOM     15  C   UNL     1       3.808   7.191   1.174  0.00  0.00    +0.030 A 
BRANCH  13  16
ATOM     16  O   UNL     1       6.640   9.215   0.114  0.00  0.00    -0.434 OA
BRANCH  16  17
ATOM     17  C   UNL     1       7.488   9.284  -1.034  0.00  0.00    +0.541 C 
ATOM     18  F   UNL     1       8.147   8.061  -1.202  0.00  0.00    -0.166 F 
ATOM     19  F   UNL     1       6.716   9.557  -2.169  0.00  0.00    -0.166 F 
ENDBRANCH  16  17
ENDBRANCH  13  16
ENDBRANCH   8  10
ENDBRANCH   1   6
BRANCH   1  20
ATOM     20  C   UNL     1      -0.018   1.448   0.028  0.00  0.00    +0.311 C 
BRANCH  20  21
ATOM     21  O   UNL     1       0.002  -0.004   0.021  0.00  0.00    -0.453 OA
BRANCH  21  22
ATOM     22  C   UNL     1      -1.189  -0.632   0.010  0.00  0.00    +0.340 C 
ATOM     23  O   UNL     1      -2.216   0.016   0.006  0.00  0.00    -0.245 OA
BRANCH  22  24
ATOM     24  C   UNL     1      -1.247  -2.113   0.003  0.00  0.00    +0.073 A 
ATOM     25  C   UNL     1      -2.441  -2.766   0.113  0.00  0.00    +0.085 A 
ATOM     26  C   UNL     1      -2.466  -4.227   0.098  0.00  0.00    +0.250 A 
ATOM     27  O   UNL     1      -3.531  -4.810   0.192  0.00  0.00    -0.268 OA
ATOM     28  N   UNL     1      -1.330  -4.937  -0.013  0.00  0.00    -0.322 N 
ATOM     29  H   UNL     1      -1.367  -6.037  -0.018  0.00  0.00    +0.169 HD
ATOM     30  C   UNL     1      -0.104  -4.316  -0.121  0.00  0.00    +0.050 A 
ATOM     31  C   UNL     1      -0.018  -2.913  -0.117  0.00  0.00    +0.012 A 
ATOM     32  C   UNL     1       1.230  -2.292  -0.227  0.00  0.00    +0.011 A 
ATOM     33  C   UNL     1       2.360  -3.051  -0.337  0.00  0.00    +0.001 A 
ATOM     34  C   UNL     1       2.280  -4.437  -0.341  0.00  0.00    +0.002 A 
ATOM     35  C   UNL     1       1.061  -5.071  -0.234  0.00  0.00    +0.026 A 
ENDBRANCH  22  24
ENDBRANCH  21  22
ENDBRANCH  20  21
ENDBRANCH   1  20
TORSDOF 8
