REMARK  Name = ZINC39664089
REMARK  12 active torsions:
REMARK  status: ('A' for Active; 'I' for Inactive)
REMARK    1  A    between atoms: C_1  and  C_2
REMARK    2  A    between atoms: C_2  and  C_3
REMARK    3  A    between atoms: C_3  and  C_4
REMARK    4  A    between atoms: C_3  and  C_6
REMARK    5  A    between atoms: C_4  and  C_5
REMARK    6  A    between atoms: C_10  and  C_19
REMARK    7  A    between atoms: N_21  and  C_22
REMARK    8  A    between atoms: C_22  and  C_23
REMARK    9  A    between atoms: C_23  and  C_25
REMARK   10  A    between atoms: C_23  and  N_33
REMARK   11  A    between atoms: C_28  and  O_31
REMARK   12  A    between atoms: O_31  and  C_32
REMARK                            x       y       z     vdW  Elec       q    Type
REMARK                         _______ _______ _______ _____ _____    ______ ____
ROOT
ATOM      1  C   UNL     1       3.792  -2.657  -2.343  0.00  0.00    +0.218 C 
ATOM      2  O   UNL     1       3.427  -2.113  -1.323  0.00  0.00    -0.275 OA
ATOM      3  N   UNL     1       5.105  -2.874  -2.559  0.00  0.00    -0.316 N 
ATOM      4  H   UNL     1       5.396  -3.309  -3.375  0.00  0.00    +0.149 HD
ENDROOT
BRANCH   1   9
ATOM      5  C   UNL     1      -0.240  -2.118  -1.621  0.00  0.00    +0.219 C 
ATOM      6  O   UNL     1      -1.072  -2.758  -1.015  0.00  0.00    -0.275 OA
ATOM      7  N   UNL     1       0.573  -2.732  -2.502  0.00  0.00    -0.300 N 
ATOM      8  C   UNL     1       1.583  -2.112  -3.393  0.00  0.00    +0.121 C 
ATOM      9  C   UNL     1       2.778  -3.091  -3.370  0.00  0.00    +0.100 C 
ATOM     10  C   UNL     1       2.166  -4.448  -2.982  0.00  0.00    -0.004 C 
ATOM     11  C   UNL     1       0.665  -4.183  -2.795  0.00  0.00    +0.115 C 
ATOM     12  C   UNL     1       2.774  -4.947  -1.675  0.00  0.00    -0.010 C 
ATOM     13  C   UNL     1       2.193  -6.324  -1.340  0.00  0.00    -0.082 C 
ATOM     14  N   UNL     1       2.489  -7.261  -2.430  0.00  0.00    +0.379 N 
ATOM     15  C   UNL     1       1.823  -6.822  -3.663  0.00  0.00    -0.082 C 
ATOM     16  C   UNL     1       2.389  -5.466  -4.096  0.00  0.00    -0.010 C 
ATOM     17  H   UNL     1       3.486  -7.294  -2.582  0.00  0.00    -0.086 HD
ATOM     18  H   UNL     1       2.158  -8.181  -2.180  0.00  0.00    -0.086 HD
BRANCH   5  19
ATOM     19  C   UNL     1      -0.116  -0.634  -1.389  0.00  0.00    +0.075 C 
BRANCH  19  21
ATOM     20  C   UNL     1      -0.900   1.616  -2.141  0.00  0.00    +0.004 C 
ATOM     21  C   UNL     1      -1.111   0.108  -2.284  0.00  0.00    +0.009 C 
ENDBRANCH  19  21
BRANCH  19  22
ATOM     22  C   UNL     1      -0.417  -0.320   0.078  0.00  0.00    +0.009 C 
ATOM     23  C   UNL     1       0.665  -0.941   0.964  0.00  0.00    +0.004 C 
ENDBRANCH  19  22
ENDBRANCH   5  19
ENDBRANCH   1   9
BRANCH   3  24
ATOM     24  C   UNL     1       6.091  -2.453  -1.561  0.00  0.00    +0.093 C 
BRANCH  24  25
ATOM     25  C   UNL     1       7.501  -2.695  -2.103  0.00  0.00    -0.020 C 
BRANCH  25  26
ATOM     26  C   UNL     1       7.738  -1.811  -3.300  0.00  0.00    -0.059 A 
ATOM     27  C   UNL     1       8.078  -0.483  -3.121  0.00  0.00    +0.005 A 
ATOM     28  C   UNL     1       8.295   0.329  -4.217  0.00  0.00    +0.046 A 
ATOM     29  C   UNL     1       8.173  -0.189  -5.498  0.00  0.00    +0.120 A 
ATOM     30  C   UNL     1       7.832  -1.522  -5.675  0.00  0.00    +0.046 A 
ATOM     31  C   UNL     1       7.620  -2.331  -4.576  0.00  0.00    +0.005 A 
BRANCH  29  32
ATOM     32  O   UNL     1       8.386   0.609  -6.577  0.00  0.00    -0.495 OA
ATOM     33  C   UNL     1       8.242   0.008  -7.866  0.00  0.00    +0.277 C 
ENDBRANCH  29  32
ENDBRANCH  25  26
BRANCH  25  34
ATOM     34  N   UNL     1       8.487  -2.382  -1.060  0.00  0.00    +0.385 N 
ATOM     35  C   UNL     1       8.368  -3.347   0.063  0.00  0.00    -0.078 C 
ATOM     36  C   UNL     1       9.753  -3.260   0.753  0.00  0.00    -0.020 C 
ATOM     37  C   UNL     1      10.723  -3.095  -0.439  0.00  0.00    -0.020 C 
ATOM     38  C   UNL     1       9.858  -2.546  -1.589  0.00  0.00    -0.078 C 
ATOM     39  H   UNL     1       8.353  -1.439  -0.726  0.00  0.00    -0.081 HD
ENDBRANCH  25  34
ENDBRANCH  24  25
ENDBRANCH   3  24
TORSDOF 9
