REMARK  Name = ZINC13215762
REMARK  9 active torsions:
REMARK  status: ('A' for Active; 'I' for Inactive)
REMARK    1  A    between atoms: C_1  and  C_2
REMARK    2  A    between atoms: C_5  and  C_35
REMARK    3  A    between atoms: C_7  and  N_8
REMARK    4  A    between atoms: C_9  and  C_26
REMARK    5  A    between atoms: C_11  and  C_16
REMARK    6  A    between atoms: C_16  and  C_18
REMARK    7  A    between atoms: C_23  and  O_24
REMARK    8  A    between atoms: O_24  and  C_25
REMARK    9  A    between atoms: C_29  and  N_32
REMARK                            x       y       z     vdW  Elec       q    Type
REMARK                         _______ _______ _______ _____ _____    ______ ____
ROOT
ATOM      1  N   UNL     1      -0.594  -0.452   2.384  0.00  0.00    -0.253 N 
ATOM      2  C   UNL     1      -1.443  -0.030   3.505  0.00  0.00    +0.150 C 
ATOM      3  C   UNL     1      -0.568   0.819   4.397  0.00  0.00    +0.077 C 
ATOM      4  C   UNL     1       0.655   0.862   3.820  0.00  0.00    +0.250 C 
ATOM      5  C   UNL     1       0.632   0.067   2.575  0.00  0.00    +0.292 C 
ATOM      6  O   UNL     1       1.580  -0.093   1.832  0.00  0.00    -0.266 OA
ATOM      7  O   UNL     1       1.730   1.523   4.308  0.00  0.00    -0.282 OA
ENDROOT
BRANCH   1  14
ATOM      8  C   UNL     1      -1.638   0.825   0.070  0.00  0.00    +0.045 C 
ATOM      9  C   UNL     1      -1.505  -0.674   0.159  0.00  0.00    -0.029 A 
ATOM     10  C   UNL     1      -1.892  -1.464  -0.908  0.00  0.00    +0.006 A 
ATOM     11  C   UNL     1      -1.774  -2.837  -0.835  0.00  0.00    +0.015 A 
ATOM     12  C   UNL     1      -1.262  -3.433   0.321  0.00  0.00    +0.065 A 
ATOM     13  C   UNL     1      -0.871  -2.635   1.397  0.00  0.00    +0.039 A 
ATOM     14  C   UNL     1      -0.989  -1.256   1.311  0.00  0.00    +0.041 A 
BRANCH  12  15
ATOM     15  C   UNL     1      -1.135  -4.901   0.403  0.00  0.00    +0.387 C 
ATOM     16  O   UNL     1      -1.478  -5.598  -0.542  0.00  0.00    -0.241 OA
ATOM     17  O   UNL     1      -0.686  -5.420   1.415  0.00  0.00    -0.241 OA
ENDBRANCH  12  15
ENDBRANCH   1  14
BRANCH   2  18
ATOM     18  C   UNL     1      -1.941  -1.235   4.260  0.00  0.00    -0.022 A 
ATOM     19  C   UNL     1      -1.064  -2.245   4.607  0.00  0.00    +0.008 A 
ATOM     20  C   UNL     1      -1.521  -3.350   5.300  0.00  0.00    +0.033 A 
ATOM     21  C   UNL     1      -2.856  -3.445   5.646  0.00  0.00    +0.126 A 
ATOM     22  C   UNL     1      -3.734  -2.435   5.300  0.00  0.00    +0.033 A 
ATOM     23  C   UNL     1      -3.275  -1.327   4.611  0.00  0.00    +0.008 A 
BRANCH  21  24
ATOM     24  N   UNL     1      -3.346  -4.629   6.387  0.00  0.00    +0.056 N 
ATOM     25  O   UNL     1      -2.579  -5.513   6.689  0.00  0.00    -0.126 OA
ATOM     26  O   UNL     1      -4.514  -4.712   6.689  0.00  0.00    -0.126 OA
ENDBRANCH  21  24
ENDBRANCH   2  18
BRANCH   3  27
ATOM     27  C   UNL     1      -0.968   1.472   5.648  0.00  0.00    +0.199 C 
ATOM     28  O   UNL     1      -0.449   1.144   6.699  0.00  0.00    -0.287 OA
BRANCH  27  29
ATOM     29  C   UNL     1      -2.000   2.527   5.633  0.00  0.00    +0.064 A 
ATOM     30  C   UNL     1      -2.519   2.985   4.419  0.00  0.00    +0.015 A 
ATOM     31  C   UNL     1      -3.483   3.969   4.412  0.00  0.00    +0.001 A 
ATOM     32  C   UNL     1      -3.941   4.508   5.603  0.00  0.00    +0.004 A 
ATOM     33  C   UNL     1      -3.437   4.065   6.810  0.00  0.00    +0.046 A 
ATOM     34  C   UNL     1      -2.470   3.071   6.837  0.00  0.00    +0.131 A 
BRANCH  34  35
ATOM     35  O   UNL     1      -1.979   2.630   8.022  0.00  0.00    -0.494 OA
ATOM     36  C   UNL     1      -2.505   3.231   9.206  0.00  0.00    +0.277 C 
ENDBRANCH  34  35
ENDBRANCH  27  29
ENDBRANCH   3  27
TORSDOF 7
