REMARK  Name = ZINC00633917
REMARK  9 active torsions:
REMARK  status: ('A' for Active; 'I' for Inactive)
REMARK    1  A    between atoms: C_1  and  C_2
REMARK    2  A    between atoms: C_2  and  O_3
REMARK    3  A    between atoms: O_3  and  C_4
REMARK    4  A    between atoms: C_4  and  C_6
REMARK    5  A    between atoms: C_10  and  N_11
REMARK    6  A    between atoms: C_12  and  C_14
REMARK    7  A    between atoms: C_14  and  C_15
REMARK    8  A    between atoms: C_22  and  C_28
REMARK    9  A    between atoms: C_23  and  C_27
REMARK                            x       y       z     vdW  Elec       q    Type
REMARK                         _______ _______ _______ _____ _____    ______ ____
ROOT
ATOM      1  N   UNL     1       0.002  -0.004   0.002  0.00  0.00    -0.279 N 
ATOM      2  C   UNL     1      -0.016   1.344   0.009  0.00  0.00    +0.220 C 
ATOM      3  O   UNL     1       1.026   1.964   0.003  0.00  0.00    -0.275 OA
ATOM      4  H   UNL     1      -0.831  -0.500   0.007  0.00  0.00    +0.155 HD
ENDROOT
BRANCH   1   9
ATOM      5  C   UNL     1       1.434  -2.051  -0.023  0.00  0.00    +0.091 A 
ATOM      6  C   UNL     1       2.813  -2.508  -0.038  0.00  0.00    -0.021 A 
ATOM      7  C   UNL     1       3.743  -1.528  -0.042  0.00  0.00    -0.004 A 
ATOM      8  S   UNL     1       2.814  -0.021  -0.033  0.00  0.00    -0.077 S 
ATOM      9  C   UNL     1       1.212  -0.681  -0.013  0.00  0.00    +0.086 A 
ATOM     10  C   UNL     1       5.231  -1.696  -0.055  0.00  0.00    +0.043 C 
ATOM     11  C   UNL     1       5.558  -3.150   0.312  0.00  0.00    +0.005 C 
ATOM     12  C   UNL     1       4.672  -4.081  -0.521  0.00  0.00    +0.005 C 
ATOM     13  C   UNL     1       3.220  -3.976  -0.051  0.00  0.00    +0.037 C 
BRANCH   5  14
ATOM     14  C   UNL     1       0.319  -3.002  -0.018  0.00  0.00    +0.342 C 
ATOM     15  O   UNL     1      -0.153  -3.390  -1.069  0.00  0.00    -0.245 OA
BRANCH  14  16
ATOM     16  O   UNL     1      -0.183  -3.446   1.153  0.00  0.00    -0.461 OA
BRANCH  16  18
ATOM     17  C   UNL     1      -1.719  -4.774   2.498  0.00  0.00    +0.048 C 
ATOM     18  C   UNL     1      -1.287  -4.386   1.082  0.00  0.00    +0.229 C 
ENDBRANCH  16  18
ENDBRANCH  14  16
ENDBRANCH   5  14
ENDBRANCH   1   9
BRANCH   2  19
ATOM     19  C   UNL     1      -1.331   2.079   0.020  0.00  0.00    +0.127 C 
BRANCH  19  20
ATOM     20  C   UNL     1      -1.072   3.587   0.027  0.00  0.00    +0.166 C 
ATOM     21  C   UNL     1      -2.383   4.325  -0.082  0.00  0.00    +0.238 C 
ATOM     22  O   UNL     1      -2.814   4.624  -1.176  0.00  0.00    -0.273 OA
ATOM     23  N   UNL     1      -3.079   4.655   1.021  0.00  0.00    -0.282 N 
ATOM     24  C   UNL     1      -2.546   4.444   2.297  0.00  0.00    +0.055 A 
ATOM     25  C   UNL     1      -3.332   4.604   3.427  0.00  0.00    +0.028 A 
ATOM     26  C   UNL     1      -2.790   4.386   4.681  0.00  0.00    -0.046 A 
ATOM     27  C   UNL     1      -1.464   4.015   4.814  0.00  0.00    -0.046 A 
ATOM     28  C   UNL     1      -0.668   3.865   3.692  0.00  0.00    +0.028 A 
ATOM     29  C   UNL     1      -1.204   4.085   2.435  0.00  0.00    +0.049 A 
ATOM     30  N   UNL     1      -0.410   3.967   1.283  0.00  0.00    -0.331 N 
ATOM     31  C   UNL     1      -0.886   3.773   6.184  0.00  0.00    +0.044 C 
ATOM     32  C   UNL     1      -3.648   4.554   5.908  0.00  0.00    +0.044 C 
ATOM     33  H   UNL     1      -3.962   5.046   0.930  0.00  0.00    +0.155 HD
ATOM     34  H   UNL     1       0.545   4.131   1.314  0.00  0.00    +0.147 HD
ENDBRANCH  19  20
ENDBRANCH   2  19
TORSDOF 6
