REMARK  Name = ZINC02685946
REMARK  4 active torsions:
REMARK  status: ('A' for Active; 'I' for Inactive)
REMARK    1  A    between atoms: C_1  and  C_2
REMARK    2  A    between atoms: C_3  and  C_11
REMARK    3  A    between atoms: C_7  and  N_8
REMARK    4  A    between atoms: C_24  and  C_26
REMARK                            x       y       z     vdW  Elec       q    Type
REMARK                         _______ _______ _______ _____ _____    ______ ____
ROOT
ATOM      1  C   UNL     1       2.266   5.301  -1.522  0.00  0.00    +0.248 C 
ATOM      2  O   UNL     1       2.790   4.226  -1.738  0.00  0.00    -0.270 OA
ATOM      3  N   UNL     1       1.401   5.436  -0.498  0.00  0.00    -0.278 N 
ATOM      4  C   UNL     1       0.887   6.762  -0.202  0.00  0.00    +0.205 C 
ATOM      5  C   UNL     1      -0.563   6.844  -0.558  0.00  0.00    +0.235 C 
ATOM      6  O   UNL     1      -0.961   7.909  -0.981  0.00  0.00    -0.274 OA
ATOM      7  N   UNL     1      -1.440   5.888  -0.460  0.00  0.00    -0.284 N 
ATOM      8  C   UNL     1      -1.420   4.514  -0.375  0.00  0.00    +0.039 A 
ATOM      9  C   UNL     1      -2.647   3.884  -0.644  0.00  0.00    +0.026 A 
ATOM     10  C   UNL     1      -2.776   2.517  -0.602  0.00  0.00    +0.040 A 
ATOM     11  C   UNL     1      -1.679   1.735  -0.279  0.00  0.00    +0.124 A 
ATOM     12  C   UNL     1      -0.470   2.344  -0.015  0.00  0.00    +0.046 A 
ATOM     13  C   UNL     1      -0.331   3.729  -0.060  0.00  0.00    +0.001 A 
ATOM     14  C   UNL     1       1.036   4.259   0.245  0.00  0.00    +0.139 C 
ATOM     15  F   UNL     1      -1.791   0.390  -0.229  0.00  0.00    -0.205 F 
ATOM     16  H   UNL     1      -2.346   6.234  -0.441  0.00  0.00    +0.155 HD
ENDROOT
BRANCH   1  19
ATOM     17  C   UNL     1       5.020   6.101  -1.908  0.00  0.00    +0.047 C 
ATOM     18  C   UNL     1       3.902   6.856  -2.578  0.00  0.00    -0.008 A 
ATOM     19  C   UNL     1       2.577   6.461  -2.385  0.00  0.00    +0.042 A 
ATOM     20  C   UNL     1       1.546   7.170  -3.005  0.00  0.00    +0.013 A 
ATOM     21  C   UNL     1       1.843   8.251  -3.808  0.00  0.00    +0.003 A 
ATOM     22  C   UNL     1       3.159   8.634  -4.000  0.00  0.00    +0.033 A 
ATOM     23  C   UNL     1       4.185   7.936  -3.388  0.00  0.00    +0.130 A 
BRANCH  23  24
ATOM     24  N   UNL     1       5.590   8.353  -3.598  0.00  0.00    +0.057 N 
ATOM     25  O   UNL     1       5.847   9.261  -4.367  0.00  0.00    -0.126 OA
ATOM     26  O   UNL     1       6.489   7.787  -3.002  0.00  0.00    -0.126 OA
ENDBRANCH  23  24
ENDBRANCH   1  19
BRANCH  14  27
ATOM     27  C   UNL     1       1.105   4.582   1.715  0.00  0.00    -0.022 A 
ATOM     28  C   UNL     1       0.191   5.455   2.275  0.00  0.00    +0.008 A 
ATOM     29  C   UNL     1       0.250   5.747   3.624  0.00  0.00    +0.038 A 
ATOM     30  C   UNL     1       1.232   5.173   4.414  0.00  0.00    +0.123 A 
ATOM     31  C   UNL     1       2.150   4.303   3.851  0.00  0.00    +0.038 A 
ATOM     32  C   UNL     1       2.086   4.008   2.503  0.00  0.00    +0.008 A 
ATOM     33  F   UNL     1       1.295   5.463   5.732  0.00  0.00    -0.205 F 
ENDBRANCH  14  27
TORSDOF 3
