REMARK  Name = ZINC38902314
REMARK  14 active torsions:
REMARK  status: ('A' for Active; 'I' for Inactive)
REMARK    1  A    between atoms: C_1  and  C_2
REMARK    2  A    between atoms: C_5  and  C_8
REMARK    3  A    between atoms: C_8  and  S_9
REMARK    4  A    between atoms: S_9  and  C_10
REMARK    5  A    between atoms: C_10  and  C_11
REMARK    6  A    between atoms: C_11  and  N_12
REMARK    7  A    between atoms: C_13  and  C_15
REMARK    8  A    between atoms: N_20  and  C_22
REMARK    9  A    between atoms: C_22  and  C_23
REMARK   10  A    between atoms: C_25  and  C_28
REMARK   11  A    between atoms: C_31  and  C_34
REMARK   12  A    between atoms: C_34  and  C_35
REMARK   13  A    between atoms: C_34  and  C_36
REMARK   14  A    between atoms: C_34  and  C_37
REMARK                            x       y       z     vdW  Elec       q    Type
REMARK                         _______ _______ _______ _____ _____    ______ ____
ROOT
ATOM      1  C   UNL     1       3.886 -11.023  -0.079  0.00  0.00    +0.058 C 
ATOM      2  C   UNL     1       3.133 -11.479   1.174  0.00  0.00    +0.009 C 
ATOM      3  C   UNL     1       3.081 -13.010   1.196  0.00  0.00    -0.018 C 
ATOM      4  C   UNL     1       4.506 -13.564   1.141  0.00  0.00    -0.078 C 
ATOM      5  N   UNL     1       5.163 -13.114  -0.092  0.00  0.00    +0.386 N 
ATOM      6  C   UNL     1       5.281 -11.651  -0.088  0.00  0.00    -0.065 C 
ATOM      7  H   UNL     1       4.615 -13.403  -0.889  0.00  0.00    -0.081 HD
ENDROOT
BRANCH   1   9
ATOM      8  N   UNL     1       2.902  -8.753  -0.062  0.00  0.00    -0.314 N 
ATOM      9  C   UNL     1       4.010  -9.521  -0.072  0.00  0.00    +0.214 C 
ATOM     10  O   UNL     1       5.107  -9.003  -0.075  0.00  0.00    -0.276 OA
ATOM     11  H   UNL     1       2.025  -9.167  -0.059  0.00  0.00    +0.149 HD
BRANCH   8  12
ATOM     12  C   UNL     1       3.023  -7.293  -0.054  0.00  0.00    +0.115 C 
BRANCH  12  13
ATOM     13  C   UNL     1       1.628  -6.666  -0.043  0.00  0.00    +0.088 C 
BRANCH  13  14
ATOM     14  S   UNL     1       1.777  -4.858  -0.034  0.00  0.00    -0.155 S 
BRANCH  14  15
ATOM     15  C   UNL     1       0.059  -4.275  -0.021  0.00  0.00    +0.104 C 
BRANCH  15  20
ATOM     16  C   UNL     1      -0.018   1.503   0.010  0.00  0.00    +0.044 C 
ATOM     17  C   UNL     1       0.002  -0.004   0.002  0.00  0.00    -0.050 A 
ATOM     18  C   UNL     1       0.006  -0.689  -1.199  0.00  0.00    +0.003 A 
ATOM     19  C   UNL     1       0.025  -2.071  -1.206  0.00  0.00    +0.005 A 
ATOM     20  C   UNL     1       0.040  -2.768  -0.013  0.00  0.00    -0.038 A 
ATOM     21  C   UNL     1       0.037  -2.084   1.188  0.00  0.00    +0.005 A 
ATOM     22  C   UNL     1       0.023  -0.702   1.195  0.00  0.00    +0.003 A 
ENDBRANCH  15  20
ENDBRANCH  14  15
ENDBRANCH  13  14
ENDBRANCH  12  13
ENDBRANCH   8  12
ENDBRANCH   1   9
BRANCH   5  23
ATOM     23  C   UNL     1       6.502 -13.711  -0.178  0.00  0.00    +0.022 C 
BRANCH  23  24
ATOM     24  C   UNL     1       6.377 -15.207  -0.316  0.00  0.00    +0.211 A 
ATOM     25  N   UNL     1       6.295 -15.864  -1.438  0.00  0.00    -0.193 NA
ATOM     26  C   UNL     1       6.194 -17.182  -1.193  0.00  0.00    +0.202 A 
ATOM     27  N   UNL     1       6.212 -17.370   0.103  0.00  0.00    -0.056 NA
ATOM     28  O   UNL     1       6.336 -16.085   0.694  0.00  0.00    -0.340 OA
BRANCH  26  29
ATOM     29  C   UNL     1       6.081 -18.247  -2.221  0.00  0.00    +0.022 A 
ATOM     30  C   UNL     1       6.079 -17.916  -3.574  0.00  0.00    +0.012 A 
ATOM     31  C   UNL     1       5.974 -18.910  -4.526  0.00  0.00    +0.005 A 
ATOM     32  C   UNL     1       5.870 -20.233  -4.138  0.00  0.00    -0.042 A 
ATOM     33  C   UNL     1       5.872 -20.568  -2.796  0.00  0.00    +0.005 A 
ATOM     34  C   UNL     1       5.983 -19.583  -1.836  0.00  0.00    +0.012 A 
BRANCH  32  35
ATOM     35  C   UNL     1       5.754 -21.315  -5.181  0.00  0.00    -0.013 C 
ATOM     36  C   UNL     1       6.990 -21.288  -6.083  0.00  0.00    +0.015 C 
ATOM     37  C   UNL     1       5.654 -22.678  -4.494  0.00  0.00    +0.015 C 
ATOM     38  C   UNL     1       4.501 -21.076  -6.026  0.00  0.00    +0.015 C 
ENDBRANCH  32  35
ENDBRANCH  26  29
ENDBRANCH  23  24
ENDBRANCH   5  23
TORSDOF 10
