REMARK  Name = ZINC12629053
REMARK  9 active torsions:
REMARK  status: ('A' for Active; 'I' for Inactive)
REMARK    1  A    between atoms: C_1  and  C_2
REMARK    2  A    between atoms: C_2  and  C_4
REMARK    3  A    between atoms: C_2  and  N_56
REMARK    4  A    between atoms: C_7  and  N_10
REMARK    5  A    between atoms: C_15  and  C_17
REMARK    6  A    between atoms: C_15  and  C_23
REMARK    7  A    between atoms: C_15  and  N_56
REMARK    8  A    between atoms: N_25  and  C_26
REMARK    9  A    between atoms: C_31  and  C_32
REMARK                            x       y       z     vdW  Elec       q    Type
REMARK                         _______ _______ _______ _____ _____    ______ ____
ROOT
ATOM      1  C   UNL     1      -5.533  -5.156  -1.353  0.00  0.00    +0.048 C 
ENDROOT
BRANCH   1   2
ATOM      2  C   UNL     1      -6.058  -6.155  -0.355  0.00  0.00    -0.053 A 
ATOM      3  C   UNL     1      -5.187  -7.021   0.280  0.00  0.00    +0.002 A 
ATOM      4  C   UNL     1      -5.667  -7.935   1.199  0.00  0.00    +0.000 A 
ATOM      5  C   UNL     1      -7.020  -7.989   1.476  0.00  0.00    +0.000 A 
ATOM      6  C   UNL     1      -7.892  -7.127   0.838  0.00  0.00    +0.000 A 
ATOM      7  C   UNL     1      -7.411  -6.211  -0.078  0.00  0.00    +0.002 A 
ENDBRANCH   1   2
BRANCH   1   8
ATOM      8  C   UNL     1      -5.301  -5.841  -2.676  0.00  0.00    +0.207 C 
ATOM      9  O   UNL     1      -4.190  -5.859  -3.162  0.00  0.00    -0.277 OA
ATOM     10  N   UNL     1      -6.327  -6.434  -3.317  0.00  0.00    -0.286 N 
ATOM     11  H   UNL     1      -7.201  -6.476  -2.898  0.00  0.00    +0.155 HD
BRANCH  10  12
ATOM     12  C   UNL     1      -6.133  -6.988  -4.588  0.00  0.00    +0.045 A 
ATOM     13  C   UNL     1      -4.921  -7.586  -4.907  0.00  0.00    +0.025 A 
ATOM     14  C   UNL     1      -4.731  -8.132  -6.161  0.00  0.00    +0.022 A 
ATOM     15  C   UNL     1      -5.748  -8.083  -7.100  0.00  0.00    +0.042 A 
ATOM     16  C   UNL     1      -6.956  -7.487  -6.784  0.00  0.00    +0.034 A 
ATOM     17  C   UNL     1      -7.153  -6.945  -5.529  0.00  0.00    +0.077 A 
ATOM     18 CL   UNL     1      -5.506  -8.769  -8.676  0.00  0.00    -0.084 Cl
BRANCH  17  19
ATOM     19  C   UNL     1      -8.471  -6.302  -5.183  0.00  0.00    +0.419 C 
ATOM     20  F   UNL     1      -9.331  -6.381  -6.284  0.00  0.00    -0.166 F 
ATOM     21  F   UNL     1      -9.044  -6.968  -4.095  0.00  0.00    -0.166 F 
ATOM     22  F   UNL     1      -8.262  -4.959  -4.851  0.00  0.00    -0.166 F 
ENDBRANCH  17  19
ENDBRANCH  10  12
ENDBRANCH   1   8
BRANCH   1  23
ATOM     23  N   UNL     1      -4.258  -4.598  -0.867  0.00  0.00    +0.394 N 
ATOM     24  H   UNL     1      -3.738  -5.327  -0.365  0.00  0.00    -0.083 HD
ATOM     25  H   UNL     1      -3.703  -4.272  -1.668  0.00  0.00    -0.083 HD
BRANCH  23  27
ATOM     26  C   UNL     1      -4.746  -3.992   1.461  0.00  0.00    -0.009 C 
ATOM     27  C   UNL     1      -4.509  -3.465   0.044  0.00  0.00    -0.043 C 
BRANCH  27  28
ATOM     28  C   UNL     1      -3.309  -2.553   0.042  0.00  0.00    -0.061 A 
ATOM     29  C   UNL     1      -3.485  -1.181   0.062  0.00  0.00    +0.004 A 
ATOM     30  C   UNL     1      -2.387  -0.343   0.061  0.00  0.00    +0.026 A 
ATOM     31  C   UNL     1      -1.107  -0.878   0.038  0.00  0.00    +0.047 A 
ATOM     32  C   UNL     1      -0.933  -2.255   0.013  0.00  0.00    +0.026 A 
ATOM     33  C   UNL     1      -2.035  -3.089   0.020  0.00  0.00    +0.004 A 
BRANCH  31  34
ATOM     34  N   UNL     1       0.010  -0.029   0.036  0.00  0.00    -0.306 N 
ATOM     35  C   UNL     1       1.326  -0.414   0.016  0.00  0.00    +0.112 A 
ATOM     36  C   UNL     1       2.061   0.714   0.022  0.00  0.00    +0.130 A 
ATOM     37  N   UNL     1       1.223   1.761   0.045  0.00  0.00    -0.244 NA
ATOM     38  C   UNL     1      -0.009   1.329   0.054  0.00  0.00    +0.204 A 
ENDBRANCH  31  34
ENDBRANCH  27  28
ENDBRANCH  23  27
ENDBRANCH   1  23
TORSDOF 8
