REMARK  Name = ZINC12465973
REMARK  11 active torsions:
REMARK  status: ('A' for Active; 'I' for Inactive)
REMARK    1  A    between atoms: C_1  and  N_2
REMARK    2  A    between atoms: C_12  and  C_13
REMARK    3  A    between atoms: C_13  and  C_14
REMARK    4  A    between atoms: C_18  and  S_20
REMARK    5  A    between atoms: S_20  and  N_23
REMARK    6  A    between atoms: N_23  and  C_24
REMARK    7  A    between atoms: N_23  and  C_25
REMARK    8  A    between atoms: N_31  and  C_32
REMARK    9  A    between atoms: C_32  and  C_33
REMARK   10  A    between atoms: C_33  and  O_34
REMARK   11  A    between atoms: O_34  and  C_35
REMARK                            x       y       z     vdW  Elec       q    Type
REMARK                         _______ _______ _______ _____ _____    ______ ____
ROOT
ATOM      1  C   UNL     1      -0.819   1.502   0.693  0.00  0.00    +0.138 C 
ATOM      2  N   UNL     1      -0.601   0.068   0.487  0.00  0.00    -0.272 N 
ATOM      3  C   UNL     1      -1.607  -0.895   0.585  0.00  0.00    +0.042 A 
ATOM      4  C   UNL     1      -2.963  -0.769   0.878  0.00  0.00    +0.024 A 
ATOM      5  C   UNL     1      -3.772  -1.886   0.916  0.00  0.00    +0.002 A 
ATOM      6  C   UNL     1      -3.244  -3.139   0.665  0.00  0.00    +0.000 A 
ATOM      7  C   UNL     1      -1.898  -3.273   0.374  0.00  0.00    +0.008 A 
ATOM      8  C   UNL     1      -1.088  -2.161   0.335  0.00  0.00    +0.011 A 
ATOM      9  C   UNL     1       0.379  -1.961   0.060  0.00  0.00    +0.174 C 
ATOM     10  C   UNL     1       0.592  -0.473   0.177  0.00  0.00    +0.253 C 
ATOM     11  O   UNL     1       1.637   0.122   0.022  0.00  0.00    -0.272 OA
ATOM     12  C   UNL     1       1.227  -2.714   1.049  0.00  0.00    +0.089 C 
ATOM     13  C   UNL     1       2.007  -3.554   0.325  0.00  0.00    +0.250 C 
ATOM     14  O   UNL     1       2.918  -4.414   0.835  0.00  0.00    -0.282 OA
ATOM     15  C   UNL     1       1.702  -3.381  -1.112  0.00  0.00    +0.288 C 
ATOM     16  O   UNL     1       2.234  -3.992  -2.017  0.00  0.00    -0.266 OA
ATOM     17  N   UNL     1       0.745  -2.444  -1.269  0.00  0.00    -0.271 N 
ENDROOT
BRANCH  12  18
ATOM     18  C   UNL     1       1.213  -2.568   2.508  0.00  0.00    +0.196 C 
ATOM     19  O   UNL     1       0.310  -3.060   3.159  0.00  0.00    -0.287 OA
BRANCH  18  20
ATOM     20  C   UNL     1       2.295  -1.824   3.187  0.00  0.00    +0.024 A 
ATOM     21  C   UNL     1       3.385  -1.348   2.455  0.00  0.00    +0.012 A 
ATOM     22  C   UNL     1       4.391  -0.654   3.095  0.00  0.00    +0.003 A 
ATOM     23  C   UNL     1       4.321  -0.429   4.459  0.00  0.00    +0.028 A 
ATOM     24  C   UNL     1       3.244  -0.898   5.190  0.00  0.00    +0.106 A 
ATOM     25  C   UNL     1       2.228  -1.589   4.562  0.00  0.00    +0.040 A 
BRANCH  24  26
ATOM     26  S   UNL     1       3.166  -0.607   6.926  0.00  0.00    +0.060 S 
ATOM     27  O   UNL     1       2.329  -1.618   7.470  0.00  0.00    -0.153 OA
ATOM     28  O   UNL     1       4.502  -0.407   7.365  0.00  0.00    -0.153 OA
BRANCH  26  29
ATOM     29  N   UNL     1       2.375   0.831   7.146  0.00  0.00    -0.183 NA
ATOM     30  C   UNL     1       0.918   0.850   7.297  0.00  0.00    +0.131 C 
ATOM     31  C   UNL     1       3.133   2.084   7.190  0.00  0.00    +0.131 C 
ENDBRANCH  26  29
ENDBRANCH  24  26
ENDBRANCH  18  20
ENDBRANCH  12  18
BRANCH  17  32
ATOM     32  C   UNL     1       0.175  -1.993  -2.541  0.00  0.00    +0.138 C 
BRANCH  32  33
ATOM     33  C   UNL     1       0.992  -0.815  -3.076  0.00  0.00    +0.178 C 
BRANCH  33  34
ATOM     34  O   UNL     1       2.315  -1.255  -3.389  0.00  0.00    -0.381 OA
ATOM     35  C   UNL     1       3.164  -0.226  -3.899  0.00  0.00    +0.194 C 
ENDBRANCH  33  34
ENDBRANCH  32  33
ENDBRANCH  17  32
TORSDOF 7
