REMARK  Name = ZINC37379564
REMARK  7 active torsions:
REMARK  status: ('A' for Active; 'I' for Inactive)
REMARK    1  A    between atoms: C_1  and  C_2
REMARK    2  A    between atoms: C_6  and  C_22
REMARK    3  A    between atoms: C_8  and  N_9
REMARK    4  A    between atoms: N_13  and  C_16
REMARK    5  A    between atoms: C_16  and  C_17
REMARK    6  A    between atoms: C_22  and  C_23
REMARK    7  A    between atoms: N_29  and  C_31
REMARK                            x       y       z     vdW  Elec       q    Type
REMARK                         _______ _______ _______ _____ _____    ______ ____
ROOT
ATOM      1  C   UNL     1       0.421   1.498  -0.060  0.00  0.00    +0.068 C 
ATOM      2  C   UNL     1       0.365  -0.008  -0.056  0.00  0.00    +0.073 A 
ATOM      3  C   UNL     1       0.078  -0.826  -1.171  0.00  0.00    +0.082 A 
ATOM      4  C   UNL     1       0.130  -2.162  -0.727  0.00  0.00    +0.169 A 
ATOM      5  N   UNL     1      -0.108  -3.138  -1.600  0.00  0.00    -0.212 NA
ATOM      6  C   UNL     1      -0.386  -2.863  -2.856  0.00  0.00    +0.138 A 
ATOM      7  N   UNL     1      -0.445  -1.627  -3.318  0.00  0.00    -0.216 NA
ATOM      8  C   UNL     1      -0.223  -0.584  -2.525  0.00  0.00    +0.136 A 
ATOM      9  N   UNL     1       0.436  -2.118   0.603  0.00  0.00    -0.214 N 
ATOM     10  N   UNL     1       0.577  -0.775   0.976  0.00  0.00    -0.169 NA
ENDROOT
BRANCH   8  11
ATOM     11  N   UNL     1      -0.287   0.705  -3.016  0.00  0.00    -0.316 N 
ATOM     12  C   UNL     1       0.953   1.346  -3.498  0.00  0.00    +0.104 C 
ATOM     13  C   UNL     1       0.701   2.135  -4.796  0.00  0.00    +0.000 C 
ATOM     14  C   UNL     1      -0.243   1.355  -5.684  0.00  0.00    -0.077 C 
ATOM     15  N   UNL     1      -1.614   1.794  -5.433  0.00  0.00    +0.384 N 
ATOM     16  C   UNL     1      -2.277   1.111  -4.389  0.00  0.00    -0.059 C 
ATOM     17  C   UNL     1      -1.569   1.378  -3.046  0.00  0.00    +0.088 C 
ATOM     18  H   UNL     1      -1.598   2.778  -5.211  0.00  0.00    -0.081 HD
BRANCH  15  19
ATOM     19  C   UNL     1      -2.390   1.617  -6.668  0.00  0.00    -0.036 C 
BRANCH  19  20
ATOM     20  C   UNL     1      -3.776   2.175  -6.475  0.00  0.00    -0.027 A 
ATOM     21  C   UNL     1      -4.232   3.430  -6.713  0.00  0.00    +0.009 A 
ATOM     22  C   UNL     1      -5.560   3.720  -6.460  0.00  0.00    +0.008 A 
ATOM     23  C   UNL     1      -6.367   2.742  -5.980  0.00  0.00    +0.045 A 
ATOM     24  S   UNL     1      -5.247   1.355  -5.880  0.00  0.00    -0.103 S 
ENDBRANCH  19  20
ENDBRANCH  15  19
ENDBRANCH   8  11
BRANCH   9  25
ATOM     25  C   UNL     1       0.588  -3.225   1.449  0.00  0.00    +0.068 A 
ATOM     26  C   UNL     1      -0.200  -4.354   1.264  0.00  0.00    +0.030 A 
ATOM     27  C   UNL     1      -0.048  -5.444   2.098  0.00  0.00    +0.040 A 
ATOM     28  C   UNL     1       0.888  -5.413   3.117  0.00  0.00    +0.124 A 
ATOM     29  C   UNL     1       1.675  -4.288   3.303  0.00  0.00    +0.040 A 
ATOM     30  C   UNL     1       1.530  -3.198   2.468  0.00  0.00    +0.030 A 
ATOM     31  F   UNL     1       1.035  -6.481   3.932  0.00  0.00    -0.205 F 
ENDBRANCH   9  25
BRANCH   6  32
ATOM     32  C   UNL     1      -0.647  -4.003  -3.806  0.00  0.00    +0.111 C 
BRANCH  32  33
ATOM     33  C   UNL     1      -2.118  -4.331  -3.805  0.00  0.00    -0.040 A 
ATOM     34  C   UNL     1      -2.619  -5.258  -2.910  0.00  0.00    +0.004 A 
ATOM     35  C   UNL     1      -3.968  -5.559  -2.909  0.00  0.00    +0.000 A 
ATOM     36  C   UNL     1      -4.817  -4.932  -3.802  0.00  0.00    +0.000 A 
ATOM     37  C   UNL     1      -4.316  -4.003  -4.696  0.00  0.00    +0.000 A 
ATOM     38  C   UNL     1      -2.968  -3.700  -4.694  0.00  0.00    +0.004 A 
ENDBRANCH  32  33
ENDBRANCH   6  32
TORSDOF 6
