REMARK  Name = ZINC20922238
REMARK  2 active torsions:
REMARK  status: ('A' for Active; 'I' for Inactive)
REMARK    1  A    between atoms: C_6  and  S_7
REMARK    2  A    between atoms: S_7  and  C_10
REMARK                            x       y       z     vdW  Elec       q    Type
REMARK                         _______ _______ _______ _____ _____    ______ ____
ROOT
ATOM      1  C   UNL     1       4.693   1.346  -0.036  0.00  0.00    +0.249 A 
ATOM      2  C   UNL     1       3.564   2.150  -0.021  0.00  0.00    +0.204 A 
ATOM      3  N   UNL     1       3.405   3.485  -0.012  0.00  0.00    -0.209 NA
ATOM      4  C   UNL     1       2.193   4.014   0.002  0.00  0.00    +0.135 A 
ATOM      5  C   UNL     1       1.070   3.181   0.008  0.00  0.00    +0.077 A 
ATOM      6  C   UNL     1       1.188   1.788   0.000  0.00  0.00    +0.087 A 
ATOM      7  N   UNL     1       2.497   1.298  -0.014  0.00  0.00    -0.192 N 
ATOM      8  N   UNL     1       3.018  -0.000  -0.025  0.00  0.00    -0.057 NA
ATOM      9  N   UNL     1       4.304   0.077  -0.036  0.00  0.00    -0.108 NA
ATOM     10  C   UNL     1      -0.013   1.076   0.008  0.00  0.00    +0.036 A 
ATOM     11  C   UNL     1      -1.194   1.734   0.017  0.00  0.00    +0.048 A 
ATOM     12  S   UNL     1      -0.684   3.445   0.026  0.00  0.00    -0.092 S 
ATOM     13  N   UNL     1       2.037   5.389   0.010  0.00  0.00    -0.342 N 
ATOM     14  H   UNL     1       1.029   5.828   0.022  0.00  0.00    +0.144 HD
ATOM     15  H   UNL     1       2.922   6.043   0.004  0.00  0.00    +0.144 HD
ENDROOT
BRANCH   1  16
ATOM     16  S   UNL     1       6.361   1.912  -0.049  0.00  0.00    +0.047 S 
ATOM     17  O   UNL     1       7.141   0.867  -0.614  0.00  0.00    -0.163 OA
ATOM     18  O   UNL     1       6.340   3.225  -0.593  0.00  0.00    -0.163 OA
BRANCH  16  24
ATOM     19  C   UNL     1       6.692   3.268   2.296  0.00  0.00    +0.028 A 
ATOM     20  C   UNL     1       7.087   3.392   3.615  0.00  0.00    +0.017 A 
ATOM     21  C   UNL     1       7.672   2.319   4.265  0.00  0.00    +0.018 A 
ATOM     22  C   UNL     1       7.856   1.123   3.595  0.00  0.00    +0.017 A 
ATOM     23  C   UNL     1       7.456   0.999   2.279  0.00  0.00    +0.028 A 
ATOM     24  C   UNL     1       6.871   2.071   1.630  0.00  0.00    +0.096 A 
ATOM     25 BR   UNL     1       8.219   2.489   6.067  0.00  0.00    -0.050 Br
ENDBRANCH  16  24
ENDBRANCH   1  16
TORSDOF 2
