REMARK  Name = ZINC39466063
REMARK  9 active torsions:
REMARK  status: ('A' for Active; 'I' for Inactive)
REMARK    1  A    between atoms: C_1  and  C_2
REMARK    2  A    between atoms: C_7  and  C_8
REMARK    3  A    between atoms: C_8  and  C_9
REMARK    4  A    between atoms: C_9  and  N_10
REMARK    5  A    between atoms: C_13  and  C_16
REMARK    6  A    between atoms: C_16  and  N_17
REMARK    7  A    between atoms: N_17  and  C_18
REMARK    8  A    between atoms: C_23  and  C_25
REMARK    9  A    between atoms: C_27  and  C_34
REMARK                            x       y       z     vdW  Elec       q    Type
REMARK                         _______ _______ _______ _____ _____    ______ ____
ROOT
ATOM      1  N   UNL     1      -3.656   4.338   7.356  0.00  0.00    -0.297 N 
ATOM      2  C   UNL     1      -3.973   5.644   7.253  0.00  0.00    +0.232 C 
ATOM      3  O   UNL     1      -4.959   6.075   7.813  0.00  0.00    -0.274 OA
ENDROOT
BRANCH   2   4
ATOM      4  C   UNL     1      -3.102   6.569   6.443  0.00  0.00    +0.187 C 
ATOM      5  C   UNL     1      -2.079   7.190   7.346  0.00  0.00    -0.050 C 
ATOM      6  C   UNL     1      -1.762   8.473   7.277  0.00  0.00    +0.023 C 
ATOM      7  C   UNL     1      -2.434   9.341   6.289  0.00  0.00    +0.026 C 
ATOM      8  N   UNL     1      -3.623   8.892   5.700  0.00  0.00    -0.285 N 
ATOM      9  C   UNL     1      -3.968   7.598   5.782  0.00  0.00    +0.233 C 
ATOM     10  O   UNL     1      -5.024   7.247   5.300  0.00  0.00    -0.274 OA
ATOM     11  C   UNL     1      -1.920  10.530   5.965  0.00  0.00    +0.033 C 
ATOM     12  C   UNL     1      -1.388   6.323   8.367  0.00  0.00    +0.040 C 
ATOM     13  H   UNL     1      -4.199   9.518   5.233  0.00  0.00    +0.155 HD
ENDBRANCH   2   4
BRANCH   1  14
ATOM     14  C   UNL     1      -4.565   3.416   8.041  0.00  0.00    +0.076 C 
ATOM     15  C   UNL     1      -5.975   3.506   7.422  0.00  0.00    +0.022 C 
ATOM     16  C   UNL     1      -6.931   3.352   8.631  0.00  0.00    +0.002 C 
ATOM     17  C   UNL     1      -6.199   4.137   9.748  0.00  0.00    +0.002 C 
ATOM     18  C   UNL     1      -4.707   3.817   9.520  0.00  0.00    +0.022 C 
ENDBRANCH   1  14
BRANCH   1  19
ATOM     19  C   UNL     1      -2.403   3.841   6.783  0.00  0.00    +0.111 C 
BRANCH  19  23
ATOM     20  N   UNL     1      -2.458   1.331   3.322  0.00  0.00    +0.380 N 
ATOM     21  C   UNL     1      -1.565   2.495   3.275  0.00  0.00    -0.078 C 
ATOM     22  C   UNL     1      -1.309   3.004   4.696  0.00  0.00    -0.014 C 
ATOM     23  C   UNL     1      -2.641   3.406   5.335  0.00  0.00    +0.003 C 
ATOM     24  C   UNL     1      -3.591   2.205   5.311  0.00  0.00    -0.014 C 
ATOM     25  C   UNL     1      -3.762   1.726   3.868  0.00  0.00    -0.078 C 
ATOM     26  H   UNL     1      -2.050   0.620   3.910  0.00  0.00    -0.082 HD
BRANCH  20  27
ATOM     27  C   UNL     1      -2.638   0.799   1.965  0.00  0.00    -0.074 C 
BRANCH  27  28
ATOM     28  C   UNL     1      -1.300   0.273   1.442  0.00  0.00    +0.017 C 
BRANCH  28  35
ATOM     29  C   UNL     1      -1.175   2.049  -0.834  0.00  0.00    +0.044 C 
ATOM     30  C   UNL     1      -1.425   0.577  -1.040  0.00  0.00    -0.047 A 
ATOM     31  C   UNL     1      -1.589   0.075  -2.317  0.00  0.00    +0.003 A 
ATOM     32  C   UNL     1      -1.818  -1.275  -2.506  0.00  0.00    +0.000 A 
ATOM     33  C   UNL     1      -1.883  -2.124  -1.416  0.00  0.00    +0.000 A 
ATOM     34  C   UNL     1      -1.718  -1.623  -0.139  0.00  0.00    +0.004 A 
ATOM     35  C   UNL     1      -1.485  -0.273   0.049  0.00  0.00    -0.046 A 
ENDBRANCH  28  35
ENDBRANCH  27  28
ENDBRANCH  20  27
ENDBRANCH  19  23
ENDBRANCH   1  19
TORSDOF 7
