REMARK  Name = ZINC29870070
REMARK  6 active torsions:
REMARK  status: ('A' for Active; 'I' for Inactive)
REMARK    1  A    between atoms: C_8  and  C_19
REMARK    2  A    between atoms: C_12  and  C_14
REMARK    3  A    between atoms: N_21  and  C_22
REMARK    4  A    between atoms: C_22  and  C_23
REMARK    5  A    between atoms: C_23  and  C_25
REMARK    6  A    between atoms: C_23  and  N_30
REMARK                            x       y       z     vdW  Elec       q    Type
REMARK                         _______ _______ _______ _____ _____    ______ ____
ROOT
ATOM      1  C   UNL     1       0.196  -3.148  -1.828  0.00  0.00    +0.234 C 
ATOM      2  O   UNL     1       0.631  -3.578  -0.780  0.00  0.00    -0.274 OA
ATOM      3  N   UNL     1      -0.980  -2.490  -1.850  0.00  0.00    -0.315 N 
ATOM      4  H   UNL     1      -1.374  -2.100  -2.800  0.00  0.00    +0.149 HD
ENDROOT
BRANCH   1  12
ATOM      5  C   UNL     1       0.969  -2.843  -7.959  0.00  0.00    +0.000 A 
ATOM      6  C   UNL     1       1.767  -3.966  -8.072  0.00  0.00    +0.000 A 
ATOM      7  C   UNL     1       2.068  -4.707  -6.949  0.00  0.00    +0.005 A 
ATOM      8  C   UNL     1       1.576  -4.334  -5.705  0.00  0.00    -0.027 A 
ATOM      9  C   UNL     1       0.773  -3.222  -5.592  0.00  0.00    -0.040 A 
ATOM     10  C   UNL     1       0.475  -2.474  -6.725  0.00  0.00    +0.004 A 
ATOM     11  C   UNL     1       0.189  -2.765  -4.281  0.00  0.00    +0.067 C 
ATOM     12  C   UNL     1       0.971  -3.349  -3.105  0.00  0.00    +0.167 C 
ATOM     13  N   UNL     1       1.156  -4.789  -3.353  0.00  0.00    -0.279 N 
ATOM     14  C   UNL     1       1.965  -5.173  -4.514  0.00  0.00    +0.144 C 
ATOM     15  C   UNL     1       0.603  -5.716  -2.546  0.00  0.00    +0.283 C 
ATOM     16  O   UNL     1      -0.037  -5.370  -1.570  0.00  0.00    -0.267 OA
BRANCH  15  17
ATOM     17  C   UNL     1       0.773  -7.142  -2.843  0.00  0.00    +0.189 A 
ATOM     18  C   UNL     1       0.168  -8.176  -2.188  0.00  0.00    +0.054 A 
ATOM     19  C   UNL     1       0.613  -9.358  -2.801  0.00  0.00    +0.042 A 
ATOM     20  C   UNL     1       1.465  -8.998  -3.786  0.00  0.00    +0.196 A 
ATOM     21  O   UNL     1       1.559  -7.662  -3.808  0.00  0.00    -0.458 OA
ENDBRANCH  15  17
ENDBRANCH   1  12
BRANCH   3  22
ATOM     22  C   UNL     1      -1.733  -2.293  -0.608  0.00  0.00    +0.096 C 
BRANCH  22  23
ATOM     23  C   UNL     1      -3.020  -1.523  -0.909  0.00  0.00    +0.016 C 
BRANCH  23  24
ATOM     24  N   UNL     1      -2.691  -0.269  -1.599  0.00  0.00    +0.387 N 
ATOM     25  C   UNL     1      -3.906   0.492  -1.916  0.00  0.00    -0.078 C 
ATOM     26  C   UNL     1      -3.538   1.716  -2.758  0.00  0.00    -0.019 C 
ATOM     27  C   UNL     1      -2.555   2.591  -1.976  0.00  0.00    -0.004 C 
ATOM     28  C   UNL     1      -1.319   1.761  -1.616  0.00  0.00    -0.019 C 
ATOM     29  C   UNL     1      -1.752   0.536  -0.806  0.00  0.00    -0.078 C 
ATOM     30  H   UNL     1      -2.196  -0.523  -2.548  0.00  0.00    -0.081 HD
ENDBRANCH  23  24
BRANCH  23  31
ATOM     31  C   UNL     1      -3.734  -1.214   0.382  0.00  0.00    +0.093 A 
ATOM     32  C   UNL     1      -4.867  -1.798   0.814  0.00  0.00    +0.043 A 
ATOM     33  C   UNL     1      -5.179  -1.212   2.062  0.00  0.00    +0.041 A 
ATOM     34  C   UNL     1      -4.223  -0.300   2.315  0.00  0.00    +0.195 A 
ATOM     35  O   UNL     1      -3.350  -0.306   1.294  0.00  0.00    -0.469 OA
ENDBRANCH  23  31
ENDBRANCH  22  23
ENDBRANCH   3  22
TORSDOF 6
