REMARK  Name = ZINC17189800
REMARK  10 active torsions:
REMARK  status: ('A' for Active; 'I' for Inactive)
REMARK    1  A    between atoms: C_1  and  C_2
REMARK    2  A    between atoms: C_2  and  C_3
REMARK    3  A    between atoms: C_2  and  C_4
REMARK    4  A    between atoms: C_7  and  O_10
REMARK    5  A    between atoms: O_10  and  C_11
REMARK    6  A    between atoms: C_11  and  C_12
REMARK    7  A    between atoms: C_15  and  S_18
REMARK    8  A    between atoms: N_16  and  N_17
REMARK    9  A    between atoms: S_18  and  C_19
REMARK   10  A    between atoms: C_19  and  C_20
REMARK                            x       y       z     vdW  Elec       q    Type
REMARK                         _______ _______ _______ _____ _____    ______ ____
ROOT
ATOM      1  C   UNL     1      -7.113  -3.201  -0.875  0.00  0.00    +0.189 A 
ATOM      2  N   UNL     1      -7.528  -4.269  -0.256  0.00  0.00    -0.128 NA
ATOM      3  N   UNL     1      -8.812  -4.326  -0.286  0.00  0.00    -0.121 NA
ATOM      4  C   UNL     1      -9.289  -3.287  -0.932  0.00  0.00    +0.209 A 
ATOM      5  N   UNL     1      -8.219  -2.534  -1.324  0.00  0.00    -0.225 N 
ENDROOT
BRANCH   5   6
ATOM      6  N   UNL     1      -8.248  -1.361  -2.022  0.00  0.00    -0.295 N 
ATOM      7  H   UNL     1      -8.217  -1.530  -3.016  0.00  0.00    +0.163 HD
ATOM      8  H   UNL     1      -9.058  -0.812  -1.774  0.00  0.00    +0.163 HD
ENDBRANCH   5   6
BRANCH   1   9
ATOM      9  C   UNL     1      -5.679  -2.776  -1.058  0.00  0.00    +0.306 C 
BRANCH   9  10
ATOM     10  O   UNL     1      -5.282  -1.955   0.043  0.00  0.00    -0.484 OA
BRANCH  10  14
ATOM     11  C   UNL     1      -1.412  -0.526   0.013  0.00  0.00    -0.045 A 
ATOM     12  C   UNL     1      -2.258  -0.203   1.057  0.00  0.00    +0.007 A 
ATOM     13  C   UNL     1      -3.555  -0.681   1.070  0.00  0.00    +0.046 A 
ATOM     14  C   UNL     1      -4.007  -1.484   0.033  0.00  0.00    +0.121 A 
ATOM     15  C   UNL     1      -3.156  -1.805  -1.015  0.00  0.00    +0.046 A 
ATOM     16  C   UNL     1      -1.862  -1.321  -1.025  0.00  0.00    +0.007 A 
BRANCH  11  18
ATOM     17  C   UNL     1      -0.019   1.526   0.010  0.00  0.00    +0.012 C 
ATOM     18  C   UNL     1       0.002  -0.004   0.002  0.00  0.00    +0.013 C 
ATOM     19  C   UNL     1       0.742  -0.511   1.242  0.00  0.00    +0.012 C 
ENDBRANCH  11  18
ENDBRANCH  10  14
ENDBRANCH   9  10
ENDBRANCH   1   9
BRANCH   4  20
ATOM     20  S   UNL     1     -10.988  -2.929  -1.232  0.00  0.00    -0.075 S 
BRANCH  20  21
ATOM     21  C   UNL     1     -11.871  -4.307  -0.449  0.00  0.00    +0.173 C 
BRANCH  21  22
ATOM     22  C   UNL     1     -13.355  -4.122  -0.634  0.00  0.00    +0.230 C 
ATOM     23  O   UNL     1     -13.776  -3.156  -1.235  0.00  0.00    -0.274 OA
ATOM     24  N   UNL     1     -14.215  -5.030  -0.132  0.00  0.00    -0.270 N 
ATOM     25  C   UNL     1     -15.674  -4.962  -0.253  0.00  0.00    +0.118 C 
ATOM     26  C   UNL     1     -16.198  -6.212   0.474  0.00  0.00    +0.056 C 
ATOM     27  C   UNL     1     -14.953  -6.915   0.967  0.00  0.00    -0.024 A 
ATOM     28  C   UNL     1     -13.846  -6.179   0.575  0.00  0.00    +0.040 A 
ATOM     29  C   UNL     1     -12.572  -6.638   0.914  0.00  0.00    +0.024 A 
ATOM     30  C   UNL     1     -12.422  -7.810   1.624  0.00  0.00    +0.002 A 
ATOM     31  C   UNL     1     -13.532  -8.539   2.007  0.00  0.00    +0.000 A 
ATOM     32  C   UNL     1     -14.798  -8.086   1.682  0.00  0.00    +0.005 A 
ENDBRANCH  21  22
ENDBRANCH  20  21
ENDBRANCH   4  20
TORSDOF 8
