REMARK  Name = ZINC05219230
REMARK  4 active torsions:
REMARK  status: ('A' for Active; 'I' for Inactive)
REMARK    1  A    between atoms: C_1  and  C_2
REMARK    2  A    between atoms: C_2  and  C_28
REMARK    3  A    between atoms: C_10  and  C_16
REMARK    4  A    between atoms: C_17  and  C_18
REMARK                            x       y       z     vdW  Elec       q    Type
REMARK                         _______ _______ _______ _____ _____    ______ ____
ROOT
ATOM      1  C   UNL     1       8.203   6.084   0.952  0.00  0.00    +0.020 C 
ATOM      2  C   UNL     1       7.131   5.031   1.241  0.00  0.00    +0.034 C 
ATOM      3  C   UNL     1       6.166   5.517   2.296  0.00  0.00    -0.017 A 
ATOM      4  C   UNL     1       6.290   5.539   3.669  0.00  0.00    +0.006 A 
ATOM      5  C   UNL     1       5.212   6.031   4.396  0.00  0.00    +0.000 A 
ATOM      6  C   UNL     1       4.067   6.479   3.769  0.00  0.00    +0.002 A 
ATOM      7  C   UNL     1       3.934   6.469   2.390  0.00  0.00    +0.023 A 
ATOM      8  C   UNL     1       5.010   5.987   1.644  0.00  0.00    +0.035 A 
ATOM      9  N   UNL     1       5.185   5.910   0.287  0.00  0.00    -0.304 N 
ATOM     10  C   UNL     1       6.198   4.844   0.027  0.00  0.00    +0.130 C 
ATOM     11  N   UNL     1       6.841   5.233  -1.235  0.00  0.00    -0.290 N 
ATOM     12  C   UNL     1       5.974   5.668  -2.199  0.00  0.00    +0.216 C 
ATOM     13  O   UNL     1       6.422   6.131  -3.227  0.00  0.00    -0.276 OA
ATOM     14  C   UNL     1       4.488   5.571  -2.029  0.00  0.00    +0.115 C 
ATOM     15  C   UNL     1       4.037   5.719  -0.576  0.00  0.00    +0.117 C 
ATOM     16  C   UNL     1       7.769   3.702   1.651  0.00  0.00    +0.020 C 
ATOM     17  H   UNL     1       7.802   5.205  -1.362  0.00  0.00    +0.151 HD
ENDROOT
BRANCH  10  18
ATOM     18  C   UNL     1       5.596   3.464  -0.034  0.00  0.00    +0.020 C 
ATOM     19  C   UNL     1       5.917   2.643  -1.026  0.00  0.00    +0.009 C 
BRANCH  19  20
ATOM     20  C   UNL     1       5.413   1.256  -1.028  0.00  0.00    -0.000 A 
ATOM     21  C   UNL     1       4.618   0.680  -0.091  0.00  0.00    +0.091 A 
ATOM     22  N   UNL     1       4.362  -0.615  -0.436  0.00  0.00    -0.360 N 
ATOM     23  H   UNL     1       3.817  -1.229   0.080  0.00  0.00    +0.165 HD
ATOM     24  C   UNL     1       4.991  -0.924  -1.623  0.00  0.00    +0.047 A 
ATOM     25  C   UNL     1       5.676   0.226  -2.049  0.00  0.00    +0.007 A 
ATOM     26  C   UNL     1       6.409   0.204  -3.234  0.00  0.00    +0.010 A 
ATOM     27  C   UNL     1       6.458  -0.951  -3.983  0.00  0.00    +0.001 A 
ATOM     28  C   UNL     1       5.782  -2.088  -3.564  0.00  0.00    +0.002 A 
ATOM     29  C   UNL     1       5.053  -2.080  -2.395  0.00  0.00    +0.026 A 
ENDBRANCH  19  20
ENDBRANCH  10  18
TORSDOF 2
