REMARK  Name = ZINC17134337
REMARK  6 active torsions:
REMARK  status: ('A' for Active; 'I' for Inactive)
REMARK    1  A    between atoms: C_3  and  C_6
REMARK    2  A    between atoms: C_11  and  C_14
REMARK    3  A    between atoms: C_14  and  O_16
REMARK    4  A    between atoms: O_16  and  C_17
REMARK    5  A    between atoms: C_17  and  C_18
REMARK    6  A    between atoms: N_23  and  C_24
REMARK                            x       y       z     vdW  Elec       q    Type
REMARK                         _______ _______ _______ _____ _____    ______ ____
ROOT
ATOM      1  C   UNL     1       3.854   1.746  -0.108  0.00  0.00    +0.258 C 
ATOM      2  O   UNL     1       2.947   2.432  -0.527  0.00  0.00    -0.272 OA
ATOM      3  N   UNL     1       4.901   1.454  -0.905  0.00  0.00    -0.237 N 
ATOM      4  C   UNL     1       4.940   1.924  -2.167  0.00  0.00    +0.306 C 
ATOM      5  O   UNL     1       4.030   2.612  -2.587  0.00  0.00    -0.252 OA
ATOM      6  N   UNL     1       5.987   1.632  -2.964  0.00  0.00    -0.294 N 
ATOM      7  H   UNL     1       5.627   0.904  -0.570  0.00  0.00    +0.159 HD
ATOM      8  H   UNL     1       6.713   1.083  -2.628  0.00  0.00    +0.151 HD
ENDROOT
BRANCH   6   9
ATOM      9  C   UNL     1       6.029   2.144  -4.336  0.00  0.00    +0.037 C 
ATOM     10  C   UNL     1       4.818   1.623  -5.112  0.00  0.00    +0.029 C 
ATOM     11  C   UNL     1       4.861   2.157  -6.545  0.00  0.00    -0.008 C 
ATOM     12  C   UNL     1       6.146   1.683  -7.227  0.00  0.00    +0.007 C 
ATOM     13  C   UNL     1       7.357   2.204  -6.451  0.00  0.00    -0.008 C 
ATOM     14  C   UNL     1       7.314   1.670  -5.018  0.00  0.00    +0.029 C 
ATOM     15  C   UNL     1       7.327   3.734  -6.426  0.00  0.00    +0.007 C 
ATOM     16  C   UNL     1       6.042   4.208  -5.744  0.00  0.00    -0.008 C 
ATOM     17  C   UNL     1       4.831   3.686  -6.520  0.00  0.00    +0.007 C 
ATOM     18  C   UNL     1       5.999   3.673  -4.311  0.00  0.00    +0.029 C 
ENDBRANCH   6   9
BRANCH   1  19
ATOM     19  C   UNL     1       3.811   1.219   1.303  0.00  0.00    +0.328 C 
BRANCH  19  20
ATOM     20  O   UNL     1       2.592   1.669   1.950  0.00  0.00    -0.455 OA
BRANCH  20  21
ATOM     21  C   UNL     1       2.399   1.284   3.222  0.00  0.00    +0.311 C 
ATOM     22  O   UNL     1       3.222   0.594   3.775  0.00  0.00    -0.251 OA
BRANCH  21  28
ATOM     23  C   UNL     1      -0.400   3.733   7.178  0.00  0.00    +0.253 C 
ATOM     24  O   UNL     1      -0.499   3.170   8.252  0.00  0.00    -0.269 OA
ATOM     25  N   UNL     1      -0.233   3.012   6.052  0.00  0.00    -0.297 N 
ATOM     26  C   UNL     1      -0.098   1.550   6.113  0.00  0.00    +0.109 C 
ATOM     27  C   UNL     1       1.183   1.141   5.378  0.00  0.00    +0.033 C 
ATOM     28  C   UNL     1       1.156   1.712   3.958  0.00  0.00    +0.101 C 
ATOM     29  C   UNL     1       1.101   3.240   4.021  0.00  0.00    +0.033 C 
ATOM     30  C   UNL     1      -0.181   3.672   4.740  0.00  0.00    +0.109 C 
BRANCH  23  33
ATOM     31  C   UNL     1      -0.164   7.457   7.688  0.00  0.00    +0.008 A 
ATOM     32  C   UNL     1       0.032   6.135   8.000  0.00  0.00    +0.021 A 
ATOM     33  C   UNL     1      -0.463   5.196   7.108  0.00  0.00    +0.074 A 
ATOM     34  S   UNL     1      -1.201   6.232   5.858  0.00  0.00    -0.092 S 
ATOM     35  C   UNL     1      -0.828   7.778   6.546  0.00  0.00    +0.046 A 
ENDBRANCH  23  33
ENDBRANCH  21  28
ENDBRANCH  20  21
ENDBRANCH  19  20
ENDBRANCH   1  19
TORSDOF 6
