REMARK  Name = ZINC62189180
REMARK  4 active torsions:
REMARK  status: ('A' for Active; 'I' for Inactive)
REMARK    1  A    between atoms: C_1  and  S_2
REMARK    2  A    between atoms: S_2  and  C_5
REMARK    3  A    between atoms: C_8  and  N_15
REMARK    4  A    between atoms: C_9  and  C_12
REMARK                            x       y       z     vdW  Elec       q    Type
REMARK                         _______ _______ _______ _____ _____    ______ ____
ROOT
ATOM      1  C   UNL     1       0.840  -0.466  -1.478  0.00  0.00    +0.159 A 
ATOM      2  C   UNL     1       0.131  -0.593  -2.665  0.00  0.00    +0.153 A 
ATOM      3  C   UNL     1       0.786  -0.905  -3.843  0.00  0.00    +0.064 A 
ATOM      4  C   UNL     1       2.160  -1.094  -3.847  0.00  0.00    +0.044 A 
ATOM      5  C   UNL     1       2.884  -0.966  -2.647  0.00  0.00    +0.121 A 
ATOM      6  C   UNL     1       2.207  -0.644  -1.462  0.00  0.00    +0.167 A 
ATOM      7  F   UNL     1       2.892  -0.513  -0.305  0.00  0.00    -0.202 F 
ATOM      8  F   UNL     1      -1.208  -0.411  -2.670  0.00  0.00    -0.203 F 
ENDROOT
BRANCH   1  10
ATOM      9  C   UNL     1      -0.011   1.744   0.081  0.00  0.00    +0.200 C 
ATOM     10  S   UNL     1      -0.011  -0.069   0.013  0.00  0.00    -0.000 S 
ATOM     11  O   UNL     1       0.806  -0.598   1.048  0.00  0.00    -0.169 OA
ATOM     12  O   UNL     1      -1.333  -0.551  -0.185  0.00  0.00    -0.169 OA
ENDBRANCH   1  10
BRANCH   5  13
ATOM     13  C   UNL     1       4.338  -1.163  -2.638  0.00  0.00    +0.391 C 
ATOM     14  O   UNL     1       5.086  -0.203  -2.763  0.00  0.00    -0.240 OA
ATOM     15  O   UNL     1       4.802  -2.287  -2.504  0.00  0.00    -0.240 OA
ENDBRANCH   5  13
BRANCH   4  16
ATOM     16  N   UNL     1       2.817  -1.407  -5.028  0.00  0.00    -0.357 N 
ATOM     17  H   UNL     1       2.308  -1.581  -5.835  0.00  0.00    +0.142 HD
ATOM     18  H   UNL     1       3.786  -1.454  -5.046  0.00  0.00    +0.142 HD
ENDBRANCH   4  16
TORSDOF 3
