REMARK  Name = ZINC56769856
REMARK  7 active torsions:
REMARK  status: ('A' for Active; 'I' for Inactive)
REMARK    1  A    between atoms: C_1  and  C_2
REMARK    2  A    between atoms: C_2  and  C_4
REMARK    3  A    between atoms: C_2  and  N_12
REMARK    4  A    between atoms: C_4  and  C_5
REMARK    5  A    between atoms: C_8  and  O_11
REMARK    6  A    between atoms: N_15  and  C_16
REMARK    7  A    between atoms: C_16  and  C_17
REMARK                            x       y       z     vdW  Elec       q    Type
REMARK                         _______ _______ _______ _____ _____    ______ ____
ROOT
ATOM      1  N   UNL     1       0.819   0.061  -1.373  0.00  0.00    -0.297 N 
ATOM      2  C   UNL     1       0.090  -0.305  -2.445  0.00  0.00    +0.300 C 
ATOM      3  O   UNL     1      -1.121  -0.202  -2.421  0.00  0.00    -0.253 OA
ATOM      4  N   UNL     1       0.704  -0.786  -3.545  0.00  0.00    -0.295 N 
ATOM      5  H   UNL     1       1.786  -0.021  -1.392  0.00  0.00    +0.151 HD
ATOM      6  H   UNL     1       1.670  -0.869  -3.564  0.00  0.00    +0.151 HD
ENDROOT
BRANCH   1   8
ATOM      7  C   UNL     1      -0.088   2.086  -0.344  0.00  0.00    +0.028 C 
ATOM      8  C   UNL     1       0.152   0.584  -0.178  0.00  0.00    +0.076 C 
BRANCH   8   9
ATOM      9  C   UNL     1       1.037   0.341   1.047  0.00  0.00    +0.057 C 
BRANCH   9  10
ATOM     10  C   UNL     1       1.173  -1.141   1.283  0.00  0.00    -0.045 A 
ATOM     11  C   UNL     1       0.263  -1.798   2.090  0.00  0.00    +0.007 A 
ATOM     12  C   UNL     1       0.386  -3.156   2.308  0.00  0.00    +0.045 A 
ATOM     13  C   UNL     1       1.424  -3.862   1.716  0.00  0.00    +0.117 A 
ATOM     14  C   UNL     1       2.335  -3.200   0.905  0.00  0.00    +0.045 A 
ATOM     15  C   UNL     1       2.205  -1.843   0.686  0.00  0.00    +0.007 A 
BRANCH  13  16
ATOM     16  O   UNL     1       1.547  -5.198   1.929  0.00  0.00    -0.507 OA
ATOM     17  H   UNL     1       1.073  -5.744   1.287  0.00  0.00    +0.292 HD
ENDBRANCH  13  16
ENDBRANCH   9  10
ENDBRANCH   8   9
ENDBRANCH   1   8
BRANCH   4  18
ATOM     18  C   UNL     1      -0.089  -1.185  -4.711  0.00  0.00    +0.142 C 
BRANCH  18  19
ATOM     19  C   UNL     1       0.830  -1.684  -5.796  0.00  0.00    -0.014 A 
ATOM     20  C   UNL     1       1.348  -0.802  -6.736  0.00  0.00    +0.010 A 
ATOM     21  C   UNL     1       2.188  -1.301  -7.716  0.00  0.00    +0.042 A 
ATOM     22  C   UNL     1       2.483  -2.661  -7.726  0.00  0.00    +0.099 A 
ATOM     23  N   UNL     1       1.969  -3.469  -6.812  0.00  0.00    -0.349 N 
ATOM     24  C   UNL     1       1.170  -3.020  -5.862  0.00  0.00    +0.089 A 
ATOM     25  N   UNL     1       3.325  -3.175  -8.705  0.00  0.00    -0.317 N 
ATOM     26  C   UNL     1       3.989  -2.256  -9.601  0.00  0.00    +0.106 C 
ATOM     27  C   UNL     1       3.094  -1.997 -10.838  0.00  0.00    +0.019 C 
ATOM     28  C   UNL     1       3.052  -3.191 -11.697  0.00  0.00    +0.002 C 
ATOM     29  C   UNL     1       2.436  -4.420 -11.035  0.00  0.00    +0.002 C 
ATOM     30  C   UNL     1       3.495  -5.144 -10.241  0.00  0.00    +0.019 C 
ATOM     31  C   UNL     1       3.508  -4.638  -8.783  0.00  0.00    +0.106 C 
ATOM     32  H   UNL     1       2.188  -4.413  -6.838  0.00  0.00    +0.167 HD
ENDBRANCH  18  19
ENDBRANCH   4  18
TORSDOF 6
