REMARK  Name = ZINC12774088
REMARK  11 active torsions:
REMARK  status: ('A' for Active; 'I' for Inactive)
REMARK    1  A    between atoms: C_1  and  N_62
REMARK    2  A    between atoms: C_2  and  N_62
REMARK    3  A    between atoms: C_3  and  C_5
REMARK    4  A    between atoms: C_3  and  C_25
REMARK    5  A    between atoms: C_3  and  N_62
REMARK    6  A    between atoms: C_5  and  N_6
REMARK    7  A    between atoms: C_7  and  C_9
REMARK    8  A    between atoms: N_12  and  S_15
REMARK    9  A    between atoms: S_15  and  C_18
REMARK   10  A    between atoms: C_30  and  O_31
REMARK   11  A    between atoms: O_31  and  C_32
REMARK                            x       y       z     vdW  Elec       q    Type
REMARK                         _______ _______ _______ _____ _____    ______ ____
ROOT
ATOM      1  N   UNL     1       0.422   8.490   5.599  0.00  0.00    -0.316 N 
ATOM      2  C   UNL     1       1.588   8.406   4.929  0.00  0.00    +0.216 C 
ATOM      3  O   UNL     1       2.262   9.400   4.758  0.00  0.00    -0.276 OA
ATOM      4  H   UNL     1      -0.117   7.695   5.735  0.00  0.00    +0.149 HD
ENDROOT
BRANCH   2   5
ATOM      5  C   UNL     1       2.055   7.077   4.392  0.00  0.00    +0.077 C 
ATOM      6  C   UNL     1       3.397   7.259   3.679  0.00  0.00    +0.030 C 
ATOM      7  C   UNL     1       3.885   5.901   3.165  0.00  0.00    +0.110 C 
ATOM      8  N   UNL     1       2.833   5.306   2.329  0.00  0.00    -0.177 NA
ATOM      9  C   UNL     1       1.480   5.173   2.885  0.00  0.00    +0.110 C 
ATOM     10  C   UNL     1       1.020   6.534   3.404  0.00  0.00    +0.030 C 
BRANCH   8  11
ATOM     11  S   UNL     1       3.166   4.800   0.787  0.00  0.00    +0.061 S 
ATOM     12  O   UNL     1       4.301   5.537   0.354  0.00  0.00    -0.153 OA
ATOM     13  O   UNL     1       1.933   4.815   0.081  0.00  0.00    -0.153 OA
BRANCH  11  14
ATOM     14  C   UNL     1       3.668   3.114   0.889  0.00  0.00    +0.106 A 
ATOM     15  C   UNL     1       2.727   2.106   0.797  0.00  0.00    +0.030 A 
ATOM     16  C   UNL     1       3.120   0.783   0.876  0.00  0.00    +0.022 A 
ATOM     17  C   UNL     1       4.456   0.469   1.048  0.00  0.00    +0.041 A 
ATOM     18  C   UNL     1       5.398   1.478   1.139  0.00  0.00    +0.022 A 
ATOM     19  C   UNL     1       5.003   2.800   1.060  0.00  0.00    +0.030 A 
ATOM     20 CL   UNL     1       4.951  -1.192   1.148  0.00  0.00    -0.084 Cl
ENDBRANCH  11  14
ENDBRANCH   8  11
ENDBRANCH   2   5
BRANCH   1  21
ATOM     21  C   UNL     1      -0.032   9.781   6.121  0.00  0.00    +0.093 C 
BRANCH  21  22
ATOM     22  C   UNL     1      -1.419   9.619   6.746  0.00  0.00    -0.017 C 
BRANCH  22  23
ATOM     23  C   UNL     1      -1.321   8.741   7.966  0.00  0.00    -0.018 A 
ATOM     24  C   UNL     1      -1.571   7.386   7.865  0.00  0.00    +0.005 A 
ATOM     25  C   UNL     1      -1.481   6.580   8.984  0.00  0.00    +0.000 A 
ATOM     26  C   UNL     1      -1.140   7.127  10.208  0.00  0.00    +0.004 A 
ATOM     27  C   UNL     1      -0.889   8.481  10.314  0.00  0.00    +0.046 A 
ATOM     28  C   UNL     1      -0.973   9.291   9.191  0.00  0.00    +0.122 A 
BRANCH  28  29
ATOM     29  O   UNL     1      -0.721  10.623   9.293  0.00  0.00    -0.495 OA
ATOM     30  C   UNL     1      -0.369  11.120  10.585  0.00  0.00    +0.277 C 
ENDBRANCH  28  29
ENDBRANCH  22  23
BRANCH  22  33
ATOM     31  C   UNL     1      -3.707   8.980   6.275  0.00  0.00    -0.096 C 
ATOM     32  C   UNL     1      -2.252   9.688   4.473  0.00  0.00    -0.096 C 
ATOM     33  N   UNL     1      -2.319   8.975   5.766  0.00  0.00    +0.382 N 
ATOM     34  H   UNL     1      -2.018   8.003   5.627  0.00  0.00    -0.082 HD
ENDBRANCH  22  33
ENDBRANCH  21  22
ENDBRANCH   1  21
TORSDOF 8
