REMARK  Name = ZINC58880443
REMARK  7 active torsions:
REMARK  status: ('A' for Active; 'I' for Inactive)
REMARK    1  A    between atoms: C_3  and  C_6
REMARK    2  A    between atoms: C_6  and  C_8
REMARK    3  A    between atoms: C_6  and  N_28
REMARK    4  A    between atoms: C_8  and  N_9
REMARK    5  A    between atoms: N_12  and  C_13
REMARK    6  A    between atoms: C_15  and  C_24
REMARK    7  A    between atoms: C_18  and  N_19
REMARK                            x       y       z     vdW  Elec       q    Type
REMARK                         _______ _______ _______ _____ _____    ______ ____
ROOT
ATOM      1  N   UNL     1       5.751   2.295  -1.289  0.00  0.00    -0.300 N 
ATOM      2  C   UNL     1       6.451   2.461  -2.428  0.00  0.00    +0.304 C 
ATOM      3  O   UNL     1       5.939   2.202  -3.500  0.00  0.00    -0.253 OA
ATOM      4  N   UNL     1       7.720   2.913  -2.379  0.00  0.00    -0.268 N 
ATOM      5  H   UNL     1       6.159   2.501  -0.434  0.00  0.00    +0.150 HD
ATOM      6  H   UNL     1       8.100   3.201  -1.535  0.00  0.00    +0.156 HD
ENDROOT
BRANCH   4   7
ATOM      7  C   UNL     1       8.489   2.968  -3.548  0.00  0.00    +0.061 A 
ATOM      8  C   UNL     1       8.202   2.123  -4.610  0.00  0.00    +0.037 A 
ATOM      9  C   UNL     1       8.962   2.179  -5.763  0.00  0.00    +0.057 A 
ATOM     10  C   UNL     1      10.011   3.076  -5.861  0.00  0.00    +0.014 A 
ATOM     11  C   UNL     1      10.303   3.921  -4.809  0.00  0.00    +0.030 A 
ATOM     12  C   UNL     1       9.542   3.876  -3.650  0.00  0.00    +0.087 A 
BRANCH  12  13
ATOM     13  N   UNL     1       9.834   4.738  -2.582  0.00  0.00    -0.238 N 
ATOM     14  C   UNL     1      10.755   5.726  -2.587  0.00  0.00    +0.114 A 
ATOM     15  C   UNL     1      10.728   6.321  -1.371  0.00  0.00    +0.041 A 
ATOM     16  C   UNL     1       9.757   5.675  -0.598  0.00  0.00    +0.135 A 
ATOM     17  N   UNL     1       9.217   4.730  -1.325  0.00  0.00    -0.175 NA
ENDBRANCH  12  13
BRANCH   9  18
ATOM     18  C   UNL     1       8.649   1.259  -6.915  0.00  0.00    +0.417 C 
ATOM     19  F   UNL     1       7.731   1.878  -7.769  0.00  0.00    -0.166 F 
ATOM     20  F   UNL     1       9.825   0.977  -7.619  0.00  0.00    -0.166 F 
ATOM     21  F   UNL     1       8.101   0.069  -6.425  0.00  0.00    -0.166 F 
ENDBRANCH   9  18
ENDBRANCH   4   7
BRANCH   1  22
ATOM     22  C   UNL     1       4.372   1.803  -1.342  0.00  0.00    +0.095 C 
BRANCH  22  23
ATOM     23  C   UNL     1       3.768   1.824   0.064  0.00  0.00    -0.013 C 
BRANCH  23  24
ATOM     24  N   UNL     1       2.393   1.309   0.015  0.00  0.00    +0.386 N 
ATOM     25  C   UNL     1       2.402  -0.143  -0.300  0.00  0.00    -0.078 C 
ATOM     26  C   UNL     1       1.029  -0.628   0.229  0.00  0.00    -0.020 C 
ATOM     27  C   UNL     1       0.842   0.202   1.519  0.00  0.00    -0.020 C 
ATOM     28  C   UNL     1       1.755   1.429   1.343  0.00  0.00    -0.078 C 
ATOM     29  H   UNL     1       1.857   1.812  -0.676  0.00  0.00    -0.081 HD
ENDBRANCH  23  24
BRANCH  23  32
ATOM     30  C   UNL     1       4.407   5.164   1.781  0.00  0.00    +0.008 A 
ATOM     31  C   UNL     1       4.616   3.841   1.441  0.00  0.00    +0.009 A 
ATOM     32  C   UNL     1       3.756   3.239   0.583  0.00  0.00    -0.022 A 
ATOM     33  S   UNL     1       2.604   4.557   0.229  0.00  0.00    -0.103 S 
ATOM     34  C   UNL     1       3.348   5.821   1.247  0.00  0.00    +0.045 A 
ENDBRANCH  23  32
ENDBRANCH  22  23
ENDBRANCH   1  22
TORSDOF 7
