REMARK  Name = ZINC12807471
REMARK  10 active torsions:
REMARK  status: ('A' for Active; 'I' for Inactive)
REMARK    1  A    between atoms: C_1  and  C_2
REMARK    2  A    between atoms: C_6  and  C_8
REMARK    3  A    between atoms: C_11  and  S_19
REMARK    4  A    between atoms: N_12  and  C_13
REMARK    5  A    between atoms: C_13  and  C_14
REMARK    6  A    between atoms: S_19  and  C_20
REMARK    7  A    between atoms: C_20  and  C_21
REMARK    8  A    between atoms: N_23  and  C_24
REMARK    9  A    between atoms: C_29  and  C_30
REMARK   10  A    between atoms: C_29  and  N_64
REMARK                            x       y       z     vdW  Elec       q    Type
REMARK                         _______ _______ _______ _____ _____    ______ ____
ROOT
ATOM      1  S   UNL     1      -3.685   5.170   0.547  0.00  0.00    -0.077 S 
ENDROOT
BRANCH   1   5
ATOM      2  C   UNL     1      -1.308   2.112   0.035  0.00  0.00    +0.165 A 
ATOM      3  N   UNL     1      -2.474   1.636  -0.335  0.00  0.00    -0.128 NA
ATOM      4  N   UNL     1      -3.377   2.542  -0.214  0.00  0.00    -0.122 NA
ATOM      5  C   UNL     1      -2.840   3.656   0.233  0.00  0.00    +0.193 A 
ATOM      6  N   UNL     1      -1.506   3.422   0.406  0.00  0.00    -0.295 N 
BRANCH   2  12
ATOM      7  C   UNL     1       3.682   2.152   0.092  0.00  0.00    +0.044 C 
ATOM      8  C   UNL     1       2.378   1.395   0.074  0.00  0.00    -0.050 A 
ATOM      9  C   UNL     1       2.384   0.011   0.073  0.00  0.00    +0.003 A 
ATOM     10  C   UNL     1       1.192  -0.691   0.058  0.00  0.00    +0.001 A 
ATOM     11  C   UNL     1      -0.011  -0.015   0.042  0.00  0.00    +0.011 A 
ATOM     12  C   UNL     1      -0.023   1.381   0.044  0.00  0.00    +0.020 A 
ATOM     13  C   UNL     1       1.183   2.083   0.060  0.00  0.00    +0.015 A 
ENDBRANCH   2  12
BRANCH   6  14
ATOM     14  C   UNL     1      -0.496   4.368   0.887  0.00  0.00    +0.200 C 
BRANCH  14  15
ATOM     15  C   UNL     1      -0.007   5.208  -0.264  0.00  0.00    +0.125 A 
ATOM     16  C   UNL     1      -0.537   6.377  -0.666  0.00  0.00    +0.046 A 
ATOM     17  C   UNL     1       0.230   6.817  -1.769  0.00  0.00    +0.041 A 
ATOM     18  C   UNL     1       1.178   5.886  -1.980  0.00  0.00    +0.195 A 
ATOM     19  O   UNL     1       1.030   4.914  -1.065  0.00  0.00    -0.466 OA
ENDBRANCH  14  15
ENDBRANCH   6  14
ENDBRANCH   1   5
BRANCH   1  20
ATOM     20  C   UNL     1      -5.369   4.692   0.087  0.00  0.00    +0.173 C 
BRANCH  20  21
ATOM     21  C   UNL     1      -6.295   5.865   0.281  0.00  0.00    +0.223 C 
ATOM     22  O   UNL     1      -5.859   6.920   0.690  0.00  0.00    -0.275 OA
ATOM     23  N   UNL     1      -7.607   5.741   0.000  0.00  0.00    -0.314 N 
ATOM     24  H   UNL     1      -7.956   4.897  -0.327  0.00  0.00    +0.149 HD
BRANCH  23  25
ATOM     25  C   UNL     1      -8.508   6.881   0.188  0.00  0.00    +0.055 C 
ATOM     26  C   UNL     1      -8.543   7.754  -1.087  0.00  0.00    +0.002 C 
ATOM     27  C   UNL     1      -9.814   7.245  -1.817  0.00  0.00    -0.077 C 
ATOM     28  C   UNL     1      -9.955   6.393   0.384  0.00  0.00    -0.056 C 
ATOM     29  N   UNL     1     -10.737   6.990  -0.699  0.00  0.00    +0.384 N 
ATOM     30  H   UNL     1     -11.150   7.875  -0.382  0.00  0.00    -0.081 HD
BRANCH  29  31
ATOM     31  C   UNL     1     -11.829   6.065  -1.127  0.00  0.00    -0.043 C 
BRANCH  31  32
ATOM     32  C   UNL     1     -12.471   6.586  -2.387  0.00  0.00    -0.064 A 
ATOM     33  C   UNL     1     -13.559   7.435  -2.308  0.00  0.00    +0.002 A 
ATOM     34  C   UNL     1     -14.145   7.916  -3.464  0.00  0.00    +0.000 A 
ATOM     35  C   UNL     1     -13.649   7.540  -4.699  0.00  0.00    +0.000 A 
ATOM     36  C   UNL     1     -12.564   6.687  -4.777  0.00  0.00    +0.000 A 
ATOM     37  C   UNL     1     -11.976   6.210  -3.621  0.00  0.00    +0.002 A 
ENDBRANCH  31  32
ENDBRANCH  29  31
ENDBRANCH  23  25
ENDBRANCH  20  21
ENDBRANCH   1  20
TORSDOF 9
