REMARK  Name = ZINC12034735
REMARK  9 active torsions:
REMARK  status: ('A' for Active; 'I' for Inactive)
REMARK    1  A    between atoms: C_1  and  C_2
REMARK    2  A    between atoms: C_3  and  C_4
REMARK    3  A    between atoms: C_4  and  N_5
REMARK    4  A    between atoms: C_8  and  C_12
REMARK    5  A    between atoms: C_8  and  C_20
REMARK    6  A    between atoms: C_12  and  C_13
REMARK    7  A    between atoms: C_13  and  C_14
REMARK    8  A    between atoms: C_25  and  C_26
REMARK    9  A    between atoms: C_25  and  N_67
REMARK                            x       y       z     vdW  Elec       q    Type
REMARK                         _______ _______ _______ _____ _____    ______ ____
ROOT
ATOM      1  N   UNL     1      -4.434   7.729  -6.098  0.00  0.00    -0.212 N 
ATOM      2  C   UNL     1      -3.454   6.937  -5.620  0.00  0.00    +0.248 C 
ATOM      3  O   UNL     1      -3.335   5.741  -5.779  0.00  0.00    -0.273 OA
ATOM      4  C   UNL     1      -2.529   7.854  -4.844  0.00  0.00    +0.115 C 
ATOM      5  N   UNL     1      -3.155   9.180  -4.988  0.00  0.00    -0.285 N 
ATOM      6  C   UNL     1      -4.260   9.004  -5.735  0.00  0.00    +0.310 C 
ATOM      7  O   UNL     1      -5.015   9.905  -6.046  0.00  0.00    -0.252 OA
ATOM      8  H   UNL     1      -2.833  10.016  -4.617  0.00  0.00    +0.151 HD
ENDROOT
BRANCH   4   9
ATOM      9  C   UNL     1      -2.475   7.441  -3.372  0.00  0.00    +0.018 C 
ATOM     10  C   UNL     1      -3.899   7.279  -2.833  0.00  0.00    -0.013 C 
ATOM     11  C   UNL     1      -3.837   6.809  -1.377  0.00  0.00    -0.078 C 
ATOM     12  C   UNL     1      -1.734   5.673  -1.772  0.00  0.00    -0.078 C 
ATOM     13  C   UNL     1      -1.732   6.109  -3.239  0.00  0.00    -0.013 C 
ATOM     14  N   UNL     1      -3.132   5.511  -1.321  0.00  0.00    +0.382 N 
ATOM     15  H   UNL     1      -3.607   4.846  -1.944  0.00  0.00    -0.081 HD
BRANCH  14  16
ATOM     16  C   UNL     1      -3.160   4.981   0.057  0.00  0.00    -0.041 C 
BRANCH  16  17
ATOM     17  C   UNL     1      -2.633   3.569   0.045  0.00  0.00    -0.039 A 
ATOM     18  C   UNL     1      -3.365   2.443   0.046  0.00  0.00    +0.085 A 
ATOM     19  N   UNL     1      -2.541   1.351   0.033  0.00  0.00    -0.360 N 
ATOM     20  H   UNL     1      -2.839   0.428   0.031  0.00  0.00    +0.165 HD
ATOM     21  C   UNL     1      -1.225   1.757   0.017  0.00  0.00    +0.047 A 
ATOM     22  C   UNL     1      -1.225   3.164   0.030  0.00  0.00    +0.001 A 
ATOM     23  C   UNL     1      -0.015   3.861   0.022  0.00  0.00    +0.010 A 
ATOM     24  C   UNL     1       1.165   3.171   0.007  0.00  0.00    +0.001 A 
ATOM     25  C   UNL     1       1.170   1.783   0.001  0.00  0.00    +0.002 A 
ATOM     26  C   UNL     1      -0.013   1.076   0.008  0.00  0.00    +0.026 A 
ENDBRANCH  16  17
ENDBRANCH  14  16
ENDBRANCH   4   9
BRANCH   1  27
ATOM     27  C   UNL     1      -5.553   7.251  -6.915  0.00  0.00    +0.206 C 
BRANCH  27  30
ATOM     28  C   UNL     1      -4.521   7.436 -10.898  0.00  0.00    +0.106 C 
ATOM     29  C   UNL     1      -4.890   7.370  -9.474  0.00  0.00    -0.104 C 
ATOM     30  C   UNL     1      -5.184   7.317  -8.339  0.00  0.00    -0.083 C 
ENDBRANCH  27  30
ENDBRANCH   1  27
BRANCH   4  31
ATOM     31  C   UNL     1      -1.126   7.851  -5.454  0.00  0.00    +0.040 C 
BRANCH  31  32
ATOM     32  C   UNL     1      -1.192   8.386  -6.886  0.00  0.00    +0.038 C 
BRANCH  32  33
ATOM     33  C   UNL     1       0.190   8.383  -7.488  0.00  0.00    -0.047 A 
ATOM     34  C   UNL     1       1.000   9.496  -7.362  0.00  0.00    +0.003 A 
ATOM     35  C   UNL     1       2.269   9.493  -7.909  0.00  0.00    +0.000 A 
ATOM     36  C   UNL     1       2.724   8.380  -8.591  0.00  0.00    +0.000 A 
ATOM     37  C   UNL     1       1.912   7.269  -8.722  0.00  0.00    +0.000 A 
ATOM     38  C   UNL     1       0.645   7.271  -8.170  0.00  0.00    +0.003 A 
ENDBRANCH  32  33
ENDBRANCH  31  32
ENDBRANCH   4  31
TORSDOF 8
