REMARK  Name = ZINC67416238
REMARK  5 active torsions:
REMARK  status: ('A' for Active; 'I' for Inactive)
REMARK    1  A    between atoms: C_6  and  C_7
REMARK    2  A    between atoms: N_16  and  C_17
REMARK    3  A    between atoms: C_17  and  C_18
REMARK    4  A    between atoms: C_18  and  N_19
REMARK    5  A    between atoms: C_20  and  C_22
REMARK                            x       y       z     vdW  Elec       q    Type
REMARK                         _______ _______ _______ _____ _____    ______ ____
ROOT
ATOM      1  C   UNL     1      -1.290  -0.773   0.006  0.00  0.00    +0.166 C 
ATOM      2  C   UNL     1      -1.615  -1.249  -1.415  0.00  0.00    +0.145 C 
ATOM      3  N   UNL     1      -2.778  -2.148  -1.348  0.00  0.00    -0.281 N 
ATOM      4  C   UNL     1      -2.743  -3.253  -0.376  0.00  0.00    +0.137 C 
ATOM      5  C   UNL     1      -2.363  -2.679   0.994  0.00  0.00    +0.179 C 
ATOM      6  O   UNL     1      -1.166  -1.908   0.867  0.00  0.00    -0.369 OA
ATOM      7  C   UNL     1      -3.844  -1.966  -2.153  0.00  0.00    +0.302 C 
ATOM      8  O   UNL     1      -3.896  -0.994  -2.881  0.00  0.00    -0.253 OA
ATOM      9  N   UNL     1      -4.851  -2.861  -2.150  0.00  0.00    -0.298 N 
ATOM     10  H   UNL     1      -4.845  -3.597  -1.518  0.00  0.00    +0.150 HD
ENDROOT
BRANCH   1  16
ATOM     11  C   UNL     1      -0.009   1.376  -0.002  0.00  0.00    +0.009 A 
ATOM     12  C   UNL     1       1.180   2.083  -0.013  0.00  0.00    +0.041 A 
ATOM     13  C   UNL     1       2.387   1.406  -0.026  0.00  0.00    +0.158 A 
ATOM     14  C   UNL     1       2.402   0.019  -0.029  0.00  0.00    +0.159 A 
ATOM     15  C   UNL     1       1.211  -0.685  -0.019  0.00  0.00    +0.047 A 
ATOM     16  C   UNL     1       0.007  -0.006  -0.005  0.00  0.00    -0.015 A 
ATOM     17  F   UNL     1       3.579  -0.644  -0.042  0.00  0.00    -0.202 F 
ATOM     18  F   UNL     1       3.549   2.095  -0.036  0.00  0.00    -0.202 F 
ENDBRANCH   1  16
BRANCH   9  19
ATOM     19  C   UNL     1      -5.957  -2.722  -3.101  0.00  0.00    +0.124 C 
BRANCH  19  20
ATOM     20  C   UNL     1      -6.959  -3.859  -2.888  0.00  0.00    +0.123 C 
BRANCH  20  21
ATOM     21  N   UNL     1      -8.065  -3.720  -3.839  0.00  0.00    -0.314 N 
ATOM     22  C   UNL     1      -9.072  -4.615  -3.836  0.00  0.00    +0.216 C 
ATOM     23  O   UNL     1      -9.064  -5.535  -3.046  0.00  0.00    -0.276 OA
ATOM     24  H   UNL     1      -8.071  -2.984  -4.471  0.00  0.00    +0.149 HD
BRANCH  22  25
ATOM     25  C   UNL     1     -10.210  -4.472  -4.814  0.00  0.00    +0.075 C 
ATOM     26  C   UNL     1     -10.967  -3.153  -4.556  0.00  0.00    +0.013 C 
ATOM     27  C   UNL     1     -12.451  -3.510  -4.815  0.00  0.00    +0.001 C 
ATOM     28  C   UNL     1     -12.565  -4.942  -4.236  0.00  0.00    +0.001 C 
ATOM     29  C   UNL     1     -11.226  -5.610  -4.611  0.00  0.00    +0.013 C 
ENDBRANCH  22  25
ENDBRANCH  20  21
ENDBRANCH  19  20
ENDBRANCH   9  19
TORSDOF 5
