REMARK  Name = ZINC35057385
REMARK  9 active torsions:
REMARK  status: ('A' for Active; 'I' for Inactive)
REMARK    1  A    between atoms: C_1  and  C_2
REMARK    2  A    between atoms: C_2  and  C_4
REMARK    3  A    between atoms: C_2  and  O_7
REMARK    4  A    between atoms: O_7  and  C_8
REMARK    5  A    between atoms: C_10  and  N_40
REMARK    6  A    between atoms: C_12  and  O_29
REMARK    7  A    between atoms: C_20  and  C_24
REMARK    8  A    between atoms: O_29  and  C_30
REMARK    9  A    between atoms: C_41  and  C_43
REMARK                            x       y       z     vdW  Elec       q    Type
REMARK                         _______ _______ _______ _____ _____    ______ ____
ROOT
ATOM      1  C   UNL     1       0.139  -0.591   2.279  0.00  0.00    +0.177 C 
ATOM      2  C   UNL     1      -0.072   0.719   3.048  0.00  0.00    +0.173 C 
ATOM      3  C   UNL     1       1.277   1.260   3.524  0.00  0.00    +0.331 C 
ATOM      4  O   UNL     1       1.949   0.274   4.315  0.00  0.00    -0.332 OA
ATOM      5  C   UNL     1       2.216  -0.933   3.605  0.00  0.00    +0.179 C 
ATOM      6  C   UNL     1       0.882  -1.574   3.185  0.00  0.00    +0.183 C 
ATOM      7  O   UNL     1       1.152  -2.799   2.503  0.00  0.00    -0.336 OA
ATOM      8  C   UNL     1       1.876  -3.739   3.306  0.00  0.00    +0.319 C 
ATOM      9  O   UNL     1       3.112  -3.167   3.737  0.00  0.00    -0.342 OA
ATOM     10  C   UNL     1       2.974  -1.933   4.479  0.00  0.00    +0.197 C 
ENDROOT
BRANCH   8  11
ATOM     11  C   UNL     1       1.050  -4.106   4.512  0.00  0.00    +0.161 A 
ATOM     12  C   UNL     1       1.416  -4.959   5.485  0.00  0.00    +0.050 A 
ATOM     13  C   UNL     1       0.348  -5.006   6.411  0.00  0.00    +0.041 A 
ATOM     14  C   UNL     1      -0.606  -4.179   5.948  0.00  0.00    +0.195 A 
ATOM     15  O   UNL     1      -0.173  -3.632   4.800  0.00  0.00    -0.463 OA
ENDBRANCH   8  11
BRANCH   2  16
ATOM     16  N   UNL     1      -0.708   1.704   2.168  0.00  0.00    -0.304 N 
ATOM     17  C   UNL     1      -1.456   2.693   2.695  0.00  0.00    +0.210 C 
ATOM     18  O   UNL     1      -1.604   2.769   3.896  0.00  0.00    -0.276 OA
ATOM     19  C   UNL     1      -2.111   3.705   1.790  0.00  0.00    +0.109 C 
ATOM     20  H   UNL     1      -0.590   1.643   1.208  0.00  0.00    +0.149 HD
ENDBRANCH   2  16
BRANCH   1  21
ATOM     21  O   UNL     1       0.914  -0.340   1.105  0.00  0.00    -0.358 OA
BRANCH  21  23
ATOM     22  C   UNL     1      -0.458  -0.431  -0.882  0.00  0.00    +0.050 C 
ATOM     23  C   UNL     1       0.563  -1.163  -0.009  0.00  0.00    +0.228 C 
BRANCH  23  24
ATOM     24  C   UNL     1       1.797  -1.460  -0.822  0.00  0.00    +0.384 C 
ATOM     25  O   UNL     1       2.859  -0.936  -0.532  0.00  0.00    -0.243 OA
ATOM     26  O   UNL     1       1.733  -2.224  -1.770  0.00  0.00    -0.243 OA
ENDBRANCH  23  24
ENDBRANCH  21  23
ENDBRANCH   1  21
BRANCH   3  27
ATOM     27  O   UNL     1       2.084   1.586   2.391  0.00  0.00    -0.461 OA
BRANCH  27  28
ATOM     28  C   UNL     1       3.281   2.180   2.636  0.00  0.00    +0.132 A 
ATOM     29  C   UNL     1       3.671   2.436   3.920  0.00  0.00    +0.046 A 
ATOM     30  C   UNL     1       4.895   3.044   4.188  0.00  0.00    +0.004 A 
ATOM     31  C   UNL     1       5.738   3.400   3.180  0.00  0.00    +0.009 A 
ATOM     32  C   UNL     1       5.373   3.153   1.846  0.00  0.00    -0.014 A 
ATOM     33  C   UNL     1       4.131   2.530   1.568  0.00  0.00    +0.024 A 
ATOM     34  C   UNL     1       3.769   2.280   0.235  0.00  0.00    +0.012 A 
ATOM     35  C   UNL     1       4.615   2.633  -0.771  0.00  0.00    +0.001 A 
ATOM     36  C   UNL     1       5.840   3.240  -0.499  0.00  0.00    +0.001 A 
ATOM     37  C   UNL     1       6.219   3.508   0.781  0.00  0.00    +0.008 A 
ENDBRANCH  27  28
ENDBRANCH   3  27
TORSDOF 7
