REMARK  Name = ZINC55175627
REMARK  5 active torsions:
REMARK  status: ('A' for Active; 'I' for Inactive)
REMARK    1  A    between atoms: C_1  and  C_2
REMARK    2  A    between atoms: C_3  and  C_8
REMARK    3  A    between atoms: N_10  and  C_11
REMARK    4  A    between atoms: N_10  and  C_12
REMARK    5  A    between atoms: C_17  and  C_20
REMARK                            x       y       z     vdW  Elec       q    Type
REMARK                         _______ _______ _______ _____ _____    ______ ____
ROOT
ATOM      1  C   UNL     1       1.061  -0.821  -2.794  0.00  0.00    +0.255 C 
ATOM      2  O   UNL     1       1.913  -0.057  -3.208  0.00  0.00    -0.269 OA
ATOM      3  N   UNL     1       0.062  -1.221  -3.606  0.00  0.00    -0.297 N 
ATOM      4  C   UNL     1      -1.034  -2.034  -3.074  0.00  0.00    +0.132 C 
ENDROOT
BRANCH   1   7
ATOM      5  C   UNL     1       3.037   0.112  -0.567  0.00  0.00    +0.067 C 
ATOM      6  C   UNL     1       1.968  -0.934  -0.381  0.00  0.00    +0.060 A 
ATOM      7  C   UNL     1       1.120  -1.305  -1.415  0.00  0.00    +0.098 A 
ATOM      8  S   UNL     1       0.119  -2.536  -0.595  0.00  0.00    -0.048 S 
ATOM      9  C   UNL     1       0.850  -2.459   0.920  0.00  0.00    +0.156 A 
ATOM     10  N   UNL     1       1.793  -1.546   0.763  0.00  0.00    -0.230 NA
ATOM     11  N   UNL     1       0.542  -3.181   2.053  0.00  0.00    -0.337 N 
ATOM     12  H   UNL     1      -0.178  -3.830   2.033  0.00  0.00    +0.144 HD
ATOM     13  H   UNL     1       1.046  -3.040   2.870  0.00  0.00    +0.144 HD
ENDBRANCH   1   7
BRANCH   3  14
ATOM     14  C   UNL     1       0.073  -0.842  -5.021  0.00  0.00    +0.076 C 
ATOM     15  C   UNL     1      -1.070  -1.553  -5.748  0.00  0.00    +0.022 C 
ATOM     16  C   UNL     1      -0.890  -3.067  -5.624  0.00  0.00    +0.002 C 
ATOM     17  C   UNL     1       0.445  -3.474  -6.251  0.00  0.00    +0.003 C 
ATOM     18  C   UNL     1       1.588  -2.763  -5.524  0.00  0.00    -0.012 C 
ATOM     19  C   UNL     1       1.407  -1.249  -5.648  0.00  0.00    +0.025 C 
ATOM     20  C   UNL     1       2.923  -3.171  -6.151  0.00  0.00    +0.007 C 
ENDBRANCH   3  14
TORSDOF 2
