REMARK  Name = ZINC59893585
REMARK  8 active torsions:
REMARK  status: ('A' for Active; 'I' for Inactive)
REMARK    1  A    between atoms: C_9  and  C_12
REMARK    2  A    between atoms: N_14  and  N_15
REMARK    3  A    between atoms: C_16  and  C_18
REMARK    4  A    between atoms: C_22  and  N_24
REMARK    5  A    between atoms: C_25  and  C_27
REMARK    6  A    between atoms: C_27  and  C_28
REMARK    7  A    between atoms: C_28  and  C_29
REMARK    8  A    between atoms: C_29  and  C_30
REMARK                            x       y       z     vdW  Elec       q    Type
REMARK                         _______ _______ _______ _____ _____    ______ ____
ROOT
ATOM      1  N   UNL     1       6.524  -4.416   0.203  0.00  0.00    -0.230 N 
ATOM      2  C   UNL     1       6.770  -5.703   0.521  0.00  0.00    +0.260 C 
ATOM      3  O   UNL     1       6.013  -6.302   1.259  0.00  0.00    -0.269 OA
ATOM      4  H   UNL     1       7.128  -3.938  -0.386  0.00  0.00    +0.173 HD
ENDROOT
BRANCH   2   5
ATOM      5  C   UNL     1       7.961  -6.385  -0.029  0.00  0.00    +0.040 A 
ATOM      6  C   UNL     1       8.835  -5.697  -0.873  0.00  0.00    +0.013 A 
ATOM      7  C   UNL     1       9.946  -6.336  -1.385  0.00  0.00    +0.003 A 
ATOM      8  C   UNL     1      10.197  -7.658  -1.065  0.00  0.00    +0.023 A 
ATOM      9  C   UNL     1       9.333  -8.351  -0.227  0.00  0.00    +0.034 A 
ATOM     10  C   UNL     1       8.218  -7.716   0.297  0.00  0.00    +0.036 A 
BRANCH   9  11
ATOM     11  N   UNL     1       9.591  -9.689   0.092  0.00  0.00    -0.285 N 
ATOM     12  C   UNL     1       8.569 -10.544   0.290  0.00  0.00    +0.217 C 
ATOM     13  O   UNL     1       7.428 -10.180   0.099  0.00  0.00    -0.275 OA
ATOM     14  H   UNL     1      10.507 -10.001   0.171  0.00  0.00    +0.155 HD
BRANCH  12  15
ATOM     15  C   UNL     1       8.843 -11.953   0.750  0.00  0.00    +0.096 C 
BRANCH  15  16
ATOM     16  C   UNL     1       7.520 -12.708   0.896  0.00  0.00    +0.014 C 
BRANCH  16  17
ATOM     17  C   UNL     1       7.798 -14.139   1.363  0.00  0.00    +0.043 C 
BRANCH  17  18
ATOM     18  C   UNL     1       6.496 -14.883   1.507  0.00  0.00    -0.010 A 
ATOM     19  C   UNL     1       5.829 -15.622   0.588  0.00  0.00    +0.011 A 
ATOM     20  C   UNL     1       4.637 -16.222   0.947  0.00  0.00    +0.008 A 
ATOM     21  C   UNL     1       4.169 -16.053   2.208  0.00  0.00    +0.045 A 
ATOM     22  S   UNL     1       5.434 -15.024   2.935  0.00  0.00    -0.102 S 
ENDBRANCH  17  18
ENDBRANCH  16  17
ENDBRANCH  15  16
ENDBRANCH  12  15
ENDBRANCH   9  11
ENDBRANCH   2   5
BRANCH   1  25
ATOM     23  C   UNL     1       5.150  -2.483   0.407  0.00  0.00    +0.273 C 
ATOM     24  O   UNL     1       5.905  -1.885  -0.329  0.00  0.00    -0.270 OA
ATOM     25  N   UNL     1       5.396  -3.770   0.724  0.00  0.00    -0.231 N 
ATOM     26  H   UNL     1       4.792  -4.248   1.313  0.00  0.00    +0.173 HD
BRANCH  23  35
ATOM     27  C   UNL     1       0.426   1.706   1.071  0.00  0.00    +0.004 A 
ATOM     28  C   UNL     1       1.622   2.373   0.880  0.00  0.00    +0.004 A 
ATOM     29  C   UNL     1       2.794   1.661   0.712  0.00  0.00    +0.049 A 
ATOM     30  C   UNL     1       2.774   0.274   0.735  0.00  0.00    +0.163 A 
ATOM     31  C   UNL     1       1.573  -0.397   0.929  0.00  0.00    +0.162 A 
ATOM     32  C   UNL     1       0.400   0.324   1.095  0.00  0.00    +0.049 A 
ATOM     33  O   UNL     1       1.532  -1.757   0.963  0.00  0.00    -0.484 OA
ATOM     34  C   UNL     1       2.663  -2.448   0.422  0.00  0.00    +0.283 C 
ATOM     35  C   UNL     1       3.936  -1.788   0.968  0.00  0.00    +0.297 C 
ATOM     36  O   UNL     1       3.936  -0.414   0.564  0.00  0.00    -0.472 OA
ENDBRANCH  23  35
ENDBRANCH   1  25
TORSDOF 8
