REMARK  Name = ZINC18241855
REMARK  6 active torsions:
REMARK  status: ('A' for Active; 'I' for Inactive)
REMARK    1  A    between atoms: C_1  and  C_2
REMARK    2  A    between atoms: C_5  and  S_8
REMARK    3  A    between atoms: S_8  and  C_9
REMARK    4  A    between atoms: C_9  and  C_10
REMARK    5  A    between atoms: N_21  and  C_24
REMARK    6  A    between atoms: C_24  and  C_25
REMARK                            x       y       z     vdW  Elec       q    Type
REMARK                         _______ _______ _______ _____ _____    ______ ____
ROOT
ATOM      1  C   UNL     1       1.253  -8.540   2.139  0.00  0.00    +0.060 A 
ATOM      2  C   UNL     1       1.282  -7.180   2.244  0.00  0.00    +0.094 A 
ATOM      3  C   UNL     1       0.085  -6.460   2.087  0.00  0.00    +0.253 A 
ATOM      4  O   UNL     1       0.074  -5.243   2.174  0.00  0.00    -0.268 OA
ATOM      5  N   UNL     1      -1.054  -7.142   1.838  0.00  0.00    -0.295 N 
ATOM      6  H   UNL     1      -1.892  -6.666   1.726  0.00  0.00    +0.172 HD
ATOM      7  C   UNL     1      -1.022  -8.499   1.744  0.00  0.00    +0.198 A 
ATOM      8  N   UNL     1       0.106  -9.166   1.887  0.00  0.00    -0.220 NA
ATOM      9  N   UNL     1      -2.181  -9.183   1.491  0.00  0.00    -0.305 N 
ATOM     10  C   UNL     1      -2.209 -10.654   1.503  0.00  0.00    +0.089 C 
ATOM     11  C   UNL     1      -2.875 -11.138   0.211  0.00  0.00    -0.059 C 
ATOM     12  N   UNL     1      -4.194 -10.508   0.076  0.00  0.00    +0.384 N 
ATOM     13  C   UNL     1      -4.041  -9.055  -0.078  0.00  0.00    -0.059 C 
ATOM     14  C   UNL     1      -3.434  -8.468   1.205  0.00  0.00    +0.089 C 
ATOM     15  H   UNL     1      -4.744 -10.701   0.900  0.00  0.00    -0.081 HD
ENDROOT
BRANCH   1  16
ATOM     16  C   UNL     1       2.523  -9.335   2.303  0.00  0.00    +0.130 C 
BRANCH  16  17
ATOM     17  S   UNL     1       2.520 -10.154   3.921  0.00  0.00    -0.119 S 
BRANCH  17  22
ATOM     18  C   UNL     1       7.755 -13.155   4.050  0.00  0.00    +0.044 C 
ATOM     19  C   UNL     1       6.449 -12.405   4.018  0.00  0.00    -0.050 A 
ATOM     20  C   UNL     1       5.589 -12.471   5.100  0.00  0.00    +0.004 A 
ATOM     21  C   UNL     1       4.390 -11.786   5.074  0.00  0.00    +0.015 A 
ATOM     22  C   UNL     1       4.048 -11.029   3.959  0.00  0.00    +0.008 A 
ATOM     23  C   UNL     1       4.915 -10.965   2.875  0.00  0.00    +0.015 A 
ATOM     24  C   UNL     1       6.114 -11.649   2.910  0.00  0.00    +0.004 A 
ENDBRANCH  17  22
ENDBRANCH  16  17
ENDBRANCH   1  16
BRANCH  12  25
ATOM     25  C   UNL     1      -4.877 -11.055  -1.104  0.00  0.00    -0.043 C 
BRANCH  25  26
ATOM     26  C   UNL     1      -6.277 -10.501  -1.175  0.00  0.00    -0.060 A 
ATOM     27  C   UNL     1      -7.314 -11.165  -0.546  0.00  0.00    +0.005 A 
ATOM     28  C   UNL     1      -8.600 -10.661  -0.609  0.00  0.00    +0.050 A 
ATOM     29  C   UNL     1      -8.852  -9.489  -1.302  0.00  0.00    +0.166 A 
ATOM     30  C   UNL     1      -7.808  -8.820  -1.935  0.00  0.00    +0.166 A 
ATOM     31  C   UNL     1      -6.521  -9.328  -1.864  0.00  0.00    +0.051 A 
ATOM     32  O   UNL     1      -8.308  -7.705  -2.543  0.00  0.00    -0.453 OA
ATOM     33  C   UNL     1      -9.731  -7.915  -2.620  0.00  0.00    +0.466 C 
ATOM     34  O   UNL     1     -10.007  -8.792  -1.513  0.00  0.00    -0.453 OA
ENDBRANCH  25  26
ENDBRANCH  12  25
TORSDOF 5
