REMARK  Name = ZINC64976979
REMARK  9 active torsions:
REMARK  status: ('A' for Active; 'I' for Inactive)
REMARK    1  A    between atoms: C_1  and  C_2
REMARK    2  A    between atoms: C_5  and  C_8
REMARK    3  A    between atoms: C_17  and  C_19
REMARK    4  A    between atoms: C_19  and  N_20
REMARK    5  A    between atoms: N_20  and  S_21
REMARK    6  A    between atoms: S_21  and  C_24
REMARK    7  A    between atoms: C_27  and  C_30
REMARK    8  A    between atoms: C_30  and  C_31
REMARK    9  A    between atoms: C_30  and  C_32
REMARK                            x       y       z     vdW  Elec       q    Type
REMARK                         _______ _______ _______ _____ _____    ______ ____
ROOT
ATOM      1  C   UNL     1       0.060  -4.251  -0.021  0.00  0.00    +0.251 C 
ATOM      2  O   UNL     1      -0.038  -4.854  -1.072  0.00  0.00    -0.270 OA
ATOM      3  N   UNL     1       0.176  -4.930   1.137  0.00  0.00    -0.267 N 
ATOM      4  C   UNL     1       0.180  -4.322   2.470  0.00  0.00    +0.118 C 
ATOM      5  C   UNL     1       0.335  -5.497   3.449  0.00  0.00    +0.056 C 
ATOM      6  C   UNL     1       0.409  -6.721   2.565  0.00  0.00    -0.024 A 
ATOM      7  C   UNL     1       0.306  -6.317   1.243  0.00  0.00    +0.040 A 
ATOM      8  C   UNL     1       0.343  -7.282   0.235  0.00  0.00    +0.024 A 
ATOM      9  C   UNL     1       0.478  -8.617   0.554  0.00  0.00    +0.007 A 
ATOM     10  C   UNL     1       0.576  -9.009   1.876  0.00  0.00    -0.032 A 
ATOM     11  C   UNL     1       0.548  -8.059   2.880  0.00  0.00    +0.010 A 
ENDROOT
BRANCH   1  16
ATOM     12  C   UNL     1       0.022   1.503   0.006  0.00  0.00    +0.044 C 
ATOM     13  C   UNL     1       0.032  -0.004  -0.001  0.00  0.00    -0.050 A 
ATOM     14  C   UNL     1       0.088  -0.686  -1.203  0.00  0.00    +0.004 A 
ATOM     15  C   UNL     1       0.098  -2.066  -1.217  0.00  0.00    +0.013 A 
ATOM     16  C   UNL     1       0.050  -2.773  -0.014  0.00  0.00    +0.037 A 
ATOM     17  C   UNL     1      -0.006  -2.078   1.195  0.00  0.00    +0.013 A 
ATOM     18  C   UNL     1      -0.010  -0.699   1.195  0.00  0.00    +0.004 A 
ENDBRANCH   1  16
BRANCH  10  19
ATOM     19  C   UNL     1       0.723 -10.469   2.221  0.00  0.00    +0.141 C 
BRANCH  19  20
ATOM     20  N   UNL     1       2.145 -10.819   2.267  0.00  0.00    -0.186 NA
ATOM     21  H   UNL     1       2.804 -10.221   1.883  0.00  0.00    +0.148 HD
BRANCH  20  22
ATOM     22  S   UNL     1       2.626 -12.237   2.975  0.00  0.00    +0.059 S 
ATOM     23  O   UNL     1       4.039 -12.301   2.838  0.00  0.00    -0.153 OA
ATOM     24  O   UNL     1       1.980 -12.299   4.239  0.00  0.00    -0.153 OA
BRANCH  22  25
ATOM     25  C   UNL     1       1.966 -13.553   2.007  0.00  0.00    +0.105 A 
ATOM     26  C   UNL     1       0.715 -14.065   2.297  0.00  0.00    +0.029 A 
ATOM     27  C   UNL     1       0.198 -15.098   1.538  0.00  0.00    +0.006 A 
ATOM     28  C   UNL     1       0.931 -15.618   0.488  0.00  0.00    -0.045 A 
ATOM     29  C   UNL     1       2.181 -15.105   0.197  0.00  0.00    +0.006 A 
ATOM     30  C   UNL     1       2.697 -14.070   0.954  0.00  0.00    +0.029 A 
BRANCH  28  31
ATOM     31  C   UNL     1       0.367 -16.744  -0.339  0.00  0.00    +0.013 C 
ATOM     32  C   UNL     1       0.253 -16.298  -1.798  0.00  0.00    +0.012 C 
ATOM     33  C   UNL     1       1.294 -17.958  -0.248  0.00  0.00    +0.012 C 
ENDBRANCH  28  31
ENDBRANCH  22  25
ENDBRANCH  20  22
ENDBRANCH  19  20
ENDBRANCH  10  19
TORSDOF 6
