REMARK  Name = ZINC40033211
REMARK  5 active torsions:
REMARK  status: ('A' for Active; 'I' for Inactive)
REMARK    1  A    between atoms: C_1  and  C_2
REMARK    2  A    between atoms: C_2  and  C_33
REMARK    3  A    between atoms: N_14  and  C_27
REMARK    4  A    between atoms: N_17  and  N_18
REMARK    5  A    between atoms: C_19  and  C_20
REMARK                            x       y       z     vdW  Elec       q    Type
REMARK                         _______ _______ _______ _____ _____    ______ ____
ROOT
ATOM      1  C   UNL     1      -0.671   2.014   0.329  0.00  0.00    +0.016 C 
ATOM      2  C   UNL     1      -0.135   0.614   0.632  0.00  0.00    +0.001 C 
ATOM      3  C   UNL     1      -1.303  -0.310   0.969  0.00  0.00    +0.047 C 
ATOM      4  C   UNL     1      -1.910   0.067   2.293  0.00  0.00    -0.037 A 
ATOM      5  C   UNL     1      -3.270  -0.045   2.496  0.00  0.00    +0.004 A 
ATOM      6  C   UNL     1      -3.820   0.300   3.718  0.00  0.00    +0.000 A 
ATOM      7  C   UNL     1      -3.014   0.758   4.744  0.00  0.00    +0.001 A 
ATOM      8  C   UNL     1      -1.651   0.875   4.555  0.00  0.00    +0.010 A 
ATOM      9  C   UNL     1      -1.094   0.531   3.326  0.00  0.00    +0.004 A 
ATOM     10  C   UNL     1       0.362   0.655   3.090  0.00  0.00    +0.084 A 
ATOM     11  C   UNL     1       0.828   0.691   1.783  0.00  0.00    +0.049 A 
ATOM     12  C   UNL     1       2.206   0.801   1.561  0.00  0.00    +0.264 A 
ATOM     13  O   UNL     1       2.654   0.834   0.426  0.00  0.00    -0.267 OA
ATOM     14  N   UNL     1       3.030   0.871   2.629  0.00  0.00    -0.248 N 
ATOM     15  C   UNL     1       2.519   0.837   3.893  0.00  0.00    +0.223 A 
ATOM     16  N   UNL     1       1.224   0.732   4.109  0.00  0.00    -0.214 NA
ATOM     17  N   UNL     1       3.373   0.914   4.963  0.00  0.00    -0.206 N 
ATOM     18  C   UNL     1       0.594   0.075  -0.600  0.00  0.00    +0.016 C 
ATOM     19  H   UNL     1       4.320   1.068   4.818  0.00  0.00    +0.177 HD
ENDROOT
BRANCH  14  20
ATOM     20  C   UNL     1       4.413   0.977   2.438  0.00  0.00    +0.053 A 
ATOM     21  C   UNL     1       5.199  -0.167   2.388  0.00  0.00    +0.026 A 
ATOM     22  C   UNL     1       6.563  -0.058   2.199  0.00  0.00    +0.002 A 
ATOM     23  C   UNL     1       7.146   1.188   2.060  0.00  0.00    +0.000 A 
ATOM     24  C   UNL     1       6.367   2.329   2.109  0.00  0.00    +0.002 A 
ATOM     25  C   UNL     1       5.001   2.227   2.291  0.00  0.00    +0.026 A 
ENDBRANCH  14  20
BRANCH  17  26
ATOM     26  N   UNL     1       2.878   0.770   6.266  0.00  0.00    -0.188 NA
ATOM     27  C   UNL     1       3.686   0.843   7.279  0.00  0.00    +0.138 C 
BRANCH  27  28
ATOM     28  C   UNL     1       3.165   0.692   8.650  0.00  0.00    -0.005 A 
ATOM     29  C   UNL     1       1.803   0.464   8.862  0.00  0.00    +0.011 A 
ATOM     30  C   UNL     1       1.322   0.324  10.147  0.00  0.00    +0.020 A 
ATOM     31  C   UNL     1       2.186   0.407  11.226  0.00  0.00    +0.041 A 
ATOM     32  C   UNL     1       3.538   0.632  11.023  0.00  0.00    +0.020 A 
ATOM     33  C   UNL     1       4.032   0.769   9.743  0.00  0.00    +0.011 A 
ATOM     34 CL   UNL     1       1.573   0.230  12.840  0.00  0.00    -0.084 Cl
ENDBRANCH  27  28
ENDBRANCH  17  26
TORSDOF 3
