REMARK  Name = ZINC09238668
REMARK  6 active torsions:
REMARK  status: ('A' for Active; 'I' for Inactive)
REMARK    1  A    between atoms: C_1  and  C_2
REMARK    2  A    between atoms: C_5  and  C_8
REMARK    3  A    between atoms: C_10  and  C_25
REMARK    4  A    between atoms: C_16  and  C_19
REMARK    5  A    between atoms: N_27  and  C_28
REMARK    6  A    between atoms: C_28  and  C_29
REMARK                            x       y       z     vdW  Elec       q    Type
REMARK                         _______ _______ _______ _____ _____    ______ ____
ROOT
ATOM      1  C   UNL     1      -2.208  -0.184   0.943  0.00  0.00    +0.140 C 
ATOM      2  C   UNL     1      -2.687   0.996   0.088  0.00  0.00    +0.166 C 
ATOM      3  S   UNL     1      -1.473   2.339   0.259  0.00  0.00    -0.069 S 
ATOM      4  C   UNL     1      -0.009   1.365   0.094  0.00  0.00    +0.210 A 
ATOM      5  N   UNL     1       1.215   1.778  -0.096  0.00  0.00    -0.121 NA
ATOM      6  N   UNL     1       2.011   0.767  -0.150  0.00  0.00    -0.127 NA
ATOM      7  C   UNL     1       1.332  -0.349  -0.000  0.00  0.00    +0.182 A 
ATOM      8  N   UNL     1       0.012   0.000   0.155  0.00  0.00    -0.221 N 
ATOM      9  N   UNL     1      -1.050  -0.829   0.322  0.00  0.00    -0.272 N 
ATOM     10  H   UNL     1      -0.784  -1.660   0.829  0.00  0.00    +0.167 HD
ENDROOT
BRANCH   1  15
ATOM     11  C   UNL     1      -6.496  -4.025   1.444  0.00  0.00    +0.044 C 
ATOM     12  C   UNL     1      -5.377  -3.024   1.314  0.00  0.00    -0.050 A 
ATOM     13  C   UNL     1      -5.133  -2.123   2.334  0.00  0.00    +0.004 A 
ATOM     14  C   UNL     1      -4.107  -1.204   2.214  0.00  0.00    +0.006 A 
ATOM     15  C   UNL     1      -3.326  -1.186   1.074  0.00  0.00    -0.024 A 
ATOM     16  C   UNL     1      -3.573  -2.083   0.052  0.00  0.00    +0.006 A 
ATOM     17  C   UNL     1      -4.595  -3.005   0.174  0.00  0.00    +0.004 A 
ENDBRANCH   1  15
BRANCH   7  18
ATOM     18  C   UNL     1       1.884  -1.720   0.001  0.00  0.00    +0.021 A 
ATOM     19  C   UNL     1       1.042  -2.815  -0.199  0.00  0.00    +0.011 A 
ATOM     20  C   UNL     1       1.564  -4.092  -0.201  0.00  0.00    +0.001 A 
ATOM     21  C   UNL     1       2.918  -4.289   0.004  0.00  0.00    +0.000 A 
ATOM     22  C   UNL     1       3.758  -3.208   0.208  0.00  0.00    +0.001 A 
ATOM     23  C   UNL     1       3.249  -1.926   0.208  0.00  0.00    +0.011 A 
ENDBRANCH   7  18
BRANCH   2  24
ATOM     24  C   UNL     1      -2.781   0.574  -1.356  0.00  0.00    +0.229 C 
ATOM     25  O   UNL     1      -2.039  -0.283  -1.787  0.00  0.00    -0.275 OA
ATOM     26  N   UNL     1      -3.690   1.149  -2.168  0.00  0.00    -0.310 N 
ATOM     27  H   UNL     1      -4.284   1.835  -1.823  0.00  0.00    +0.149 HD
BRANCH  26  28
ATOM     28  C   UNL     1      -3.782   0.740  -3.571  0.00  0.00    +0.139 C 
BRANCH  28  29
ATOM     29  C   UNL     1      -4.868   1.529  -4.256  0.00  0.00    -0.030 A 
ATOM     30  C   UNL     1      -6.164   1.047  -4.277  0.00  0.00    +0.005 A 
ATOM     31  C   UNL     1      -7.161   1.773  -4.900  0.00  0.00    +0.000 A 
ATOM     32  C   UNL     1      -6.861   2.976  -5.511  0.00  0.00    +0.000 A 
ATOM     33  C   UNL     1      -5.565   3.455  -5.495  0.00  0.00    +0.000 A 
ATOM     34  C   UNL     1      -4.568   2.732  -4.867  0.00  0.00    +0.005 A 
ENDBRANCH  28  29
ENDBRANCH  26  28
ENDBRANCH   2  24
TORSDOF 5
