REMARK  Name = ZINC12371972
REMARK  6 active torsions:
REMARK  status: ('A' for Active; 'I' for Inactive)
REMARK    1  A    between atoms: C_1  and  N_2
REMARK    2  A    between atoms: C_11  and  C_25
REMARK    3  A    between atoms: C_13  and  C_21
REMARK    4  A    between atoms: C_13  and  C_23
REMARK    5  A    between atoms: C_14  and  N_20
REMARK    6  A    between atoms: C_15  and  C_18
REMARK                            x       y       z     vdW  Elec       q    Type
REMARK                         _______ _______ _______ _____ _____    ______ ____
ROOT
ATOM      1  C   UNL     1      -5.737   3.228  -2.219  0.00  0.00    +0.105 C 
ATOM      2  N   UNL     1      -6.037   3.629  -0.864  0.00  0.00    -0.295 NA
ATOM      3  C   UNL     1      -6.479   2.529   0.028  0.00  0.00    +0.080 C 
ATOM      4  C   UNL     1      -6.480   3.172   1.437  0.00  0.00    +0.024 C 
ATOM      5  C   UNL     1      -5.690   4.492   1.276  0.00  0.00    +0.021 C 
ATOM      6  C   UNL     1      -4.963   4.284  -0.096  0.00  0.00    +0.065 C 
ATOM      7  C   UNL     1      -3.796   3.363   0.216  0.00  0.00    +0.048 C 
ATOM      8  C   UNL     1      -2.494   3.735  -0.463  0.00  0.00    +0.072 C 
ATOM      9  C   UNL     1      -1.351   2.857   0.049  0.00  0.00    +0.188 C 
ATOM     10  C   UNL     1      -1.714   1.406   0.063  0.00  0.00    +0.054 C 
ATOM     11  C   UNL     1      -2.993   0.941   0.047  0.00  0.00    +0.074 C 
ATOM     12  C   UNL     1      -4.115   1.904   0.060  0.00  0.00    -0.026 C 
ATOM     13  C   UNL     1      -5.372   1.492  -0.029  0.00  0.00    -0.003 C 
ENDROOT
BRANCH   8  14
ATOM     14  C   UNL     1      -2.572   3.603  -1.962  0.00  0.00    +0.013 A 
ATOM     15  C   UNL     1      -2.480   2.354  -2.553  0.00  0.00    +0.128 A 
ATOM     16  C   UNL     1      -2.557   2.233  -3.930  0.00  0.00    +0.039 A 
ATOM     17  C   UNL     1      -2.715   3.360  -4.715  0.00  0.00    +0.004 A 
ATOM     18  C   UNL     1      -2.800   4.607  -4.126  0.00  0.00    +0.020 A 
ATOM     19  C   UNL     1      -2.729   4.729  -2.749  0.00  0.00    +0.047 A 
ATOM     20 CL   UNL     1      -2.838   6.296  -2.010  0.00  0.00    -0.083 Cl
ATOM     21  F   UNL     1      -2.320   1.254  -1.785  0.00  0.00    -0.205 F 
ENDBRANCH   8  14
BRANCH  10  22
ATOM     22  N   UNL     1      -0.700   0.489   0.085  0.00  0.00    -0.358 N 
ATOM     23  H   UNL     1      -0.930  -0.586   0.096  0.00  0.00    +0.142 HD
ATOM     24  H   UNL     1       0.347   0.828   0.091  0.00  0.00    +0.142 HD
ENDBRANCH  10  22
BRANCH  11  25
ATOM     25  C   UNL     1      -3.218  -0.475   0.033  0.00  0.00    +0.101 C 
ATOM     26  N   UNL     1      -3.397  -1.597   0.021  0.00  0.00    -0.191 NA
ENDBRANCH  11  25
BRANCH   9  27
ATOM     27  C   UNL     1      -0.962   3.281   1.401  0.00  0.00    +0.091 C 
ATOM     28  N   UNL     1      -0.661   3.609   2.446  0.00  0.00    -0.194 NA
ENDBRANCH   9  27
BRANCH   9  29
ATOM     29  C   UNL     1      -0.188   3.041  -0.846  0.00  0.00    +0.091 C 
ATOM     30  N   UNL     1       0.706   3.182  -1.533  0.00  0.00    -0.194 NA
ENDBRANCH   9  29
TORSDOF 5
