REMARK  Name = ZINC63385565
REMARK  11 active torsions:
REMARK  status: ('A' for Active; 'I' for Inactive)
REMARK    1  A    between atoms: C_1  and  C_2
REMARK    2  A    between atoms: C_7  and  O_12
REMARK    3  A    between atoms: C_9  and  O_10
REMARK    4  A    between atoms: O_10  and  C_11
REMARK    5  A    between atoms: O_12  and  C_13
REMARK    6  A    between atoms: C_17  and  C_19
REMARK    7  A    between atoms: C_19  and  C_20
REMARK    8  A    between atoms: N_22  and  C_23
REMARK    9  A    between atoms: C_23  and  C_25
REMARK   10  A    between atoms: C_23  and  C_26
REMARK   11  A    between atoms: C_26  and  C_27
REMARK                            x       y       z     vdW  Elec       q    Type
REMARK                         _______ _______ _______ _____ _____    ______ ____
ROOT
ATOM      1  C   UNL     1       0.505   0.275   2.441  0.00  0.00    +0.111 C 
ENDROOT
BRANCH   1  13
ATOM      2  C   UNL     1      -0.019   1.526   0.010  0.00  0.00    +0.013 C 
ATOM      3  C   UNL     1       0.002  -0.004   0.002  0.00  0.00    +0.037 C 
ATOM      4  C   UNL     1      -1.407  -0.525   0.133  0.00  0.00    +0.040 A 
ATOM      5  C   UNL     1      -1.708  -1.629   0.909  0.00  0.00    +0.142 A 
ATOM      6  C   UNL     1      -3.020  -2.082   0.992  0.00  0.00    +0.092 A 
ATOM      7  C   UNL     1      -4.030  -1.427   0.306  0.00  0.00    +0.127 A 
ATOM      8  C   UNL     1      -3.730  -0.316  -0.468  0.00  0.00    +0.091 A 
ATOM      9  C   UNL     1      -2.422   0.133  -0.554  0.00  0.00    +0.130 A 
ATOM     10  O   UNL     1      -0.752  -2.292   1.616  0.00  0.00    -0.425 OA
ATOM     11  C   UNL     1       0.535  -1.976   1.370  0.00  0.00    +0.317 C 
ATOM     12  O   UNL     1       1.394  -2.824   1.312  0.00  0.00    -0.250 OA
ATOM     13  C   UNL     1       0.852  -0.508   1.172  0.00  0.00    +0.114 C 
BRANCH   9  14
ATOM     14  O   UNL     1      -2.130   1.221  -1.314  0.00  0.00    -0.495 OA
ATOM     15  C   UNL     1      -3.218   1.850  -1.993  0.00  0.00    +0.277 C 
ENDBRANCH   9  14
BRANCH   7  16
ATOM     16  O   UNL     1      -5.311  -1.872   0.390  0.00  0.00    -0.495 OA
ATOM     17  C   UNL     1      -6.299  -1.148  -0.345  0.00  0.00    +0.277 C 
ENDBRANCH   7  16
ENDBRANCH   1  13
BRANCH   1  18
ATOM     18  C   UNL     1       1.430  -0.141   3.556  0.00  0.00    +0.214 C 
ATOM     19  O   UNL     1       2.282  -0.981   3.356  0.00  0.00    -0.276 OA
ATOM     20  N   UNL     1       1.309   0.420   4.775  0.00  0.00    -0.312 N 
ATOM     21  H   UNL     1       0.628   1.091   4.935  0.00  0.00    +0.149 HD
BRANCH  20  22
ATOM     22  C   UNL     1       2.208   0.016   5.860  0.00  0.00    +0.074 C 
ATOM     23  C   UNL     1       3.504   0.825   5.777  0.00  0.00    +0.028 C 
BRANCH  22  24
ATOM     24  C   UNL     1       1.530   0.275   7.207  0.00  0.00    +0.055 C 
BRANCH  24  25
ATOM     25  C   UNL     1       0.320  -0.614   7.339  0.00  0.00    -0.040 C 
ATOM     26  C   UNL     1       0.258  -1.817   7.954  0.00  0.00    -0.001 A 
ATOM     27  C   UNL     1       1.261  -2.628   8.655  0.00  0.00    +0.010 A 
ATOM     28  C   UNL     1       0.891  -3.819   9.178  0.00  0.00    +0.001 A 
ATOM     29  C   UNL     1      -0.421  -4.298   9.068  0.00  0.00    +0.002 A 
ATOM     30  C   UNL     1      -1.398  -3.610   8.438  0.00  0.00    +0.026 A 
ATOM     31  C   UNL     1      -1.121  -2.344   7.851  0.00  0.00    +0.043 A 
ATOM     32  N   UNL     1      -1.883  -1.500   7.198  0.00  0.00    -0.380 N 
ATOM     33  C   UNL     1      -1.072  -0.338   6.818  0.00  0.00    +0.144 C 
ATOM     34  H   UNL     1      -2.825  -1.622   7.003  0.00  0.00    +0.160 HD
ENDBRANCH  24  25
ENDBRANCH  22  24
ENDBRANCH  20  22
ENDBRANCH   1  18
TORSDOF 7
