REMARK  Name = ZINC20588196
REMARK  5 active torsions:
REMARK  status: ('A' for Active; 'I' for Inactive)
REMARK    1  A    between atoms: C_1  and  C_2
REMARK    2  A    between atoms: C_2  and  C_3
REMARK    3  A    between atoms: C_2  and  C_4
REMARK    4  A    between atoms: C_2  and  C_10
REMARK    5  A    between atoms: N_14  and  N_15
REMARK                            x       y       z     vdW  Elec       q    Type
REMARK                         _______ _______ _______ _____ _____    ______ ____
ROOT
ATOM      1  C   UNL     1       2.043   0.604   0.309  0.00  0.00    +0.159 A 
ATOM      2  N   UNL     1       1.120   0.368  -0.581  0.00  0.00    -0.156 NA
ATOM      3  N   UNL     1      -0.045   0.524  -0.061  0.00  0.00    -0.253 N 
ATOM      4  C   UNL     1       0.073   0.870   1.200  0.00  0.00    +0.193 A 
ATOM      5  N   UNL     1       1.409   0.931   1.476  0.00  0.00    -0.228 N 
ATOM      6  S   UNL     1      -1.245   1.193   2.325  0.00  0.00    -0.010 S 
ATOM      7  H   UNL     1      -0.946   0.365  -0.672  0.00  0.00    +0.191 HD
ENDROOT
BRANCH   1   9
ATOM      8  C   UNL     1       4.154  -0.390   1.146  0.00  0.00    +0.024 C 
ATOM      9  C   UNL     1       3.532   0.528   0.093  0.00  0.00    +0.051 C 
ATOM     10  C   UNL     1       3.817  -0.030  -1.303  0.00  0.00    +0.024 C 
BRANCH   9  11
ATOM     11  C   UNL     1       4.128   1.907   0.214  0.00  0.00    -0.034 A 
ATOM     12  C   UNL     1       3.302   3.008   0.348  0.00  0.00    +0.004 A 
ATOM     13  C   UNL     1       3.848   4.272   0.464  0.00  0.00    +0.000 A 
ATOM     14  C   UNL     1       5.220   4.437   0.435  0.00  0.00    +0.000 A 
ATOM     15  C   UNL     1       6.046   3.337   0.296  0.00  0.00    +0.000 A 
ATOM     16  C   UNL     1       5.500   2.072   0.185  0.00  0.00    +0.004 A 
ENDBRANCH   9  11
ENDBRANCH   1   9
BRANCH   5  17
ATOM     17  N   UNL     1       1.991   1.253   2.668  0.00  0.00    -0.295 N 
ATOM     18  H   UNL     1       1.364   1.499   3.538  0.00  0.00    +0.163 HD
ATOM     19  H   UNL     1       3.087   1.266   2.760  0.00  0.00    +0.163 HD
ENDBRANCH   5  17
TORSDOF 3
