REMARK  Name = ZINC16501341
REMARK  11 active torsions:
REMARK  status: ('A' for Active; 'I' for Inactive)
REMARK    1  A    between atoms: C_1  and  C_2
REMARK    2  A    between atoms: C_2  and  C_3
REMARK    3  A    between atoms: C_3  and  C_5
REMARK    4  A    between atoms: C_3  and  N_6
REMARK    5  A    between atoms: N_6  and  C_7
REMARK    6  A    between atoms: C_7  and  C_8
REMARK    7  A    between atoms: C_18  and  C_20
REMARK    8  A    between atoms: C_23  and  C_26
REMARK    9  A    between atoms: C_27  and  C_29
REMARK   10  A    between atoms: C_30  and  C_31
REMARK   11  A    between atoms: C_34  and  N_37
REMARK                            x       y       z     vdW  Elec       q    Type
REMARK                         _______ _______ _______ _____ _____    ______ ____
ROOT
ATOM      1  C   UNL     1      -5.209   2.345   3.088  0.00  0.00    +0.204 C 
ENDROOT
BRANCH   1   2
ATOM      2  C   UNL     1      -4.366   2.966   2.004  0.00  0.00    +0.234 C 
ATOM      3  O   UNL     1      -3.916   4.083   2.150  0.00  0.00    -0.274 OA
ATOM      4  N   UNL     1      -4.112   2.280   0.872  0.00  0.00    -0.289 N 
ATOM      5  C   UNL     1      -4.653   0.926   0.684  0.00  0.00    +0.114 C 
ATOM      6  C   UNL     1      -5.646   0.962  -0.488  0.00  0.00    +0.062 C 
ATOM      7  C   UNL     1      -5.057   1.781  -1.590  0.00  0.00    -0.003 A 
ATOM      8  C   UNL     1      -4.013   2.652  -1.519  0.00  0.00    -0.012 A 
ATOM      9  C   UNL     1      -3.659   3.301  -2.700  0.00  0.00    +0.013 A 
ATOM     10  C   UNL     1      -4.339   3.048  -3.842  0.00  0.00    +0.046 A 
ATOM     11  S   UNL     1      -5.548   1.853  -3.293  0.00  0.00    -0.101 S 
ATOM     12  C   UNL     1      -3.292   2.876  -0.191  0.00  0.00    +0.137 C 
BRANCH  12  13
ATOM     13  C   UNL     1      -1.940   2.210  -0.226  0.00  0.00    -0.023 A 
ATOM     14  C   UNL     1      -1.840   0.865  -0.531  0.00  0.00    +0.006 A 
ATOM     15  C   UNL     1      -0.600   0.253  -0.558  0.00  0.00    +0.004 A 
ATOM     16  C   UNL     1       0.539   0.988  -0.291  0.00  0.00    -0.050 A 
ATOM     17  C   UNL     1       0.440   2.334   0.008  0.00  0.00    +0.004 A 
ATOM     18  C   UNL     1      -0.800   2.945   0.041  0.00  0.00    +0.006 A 
ATOM     19  C   UNL     1       1.891   0.323  -0.327  0.00  0.00    +0.044 C 
ENDBRANCH  12  13
ENDBRANCH   1   2
BRANCH   1  20
ATOM     20  N   UNL     1      -5.430   3.325   4.155  0.00  0.00    -0.286 N 
ATOM     21  C   UNL     1      -6.542   4.086   4.151  0.00  0.00    +0.240 C 
ATOM     22  O   UNL     1      -7.315   4.029   3.213  0.00  0.00    -0.271 OA
BRANCH  20  23
ATOM     23  C   UNL     1      -4.443   3.476   5.227  0.00  0.00    +0.074 C 
ATOM     24  C   UNL     1      -3.964   4.928   5.278  0.00  0.00    +0.028 C 
BRANCH  23  26
ATOM     25  C   UNL     1      -5.408   1.607   6.576  0.00  0.00    +0.005 C 
ATOM     26  C   UNL     1      -5.082   3.102   6.566  0.00  0.00    +0.019 C 
ENDBRANCH  23  26
ENDBRANCH  20  23
BRANCH  21  27
ATOM     27  C   UNL     1      -6.820   4.981   5.276  0.00  0.00    +0.068 C 
ATOM     28  C   UNL     1      -7.965   5.693   5.304  0.00  0.00    +0.013 C 
BRANCH  28  29
ATOM     29  C   UNL     1      -8.245   6.593   6.435  0.00  0.00    -0.025 A 
ATOM     30  C   UNL     1      -7.328   6.709   7.484  0.00  0.00    +0.010 A 
ATOM     31  C   UNL     1      -7.595   7.558   8.538  0.00  0.00    +0.033 A 
ATOM     32  C   UNL     1      -8.772   8.286   8.563  0.00  0.00    +0.126 A 
ATOM     33  C   UNL     1      -9.686   8.173   7.530  0.00  0.00    +0.033 A 
ATOM     34  C   UNL     1      -9.431   7.332   6.467  0.00  0.00    +0.010 A 
BRANCH  32  35
ATOM     35  N   UNL     1      -9.053   9.191   9.700  0.00  0.00    +0.056 N 
ATOM     36  O   UNL     1     -10.088   9.833   9.726  0.00  0.00    -0.126 OA
ATOM     37  O   UNL     1      -8.251   9.293  10.611  0.00  0.00    -0.126 OA
ENDBRANCH  32  35
ENDBRANCH  28  29
ENDBRANCH  21  27
ENDBRANCH   1  20
TORSDOF 8
