REMARK  Name = ZINC32106814
REMARK  7 active torsions:
REMARK  status: ('A' for Active; 'I' for Inactive)
REMARK    1  A    between atoms: C_1  and  C_2
REMARK    2  A    between atoms: C_2  and  N_3
REMARK    3  A    between atoms: N_3  and  N_4
REMARK    4  A    between atoms: C_5  and  C_7
REMARK    5  A    between atoms: C_12  and  O_13
REMARK    6  A    between atoms: C_15  and  C_16
REMARK    7  A    between atoms: N_18  and  C_19
REMARK                            x       y       z     vdW  Elec       q    Type
REMARK                         _______ _______ _______ _____ _____    ______ ____
ROOT
ATOM      1  N   UNL     1       5.875   0.780   1.569  0.00  0.00    -0.268 N 
ATOM      2  H   UNL     1       6.304   1.672   1.090  0.00  0.00    +0.170 HD
ENDROOT
BRANCH   1   3
ATOM      3  N   UNL     1       6.695  -0.078   2.314  0.00  0.00    -0.233 N 
ATOM      4  C   UNL     1       8.009   0.191   2.444  0.00  0.00    +0.264 C 
ATOM      5  O   UNL     1       8.483   1.178   1.915  0.00  0.00    -0.269 OA
ATOM      6  H   UNL     1       6.266  -0.970   2.793  0.00  0.00    +0.173 HD
BRANCH   4   7
ATOM      7  C   UNL     1       8.872  -0.712   3.229  0.00  0.00    +0.081 A 
ATOM      8  C   UNL     1       8.330  -1.843   3.844  0.00  0.00    +0.036 A 
ATOM      9  C   UNL     1       9.144  -2.686   4.572  0.00  0.00    +0.042 A 
ATOM     10  C   UNL     1      10.495  -2.409   4.706  0.00  0.00    +0.023 A 
ATOM     11  C   UNL     1      11.042  -1.291   4.107  0.00  0.00    +0.047 A 
ATOM     12  C   UNL     1      10.239  -0.436   3.367  0.00  0.00    +0.129 A 
ATOM     13 CL   UNL     1       8.471  -4.095   5.330  0.00  0.00    -0.084 Cl
BRANCH  12  14
ATOM     14  O   UNL     1      10.776   0.663   2.779  0.00  0.00    -0.506 OA
ATOM     15  H   UNL     1      11.849   0.877   2.889  0.00  0.00    +0.292 HD
ENDBRANCH  12  14
ENDBRANCH   4   7
ENDBRANCH   1   3
BRANCH   1  17
ATOM     16  C   UNL     1       4.039  -0.698   2.101  0.00  0.00    +0.062 C 
ATOM     17  C   UNL     1       4.627   0.525   1.445  0.00  0.00    +0.024 C 
ATOM     18  C   UNL     1       3.745   1.447   0.644  0.00  0.00    +0.087 C 
BRANCH  18  19
ATOM     19  C   UNL     1       2.331   0.926   0.654  0.00  0.00    +0.239 C 
ATOM     20  O   UNL     1       2.066  -0.095   1.254  0.00  0.00    -0.271 OA
ATOM     21  N   UNL     1       1.362   1.593  -0.002  0.00  0.00    -0.309 N 
ATOM     22  H   UNL     1       1.602   2.518  -0.546  0.00  0.00    +0.149 HD
BRANCH  21  23
ATOM     23  C   UNL     1      -0.013   1.086   0.008  0.00  0.00    +0.073 C 
ATOM     24  C   UNL     1      -0.729   1.579   1.267  0.00  0.00    +0.022 C 
ATOM     25  C   UNL     1      -2.164   1.050   1.278  0.00  0.00    +0.002 C 
ATOM     26  C   UNL     1      -2.904   1.556   0.038  0.00  0.00    +0.000 C 
ATOM     27  C   UNL     1      -2.188   1.063  -1.221  0.00  0.00    +0.002 C 
ATOM     28  C   UNL     1      -0.753   1.593  -1.232  0.00  0.00    +0.022 C 
ENDBRANCH  21  23
ENDBRANCH  18  19
ENDBRANCH   1  17
TORSDOF 6
