REMARK  Name = ZINC16020276
REMARK  3 active torsions:
REMARK  status: ('A' for Active; 'I' for Inactive)
REMARK    1  A    between atoms: C_8  and  C_26
REMARK    2  A    between atoms: C_26  and  C_28
REMARK    3  A    between atoms: C_32  and  N_34
REMARK                            x       y       z     vdW  Elec       q    Type
REMARK                         _______ _______ _______ _____ _____    ______ ____
ROOT
ATOM      1  C   UNL     1      -4.123   3.895  -2.853  0.00  0.00    +0.000 A 
ATOM      2  C   UNL     1      -4.093   3.188  -4.040  0.00  0.00    +0.002 A 
ATOM      3  C   UNL     1      -3.532   1.929  -4.084  0.00  0.00    +0.023 A 
ATOM      4  C   UNL     1      -3.000   1.357  -2.929  0.00  0.00    +0.038 A 
ATOM      5  C   UNL     1      -3.070   2.062  -1.733  0.00  0.00    -0.011 A 
ATOM      6  C   UNL     1      -3.601   3.331  -1.702  0.00  0.00    +0.006 A 
ATOM      7  C   UNL     1      -2.444   1.172  -0.686  0.00  0.00    +0.085 C 
ATOM      8  C   UNL     1      -1.324   1.941   0.019  0.00  0.00    +0.066 C 
ATOM      9  C   UNL     1      -1.812   2.168   1.457  0.00  0.00    -0.055 C 
ATOM     10  C   UNL     1      -1.853   3.671   1.776  0.00  0.00    -0.016 C 
ATOM     11  C   UNL     1      -3.284   3.916   2.310  0.00  0.00    -0.020 C 
ATOM     12  C   UNL     1      -4.103   2.814   1.589  0.00  0.00    -0.076 C 
ATOM     13  C   UNL     1      -3.438   0.781   0.405  0.00  0.00    +0.060 C 
ATOM     14  C   UNL     1      -3.247  -0.659   0.825  0.00  0.00    -0.024 A 
ATOM     15  C   UNL     1      -2.208  -1.335   1.426  0.00  0.00    +0.043 A 
ATOM     16  C   UNL     1      -2.322  -2.691   1.688  0.00  0.00    +0.124 A 
ATOM     17  C   UNL     1      -3.488  -3.360   1.354  0.00  0.00    +0.040 A 
ATOM     18  C   UNL     1      -4.536  -2.681   0.768  0.00  0.00    +0.026 A 
ATOM     19  C   UNL     1      -4.429  -1.316   0.508  0.00  0.00    +0.036 A 
ATOM     20  N   UNL     1      -5.342  -0.419  -0.049  0.00  0.00    -0.286 N 
ATOM     21  C   UNL     1      -4.856   0.839  -0.089  0.00  0.00    +0.212 C 
ATOM     22  O   UNL     1      -5.477   1.811  -0.467  0.00  0.00    -0.277 OA
ATOM     23  F   UNL     1      -1.301  -3.356   2.271  0.00  0.00    -0.205 F 
ATOM     24  C   UNL     1      -1.973  -0.033  -1.447  0.00  0.00    +0.228 C 
ATOM     25  O   UNL     1      -1.385  -1.011  -1.031  0.00  0.00    -0.275 OA
ATOM     26  N   UNL     1      -2.360   0.135  -2.729  0.00  0.00    -0.285 N 
ATOM     27  H   UNL     1      -6.225  -0.667  -0.362  0.00  0.00    +0.155 HD
ATOM     28  H   UNL     1      -2.208  -0.521  -3.427  0.00  0.00    +0.155 HD
ATOM     29  N   UNL     1      -3.171   1.661   1.564  0.00  0.00    +0.395 N 
ATOM     30  H   UNL     1      -3.276   1.122   2.431  0.00  0.00    -0.079 HD
ENDROOT
BRANCH   8  31
ATOM     31  C   UNL     1      -0.014   1.208   0.009  0.00  0.00    +0.166 C 
ATOM     32  O   UNL     1       0.278   0.477   0.930  0.00  0.00    -0.292 OA
BRANCH  31  33
ATOM     33  C   UNL     1       0.912   1.373  -1.123  0.00  0.00    +0.020 A 
ATOM     34  C   UNL     1       0.578   2.216  -2.188  0.00  0.00    +0.011 A 
ATOM     35  C   UNL     1       1.451   2.365  -3.244  0.00  0.00    +0.003 A 
ATOM     36  C   UNL     1       2.656   1.684  -3.252  0.00  0.00    +0.033 A 
ATOM     37  C   UNL     1       2.994   0.848  -2.202  0.00  0.00    +0.127 A 
ATOM     38  C   UNL     1       2.133   0.692  -1.136  0.00  0.00    +0.044 A 
BRANCH  37  39
ATOM     39  N   UNL     1       4.285   0.124  -2.221  0.00  0.00    +0.056 N 
ATOM     40  O   UNL     1       5.048   0.265  -3.159  0.00  0.00    -0.126 OA
ATOM     41  O   UNL     1       4.583  -0.612  -1.298  0.00  0.00    -0.126 OA
ENDBRANCH  37  39
ENDBRANCH  31  33
ENDBRANCH   8  31
TORSDOF 3
