REMARK  Name = ZINC01098054
REMARK  10 active torsions:
REMARK  status: ('A' for Active; 'I' for Inactive)
REMARK    1  A    between atoms: C_1  and  C_2
REMARK    2  A    between atoms: C_2  and  O_3
REMARK    3  A    between atoms: O_3  and  C_4
REMARK    4  A    between atoms: C_4  and  C_6
REMARK    5  A    between atoms: C_7  and  C_34
REMARK    6  A    between atoms: N_8  and  C_33
REMARK    7  A    between atoms: C_12  and  O_15
REMARK    8  A    between atoms: O_15  and  C_16
REMARK    9  A    between atoms: N_18  and  C_19
REMARK   10  A    between atoms: C_19  and  C_29
REMARK                            x       y       z     vdW  Elec       q    Type
REMARK                         _______ _______ _______ _____ _____    ______ ____
ROOT
ATOM      1  C   UNL     1       1.651  -2.363  -3.389  0.00  0.00    +0.411 C 
ATOM      2  O   UNL     1       0.442  -2.287  -3.486  0.00  0.00    -0.226 OA
ATOM      3  N   UNL     1       2.207  -3.324  -2.625  0.00  0.00    -0.201 N 
ATOM      4  H   UNL     1       3.172  -3.385  -2.548  0.00  0.00    +0.160 HD
ENDROOT
BRANCH   3   5
ATOM      5  C   UNL     1       1.353  -4.277  -1.911  0.00  0.00    +0.437 C 
ATOM      6  O   UNL     1       0.458  -4.941  -2.822  0.00  0.00    -0.426 OA
ATOM      7  C   UNL     1      -0.677  -4.182  -2.835  0.00  0.00    +0.169 A 
ATOM      8  C   UNL     1      -1.738  -4.131  -3.725  0.00  0.00    +0.051 A 
ATOM      9  C   UNL     1      -2.785  -3.256  -3.504  0.00  0.00    +0.024 A 
ATOM     10  C   UNL     1      -2.777  -2.429  -2.395  0.00  0.00    +0.045 A 
ATOM     11  C   UNL     1      -1.721  -2.475  -1.502  0.00  0.00    +0.069 A 
ATOM     12  C   UNL     1      -0.669  -3.349  -1.718  0.00  0.00    +0.170 A 
ATOM     13  O   UNL     1       0.471  -3.587  -1.006  0.00  0.00    -0.426 OA
ATOM     14 CL   UNL     1      -4.094  -1.331  -2.124  0.00  0.00    -0.083 Cl
BRANCH   5  15
ATOM     15  C   UNL     1       2.206  -5.298  -1.155  0.00  0.00    +0.491 C 
ATOM     16  F   UNL     1       1.371  -6.224  -0.520  0.00  0.00    -0.162 F 
ATOM     17  F   UNL     1       3.042  -5.966  -2.057  0.00  0.00    -0.162 F 
ATOM     18  F   UNL     1       2.985  -4.639  -0.198  0.00  0.00    -0.162 F 
ENDBRANCH   5  15
ENDBRANCH   3   5
BRANCH   1  19
ATOM     19  O   UNL     1       2.435  -1.487  -4.046  0.00  0.00    -0.411 OA
BRANCH  19  26
ATOM     20  C   UNL     1       1.051   0.179  -8.557  0.00  0.00    +0.087 A 
ATOM     21  C   UNL     1       0.317   1.305  -8.795  0.00  0.00    +0.030 A 
ATOM     22  N   UNL     1       0.015   1.912  -7.624  0.00  0.00    -0.346 N 
ATOM     23  C   UNL     1       0.543   1.202  -6.563  0.00  0.00    +0.050 A 
ATOM     24  C   UNL     1       1.213   0.089  -7.094  0.00  0.00    +0.018 A 
ATOM     25  C   UNL     1       1.849  -0.815  -6.246  0.00  0.00    +0.057 A 
ATOM     26  C   UNL     1       1.816  -0.609  -4.879  0.00  0.00    +0.134 A 
ATOM     27  C   UNL     1       1.146   0.492  -4.354  0.00  0.00    +0.048 A 
ATOM     28  C   UNL     1       0.519   1.394  -5.185  0.00  0.00    +0.030 A 
ATOM     29  C   UNL     1      -0.763   3.147  -7.498  0.00  0.00    +0.149 C 
ATOM     30  C   UNL     1      -0.094   1.799 -10.159  0.00  0.00    +0.064 C 
BRANCH  20  31
ATOM     31  C   UNL     1       1.575  -0.757  -9.558  0.00  0.00    +0.341 C 
ATOM     32  O   UNL     1       0.905  -1.709  -9.909  0.00  0.00    -0.245 OA
BRANCH  31  33
ATOM     33  O   UNL     1       2.799  -0.560 -10.089  0.00  0.00    -0.461 OA
BRANCH  33  35
ATOM     34  C   UNL     1       4.652  -1.141 -11.558  0.00  0.00    +0.048 C 
ATOM     35  C   UNL     1       3.252  -1.526 -11.074  0.00  0.00    +0.229 C 
ENDBRANCH  33  35
ENDBRANCH  31  33
ENDBRANCH  20  31
ENDBRANCH  19  26
ENDBRANCH   1  19
TORSDOF 7
