REMARK  Name = ZINC02586457
REMARK  10 active torsions:
REMARK  status: ('A' for Active; 'I' for Inactive)
REMARK    1  A    between atoms: C_2  and  C_3
REMARK    2  A    between atoms: C_3  and  N_4
REMARK    3  A    between atoms: C_5  and  C_24
REMARK    4  A    between atoms: C_8  and  S_9
REMARK    5  A    between atoms: S_9  and  C_10
REMARK    6  A    between atoms: C_10  and  C_11
REMARK    7  A    between atoms: N_13  and  C_14
REMARK    8  A    between atoms: C_17  and  S_20
REMARK    9  A    between atoms: S_20  and  N_23
REMARK   10  A    between atoms: C_24  and  C_25
REMARK                            x       y       z     vdW  Elec       q    Type
REMARK                         _______ _______ _______ _____ _____    ______ ____
ROOT
ATOM      1  S   UNL     1       1.769  -2.114  -0.024  0.00  0.00    -0.077 S 
ENDROOT
BRANCH   1   6
ATOM      2  N   UNL     1       2.047   0.670   0.001  0.00  0.00    -0.302 N 
ATOM      3  C   UNL     1       1.202   1.745   0.024  0.00  0.00    +0.140 A 
ATOM      4  N   UNL     1      -0.016   1.281   0.038  0.00  0.00    -0.133 NA
ATOM      5  N   UNL     1       0.002  -0.004   0.024  0.00  0.00    -0.122 NA
ATOM      6  C   UNL     1       1.242  -0.433   0.001  0.00  0.00    +0.192 A 
BRANCH   2   7
ATOM      7  C   UNL     1       3.511   0.697  -0.021  0.00  0.00    +0.152 C 
BRANCH   7   9
ATOM      8  C   UNL     1       4.801   1.668  -1.853  0.00  0.00    +0.005 C 
ATOM      9  C   UNL     1       3.992   0.720  -1.449  0.00  0.00    -0.013 C 
ENDBRANCH   7   9
ENDBRANCH   2   7
BRANCH   3  10
ATOM     10  C   UNL     1       1.604   3.197   0.033  0.00  0.00    +0.132 C 
BRANCH  10  11
ATOM     11  C   UNL     1       1.760   3.667   1.456  0.00  0.00    +0.058 A 
ATOM     12  C   UNL     1       2.917   4.233   1.876  0.00  0.00    +0.072 A 
ATOM     13  S   UNL     1       2.519   4.574   3.584  0.00  0.00    -0.061 S 
ATOM     14  C   UNL     1       0.902   3.940   3.572  0.00  0.00    +0.156 A 
ATOM     15  N   UNL     1       0.774   3.532   2.324  0.00  0.00    -0.230 NA
ATOM     16  N   UNL     1      -0.017   3.879   4.607  0.00  0.00    -0.338 N 
ATOM     17  H   UNL     1      -0.894   3.493   4.455  0.00  0.00    +0.144 HD
ATOM     18  H   UNL     1       0.216   4.222   5.484  0.00  0.00    +0.144 HD
ENDBRANCH  10  11
ENDBRANCH   3  10
ENDBRANCH   1   6
BRANCH   1  19
ATOM     19  C   UNL     1       0.163  -2.947  -0.008  0.00  0.00    +0.173 C 
BRANCH  19  20
ATOM     20  C   UNL     1       0.371  -4.440  -0.026  0.00  0.00    +0.227 C 
ATOM     21  O   UNL     1       1.495  -4.895  -0.048  0.00  0.00    -0.275 OA
ATOM     22  N   UNL     1      -0.692  -5.269  -0.019  0.00  0.00    -0.285 N 
ATOM     23  H   UNL     1      -1.588  -4.907   0.066  0.00  0.00    +0.155 HD
BRANCH  22  24
ATOM     24  C   UNL     1      -0.503  -6.650  -0.134  0.00  0.00    +0.034 A 
ATOM     25  C   UNL     1      -1.428  -7.425  -0.821  0.00  0.00    +0.025 A 
ATOM     26  C   UNL     1      -1.235  -8.787  -0.938  0.00  0.00    +0.030 A 
ATOM     27  C   UNL     1      -0.128  -9.382  -0.360  0.00  0.00    +0.105 A 
ATOM     28  C   UNL     1       0.792  -8.615   0.330  0.00  0.00    +0.030 A 
ATOM     29  C   UNL     1       0.608  -7.251   0.444  0.00  0.00    +0.025 A 
BRANCH  27  30
ATOM     30  S   UNL     1       0.111 -11.122  -0.505  0.00  0.00    +0.056 S 
ATOM     31  O   UNL     1      -0.604 -11.535  -1.662  0.00  0.00    -0.153 OA
ATOM     32  O   UNL     1       1.503 -11.356  -0.346  0.00  0.00    -0.153 OA
BRANCH  30  33
ATOM     33  N   UNL     1      -0.639 -11.829   0.791  0.00  0.00    -0.204 NA
ATOM     34  H   UNL     1      -1.009 -12.722   0.710  0.00  0.00    +0.144 HD
ATOM     35  H   UNL     1      -0.709 -11.350   1.632  0.00  0.00    +0.144 HD
ENDBRANCH  30  33
ENDBRANCH  27  30
ENDBRANCH  22  24
ENDBRANCH  19  20
ENDBRANCH   1  19
TORSDOF 10
