REMARK  Name = ZINC18616379
REMARK  7 active torsions:
REMARK  status: ('A' for Active; 'I' for Inactive)
REMARK    1  A    between atoms: C_1  and  C_2
REMARK    2  A    between atoms: C_5  and  N_9
REMARK    3  A    between atoms: C_10  and  C_12
REMARK    4  A    between atoms: C_12  and  C_14
REMARK    5  A    between atoms: C_12  and  S_15
REMARK    6  A    between atoms: S_15  and  C_16
REMARK    7  A    between atoms: N_26  and  C_27
REMARK                            x       y       z     vdW  Elec       q    Type
REMARK                         _______ _______ _______ _____ _____    ______ ____
ROOT
ATOM      1  S   UNL     1      -3.388  -2.798  -0.694  0.00  0.00    -0.075 S 
ENDROOT
BRANCH   1   2
ATOM      2  C   UNL     1      -5.043  -3.334  -0.969  0.00  0.00    +0.173 A 
ATOM      3  N   UNL     1      -6.024  -2.561  -0.574  0.00  0.00    -0.223 NA
ATOM      4  C   UNL     1      -7.314  -2.907  -0.757  0.00  0.00    +0.079 A 
ATOM      5  C   UNL     1      -8.361  -2.079  -0.340  0.00  0.00    +0.028 A 
ATOM      6  C   UNL     1      -9.655  -2.472  -0.541  0.00  0.00    +0.002 A 
ATOM      7  C   UNL     1      -9.947  -3.684  -1.154  0.00  0.00    +0.001 A 
ATOM      8  C   UNL     1      -8.945  -4.515  -1.573  0.00  0.00    +0.015 A 
ATOM      9  C   UNL     1      -7.616  -4.139  -1.381  0.00  0.00    +0.065 A 
ATOM     10  C   UNL     1      -6.499  -4.991  -1.810  0.00  0.00    +0.263 A 
ATOM     11  O   UNL     1      -6.694  -6.063  -2.352  0.00  0.00    -0.267 OA
ATOM     12  N   UNL     1      -5.244  -4.540  -1.579  0.00  0.00    -0.284 N 
BRANCH  12  13
ATOM     13  C   UNL     1      -4.093  -5.349  -1.987  0.00  0.00    +0.093 C 
ATOM     14  C   UNL     1      -4.118  -6.839  -1.639  0.00  0.00    +0.027 C 
ATOM     15  C   UNL     1      -3.184  -5.892  -0.882  0.00  0.00    +0.027 C 
ENDBRANCH  12  13
ENDBRANCH   1   2
BRANCH   1  16
ATOM     16  C   UNL     1      -3.703  -1.207   0.110  0.00  0.00    +0.137 C 
ATOM     17  C   UNL     1      -4.394  -1.443   1.454  0.00  0.00    +0.029 C 
BRANCH  16  19
ATOM     18  N   UNL     1      -2.384   0.841   0.538  0.00  0.00    -0.284 N 
ATOM     19  C   UNL     1      -2.396  -0.491   0.337  0.00  0.00    +0.230 C 
ATOM     20  O   UNL     1      -1.355  -1.114   0.337  0.00  0.00    -0.274 OA
ATOM     21  H   UNL     1      -3.219   1.328   0.616  0.00  0.00    +0.155 HD
BRANCH  18  26
ATOM     22  C   UNL     1       2.553   3.611   0.923  0.00  0.00    +0.044 C 
ATOM     23  C   UNL     1       1.242   2.874   0.824  0.00  0.00    -0.049 A 
ATOM     24  C   UNL     1       1.177   1.671   0.145  0.00  0.00    +0.005 A 
ATOM     25  C   UNL     1      -0.023   0.994   0.051  0.00  0.00    +0.024 A 
ATOM     26  C   UNL     1      -1.165   1.523   0.636  0.00  0.00    +0.047 A 
ATOM     27  C   UNL     1      -1.096   2.729   1.322  0.00  0.00    +0.039 A 
ATOM     28  C   UNL     1       0.108   3.403   1.412  0.00  0.00    +0.020 A 
ATOM     29 BR   UNL     1      -2.647   3.453   2.125  0.00  0.00    -0.048 Br
ENDBRANCH  18  26
ENDBRANCH  16  19
ENDBRANCH   1  16
TORSDOF 5
