REMARK  Name = ZINC60193208
REMARK  11 active torsions:
REMARK  status: ('A' for Active; 'I' for Inactive)
REMARK    1  A    between atoms: C_1  and  C_2
REMARK    2  A    between atoms: C_3  and  C_16
REMARK    3  A    between atoms: C_8  and  C_10
REMARK    4  A    between atoms: C_16  and  C_17
REMARK    5  A    between atoms: C_17  and  C_18
REMARK    6  A    between atoms: N_20  and  C_21
REMARK    7  A    between atoms: N_20  and  C_31
REMARK    8  A    between atoms: C_21  and  C_22
REMARK    9  A    between atoms: C_25  and  C_28
REMARK   10  A    between atoms: C_28  and  C_29
REMARK   11  A    between atoms: C_28  and  C_30
REMARK                            x       y       z     vdW  Elec       q    Type
REMARK                         _______ _______ _______ _____ _____    ______ ____
ROOT
ATOM      1  C   UNL     1      -2.912   0.309  -1.479  0.00  0.00    +0.101 C 
ENDROOT
BRANCH   1   2
ATOM      2  C   UNL     1      -4.212   1.070  -1.471  0.00  0.00    +0.216 C 
ATOM      3  O   UNL     1      -4.599   1.599  -0.450  0.00  0.00    -0.276 OA
ATOM      4  N   UNL     1      -4.946   1.163  -2.597  0.00  0.00    -0.294 N 
BRANCH   4   5
ATOM      5  C   UNL     1      -4.538   0.432  -3.800  0.00  0.00    +0.077 C 
ATOM      6  C   UNL     1      -5.343   0.671  -5.079  0.00  0.00    +0.024 C 
ATOM      7  C   UNL     1      -5.482  -0.652  -4.323  0.00  0.00    +0.024 C 
ENDBRANCH   4   5
BRANCH   4   8
ATOM      8  C   UNL     1      -6.152   1.994  -2.619  0.00  0.00    +0.143 C 
BRANCH   8   9
ATOM      9  C   UNL     1      -5.772   3.422  -2.914  0.00  0.00    -0.030 A 
ATOM     10  C   UNL     1      -5.402   4.266  -1.883  0.00  0.00    +0.005 A 
ATOM     11  C   UNL     1      -5.054   5.576  -2.154  0.00  0.00    +0.004 A 
ATOM     12  C   UNL     1      -5.075   6.042  -3.455  0.00  0.00    -0.045 A 
ATOM     13  C   UNL     1      -5.444   5.199  -4.486  0.00  0.00    +0.004 A 
ATOM     14  C   UNL     1      -5.788   3.887  -4.216  0.00  0.00    +0.005 A 
BRANCH  12  15
ATOM     15  C   UNL     1      -4.696   7.471  -3.749  0.00  0.00    +0.013 C 
ATOM     16  C   UNL     1      -3.493   7.495  -4.695  0.00  0.00    +0.012 C 
ATOM     17  C   UNL     1      -5.877   8.186  -4.408  0.00  0.00    +0.012 C 
ENDBRANCH  12  15
ENDBRANCH   8   9
ENDBRANCH   4   8
ENDBRANCH   1   2
BRANCH   1  18
ATOM     18  C   UNL     1      -2.223   0.459  -0.121  0.00  0.00    +0.051 C 
BRANCH  18  21
ATOM     19  C   UNL     1       0.248   1.803  -0.746  0.00  0.00    +0.066 C 
ATOM     20  C   UNL     1       0.249   0.331  -0.424  0.00  0.00    +0.049 A 
ATOM     21  C   UNL     1      -0.923  -0.302  -0.130  0.00  0.00    +0.038 A 
ATOM     22  C   UNL     1      -0.897  -1.679   0.167  0.00  0.00    +0.255 A 
ATOM     23  O   UNL     1      -1.925  -2.277   0.435  0.00  0.00    -0.268 OA
ATOM     24  N   UNL     1       0.290  -2.323   0.149  0.00  0.00    -0.307 N 
ATOM     25  H   UNL     1       0.332  -3.272   0.350  0.00  0.00    +0.170 HD
ATOM     26  C   UNL     1       1.427  -1.637  -0.153  0.00  0.00    +0.142 A 
ATOM     27  N   UNL     1       1.393  -0.351  -0.435  0.00  0.00    -0.234 NA
BRANCH  26  28
ATOM     28  C   UNL     1       2.722  -2.349  -0.171  0.00  0.00    +0.035 A 
ATOM     29  C   UNL     1       3.907  -1.665  -0.473  0.00  0.00    +0.014 A 
ATOM     30  C   UNL     1       5.092  -2.378  -0.476  0.00  0.00    +0.020 A 
ATOM     31  C   UNL     1       5.070  -3.731  -0.184  0.00  0.00    +0.111 A 
ATOM     32  N   UNL     1       3.939  -4.348   0.096  0.00  0.00    -0.263 NA
ATOM     33  C   UNL     1       2.786  -3.713   0.118  0.00  0.00    +0.122 A 
ENDBRANCH  26  28
ENDBRANCH  18  21
ENDBRANCH   1  18
TORSDOF 8
