REMARK  Name = ZINC38551063
REMARK  6 active torsions:
REMARK  status: ('A' for Active; 'I' for Inactive)
REMARK    1  A    between atoms: C_1  and  C_2
REMARK    2  A    between atoms: N_8  and  C_9
REMARK    3  A    between atoms: C_9  and  C_11
REMARK    4  A    between atoms: C_9  and  C_18
REMARK    5  A    between atoms: C_22  and  N_23
REMARK    6  A    between atoms: C_24  and  C_26
REMARK                            x       y       z     vdW  Elec       q    Type
REMARK                         _______ _______ _______ _____ _____    ______ ____
ROOT
ATOM      1  C   UNL     1      -0.470  -1.982   3.934  0.00  0.00    +0.136 C 
ENDROOT
BRANCH   1   9
ATOM      2  C   UNL     1      -1.804   1.731   0.664  0.00  0.00    +0.044 C 
ATOM      3  C   UNL     1      -1.234   0.343   0.526  0.00  0.00    -0.046 A 
ATOM      4  C   UNL     1      -0.954  -0.189  -0.726  0.00  0.00    +0.021 A 
ATOM      5  C   UNL     1      -0.433  -1.463  -0.819  0.00  0.00    +0.084 A 
ATOM      6  N   UNL     1      -0.199  -2.179   0.265  0.00  0.00    -0.350 N 
ATOM      7  C   UNL     1      -0.453  -1.708   1.476  0.00  0.00    +0.097 A 
ATOM      8  C   UNL     1      -0.974  -0.429   1.644  0.00  0.00    +0.045 A 
ATOM      9  N   UNL     1      -0.191  -2.497   2.591  0.00  0.00    -0.320 N 
ATOM     10  H   UNL     1       0.176  -3.388   2.479  0.00  0.00    +0.148 HD
ATOM     11  H   UNL     1       0.168  -3.072   0.172  0.00  0.00    +0.166 HD
ENDBRANCH   1   9
BRANCH   1  12
ATOM     12  C   UNL     1       0.350  -2.744   4.943  0.00  0.00    +0.009 A 
ATOM     13  C   UNL     1       1.252  -2.068   5.764  0.00  0.00    -0.030 A 
ATOM     14  C   UNL     1       1.955  -2.825   6.650  0.00  0.00    -0.005 A 
ATOM     15  S   UNL     1       1.374  -4.473   6.356  0.00  0.00    -0.078 S 
ATOM     16  C   UNL     1       0.207  -4.091   5.060  0.00  0.00    +0.078 A 
ATOM     17  C   UNL     1       2.978  -2.359   7.635  0.00  0.00    +0.043 C 
ATOM     18  C   UNL     1       3.397  -0.930   7.257  0.00  0.00    +0.005 C 
ATOM     19  C   UNL     1       2.136  -0.101   6.998  0.00  0.00    +0.005 C 
ATOM     20  C   UNL     1       1.467  -0.558   5.701  0.00  0.00    +0.036 C 
BRANCH  16  21
ATOM     21  N   UNL     1      -0.633  -4.952   4.350  0.00  0.00    -0.273 N 
ATOM     22  C   UNL     1      -0.767  -6.235   4.739  0.00  0.00    +0.284 C 
ATOM     23  O   UNL     1      -0.156  -6.644   5.709  0.00  0.00    -0.266 OA
ATOM     24  H   UNL     1      -1.119  -4.626   3.576  0.00  0.00    +0.156 HD
BRANCH  22  25
ATOM     25  C   UNL     1      -1.648  -7.139   3.993  0.00  0.00    +0.189 A 
ATOM     26  C   UNL     1      -1.879  -8.454   4.280  0.00  0.00    +0.054 A 
ATOM     27  C   UNL     1      -2.781  -8.927   3.315  0.00  0.00    +0.042 A 
ATOM     28  C   UNL     1      -3.059  -7.892   2.491  0.00  0.00    +0.196 A 
ATOM     29  O   UNL     1      -2.379  -6.816   2.905  0.00  0.00    -0.458 OA
ENDBRANCH  22  25
ENDBRANCH  16  21
ENDBRANCH   1  12
BRANCH   1  30
ATOM     30  C   UNL     1      -1.935  -2.154   4.243  0.00  0.00    -0.004 A 
ATOM     31  C   UNL     1      -2.692  -3.058   3.523  0.00  0.00    +0.007 A 
ATOM     32  C   UNL     1      -4.036  -3.215   3.808  0.00  0.00    +0.000 A 
ATOM     33  C   UNL     1      -4.623  -2.468   4.812  0.00  0.00    +0.001 A 
ATOM     34  C   UNL     1      -3.866  -1.563   5.532  0.00  0.00    +0.020 A 
ATOM     35  C   UNL     1      -2.520  -1.409   5.252  0.00  0.00    +0.046 A 
ATOM     36 CL   UNL     1      -1.567  -0.278   6.161  0.00  0.00    -0.083 Cl
ENDBRANCH   1  30
TORSDOF 5
