REMARK  Name = ZINC33811971
REMARK  14 active torsions:
REMARK  status: ('A' for Active; 'I' for Inactive)
REMARK    1  A    between atoms: C_1  and  C_2
REMARK    2  A    between atoms: C_2  and  C_3
REMARK    3  A    between atoms: C_3  and  C_4
REMARK    4  A    between atoms: C_4  and  C_5
REMARK    5  A    between atoms: C_5  and  C_7
REMARK    6  A    between atoms: C_5  and  C_9
REMARK    7  A    between atoms: C_7  and  C_8
REMARK    8  A    between atoms: C_9  and  N_10
REMARK    9  A    between atoms: C_14  and  C_15
REMARK   10  A    between atoms: C_16  and  C_32
REMARK   11  A    between atoms: C_17  and  C_30
REMARK   12  A    between atoms: N_20  and  C_29
REMARK   13  A    between atoms: C_21  and  N_22
REMARK   14  A    between atoms: N_25  and  C_28
REMARK                            x       y       z     vdW  Elec       q    Type
REMARK                         _______ _______ _______ _____ _____    ______ ____
ROOT
ATOM      1  C   UNL     1      -3.503   1.817   7.409  0.00  0.00    +0.019 A 
ATOM      2  C   UNL     1      -3.142   3.145   7.691  0.00  0.00    -0.017 A 
ATOM      3  C   UNL     1      -3.711   3.777   8.793  0.00  0.00    +0.120 A 
ATOM      4  C   UNL     1      -4.629   3.066   9.607  0.00  0.00    +0.270 A 
ATOM      5  O   UNL     1      -5.127   3.612  10.576  0.00  0.00    -0.266 OA
ATOM      6  N   UNL     1      -4.954   1.793   9.319  0.00  0.00    -0.298 N 
ATOM      7  C   UNL     1      -4.417   1.156   8.247  0.00  0.00    +0.111 A 
ATOM      8  C   UNL     1      -5.905   1.081  10.177  0.00  0.00    +0.154 C 
ATOM      9  C   UNL     1      -2.159   3.875   6.812  0.00  0.00    +0.046 C 
ENDROOT
BRANCH   1  14
ATOM     10  N   UNL     1      -3.265   1.573   2.636  0.00  0.00    -0.255 N 
ATOM     11  C   UNL     1      -2.809   1.001   3.737  0.00  0.00    +0.258 C 
ATOM     12  O   UNL     1      -2.043   0.056   3.683  0.00  0.00    -0.269 OA
ATOM     13  C   UNL     1      -3.243   1.526   4.993  0.00  0.00    +0.077 C 
ATOM     14  C   UNL     1      -2.927   1.125   6.255  0.00  0.00    +0.032 C 
ATOM     15  S   UNL     1      -4.314   2.853   4.457  0.00  0.00    -0.061 S 
ATOM     16  C   UNL     1      -4.111   2.624   2.697  0.00  0.00    +0.121 C 
ATOM     17  S   UNL     1      -4.813   3.512   1.412  0.00  0.00    -0.027 S 
BRANCH  10  18
ATOM     18  C   UNL     1      -2.841   1.061   1.330  0.00  0.00    +0.118 C 
BRANCH  18  19
ATOM     19  C   UNL     1      -3.725  -0.124   0.935  0.00  0.00    +0.007 C 
BRANCH  19  20
ATOM     20  C   UNL     1      -3.274  -0.666  -0.422  0.00  0.00    +0.002 C 
ATOM     21  C   UNL     1      -1.871  -1.263  -0.293  0.00  0.00    +0.004 C 
ENDBRANCH  19  20
BRANCH  19  22
ATOM     22  C   UNL     1      -5.182   0.334   0.843  0.00  0.00    +0.005 C 
BRANCH  22  23
ATOM     23  C   UNL     1      -6.080  -0.874   0.572  0.00  0.00    +0.000 C 
BRANCH  23  25
ATOM     24  C   UNL     1      -8.435  -1.624   0.208  0.00  0.00    +0.004 C 
ATOM     25  C   UNL     1      -7.537  -0.416   0.480  0.00  0.00    -0.003 C 
ENDBRANCH  23  25
ENDBRANCH  22  23
ENDBRANCH  19  22
ENDBRANCH  18  19
ENDBRANCH  10  18
ENDBRANCH   1  14
BRANCH   7  26
ATOM     26  N   UNL     1      -4.768  -0.135   7.981  0.00  0.00    -0.320 N 
ATOM     27  C   UNL     1      -3.616  -1.035   8.131  0.00  0.00    +0.088 C 
ATOM     28  C   UNL     1      -4.068  -2.480   7.902  0.00  0.00    -0.060 C 
ATOM     29  N   UNL     1      -4.656  -2.600   6.561  0.00  0.00    +0.380 N 
ATOM     30  C   UNL     1      -5.807  -1.700   6.411  0.00  0.00    -0.060 C 
ATOM     31  C   UNL     1      -5.355  -0.255   6.639  0.00  0.00    +0.088 C 
ATOM     32  C   UNL     1      -5.034  -3.990   6.274  0.00  0.00    -0.096 C 
ATOM     33  H   UNL     1      -3.892  -2.300   5.827  0.00  0.00    -0.082 HD
ENDBRANCH   7  26
BRANCH   3  34
ATOM     34  C   UNL     1      -3.368   5.132   9.105  0.00  0.00    +0.105 C 
ATOM     35  N   UNL     1      -3.095   6.207   9.353  0.00  0.00    -0.191 NA
ENDBRANCH   3  34
TORSDOF 9
