REMARK  Name = ZINC33129687
REMARK  7 active torsions:
REMARK  status: ('A' for Active; 'I' for Inactive)
REMARK    1  A    between atoms: C_3  and  C_34
REMARK    2  A    between atoms: C_5  and  N_7
REMARK    3  A    between atoms: C_8  and  C_10
REMARK    4  A    between atoms: N_15  and  S_17
REMARK    5  A    between atoms: S_17  and  C_20
REMARK    6  A    between atoms: C_22  and  C_25
REMARK    7  A    between atoms: C_27  and  C_30
REMARK                            x       y       z     vdW  Elec       q    Type
REMARK                         _______ _______ _______ _____ _____    ______ ____
ROOT
ATOM      1  C   UNL     1      -0.683   1.438   1.200  0.00  0.00    +0.091 C 
ATOM      2  C   UNL     1       0.126   1.129  -0.062  0.00  0.00    +0.015 C 
ATOM      3  C   UNL     1      -0.633   1.633  -1.291  0.00  0.00    +0.018 C 
ATOM      4  C   UNL     1      -1.978   0.908  -1.389  0.00  0.00    +0.109 C 
ATOM      5  N   UNL     1      -2.701   1.079  -0.122  0.00  0.00    -0.175 NA
ATOM      6  C   UNL     1      -2.028   0.710   1.131  0.00  0.00    +0.122 C 
ENDROOT
BRANCH   1   8
ATOM      7  N   UNL     1       1.301   1.475   2.678  0.00  0.00    -0.285 N 
ATOM      8  C   UNL     1       0.080   0.970   2.413  0.00  0.00    +0.222 C 
ATOM      9  O   UNL     1      -0.405   0.138   3.151  0.00  0.00    -0.275 OA
ATOM     10  H   UNL     1       1.778   2.163   1.964  0.00  0.00    +0.155 HD
BRANCH   7  15
ATOM     11  C   UNL     1       4.006   0.673   5.042  0.00  0.00    +0.003 A 
ATOM     12  C   UNL     1       3.292   0.430   6.197  0.00  0.00    +0.019 A 
ATOM     13  C   UNL     1       1.899   0.533   6.192  0.00  0.00    +0.054 A 
ATOM     14  C   UNL     1       1.236   0.888   5.016  0.00  0.00    +0.042 A 
ATOM     15  C   UNL     1       1.962   1.124   3.860  0.00  0.00    +0.035 A 
ATOM     16  C   UNL     1       3.348   1.019   3.876  0.00  0.00    +0.023 A 
BRANCH  13  17
ATOM     17  C   UNL     1       1.155   0.283   7.389  0.00  0.00    +0.099 C 
ATOM     18  N   UNL     1       0.565   0.084   8.339  0.00  0.00    -0.191 NA
ENDBRANCH  13  17
ENDBRANCH   7  15
ENDBRANCH   1   8
BRANCH   5  19
ATOM     19  S   UNL     1      -4.245   1.677  -0.105  0.00  0.00    +0.067 S 
ATOM     20  O   UNL     1      -4.450   2.238   1.184  0.00  0.00    -0.152 OA
ATOM     21  O   UNL     1      -4.401   2.433  -1.298  0.00  0.00    -0.152 OA
BRANCH  19  22
ATOM     22  C   UNL     1      -5.339   0.301  -0.235  0.00  0.00    +0.143 A 
ATOM     23  C   UNL     1      -5.881  -0.447   0.751  0.00  0.00    +0.048 A 
ATOM     24  C   UNL     1      -6.728  -1.490   0.382  0.00  0.00    +0.031 A 
ATOM     25  C   UNL     1      -6.952  -1.703  -0.948  0.00  0.00    +0.058 A 
ATOM     26  S   UNL     1      -6.005  -0.463  -1.702  0.00  0.00    -0.076 S 
BRANCH  24  27
ATOM     27  C   UNL     1      -7.365  -2.351   1.407  0.00  0.00    +0.203 A 
ATOM     28  N   UNL     1      -8.201  -3.389   1.177  0.00  0.00    -0.191 NA
ATOM     29  C   UNL     1      -8.514  -3.857   2.360  0.00  0.00    +0.231 A 
ATOM     30  O   UNL     1      -7.881  -3.101   3.263  0.00  0.00    -0.337 OA
ATOM     31  N   UNL     1      -7.228  -2.245   2.704  0.00  0.00    -0.056 NA
BRANCH  29  32
ATOM     32  C   UNL     1      -9.423  -5.024   2.648  0.00  0.00    +0.078 C 
ATOM     33  C   UNL     1     -10.306  -4.823   3.891  0.00  0.00    +0.013 C 
ATOM     34  C   UNL     1     -10.039  -6.301   4.223  0.00  0.00    +0.001 C 
ATOM     35  C   UNL     1      -8.736  -6.164   3.418  0.00  0.00    +0.013 C 
ENDBRANCH  29  32
ENDBRANCH  24  27
ENDBRANCH  19  22
ENDBRANCH   5  19
TORSDOF 7
