REMARK  Name = ZINC22063379
REMARK  17 active torsions:
REMARK  status: ('A' for Active; 'I' for Inactive)
REMARK    1  A    between atoms: C_1  and  C_2
REMARK    2  A    between atoms: C_5  and  O_20
REMARK    3  A    between atoms: C_6  and  C_10
REMARK    4  A    between atoms: C_7  and  O_8
REMARK    5  A    between atoms: O_8  and  C_9
REMARK    6  A    between atoms: C_10  and  C_11
REMARK    7  A    between atoms: C_12  and  C_13
REMARK    8  A    between atoms: C_12  and  C_14
REMARK    9  A    between atoms: C_14  and  C_15
REMARK   10  A    between atoms: C_15  and  C_16
REMARK   11  A    between atoms: C_16  and  O_18
REMARK   12  A    between atoms: O_18  and  C_19
REMARK   13  A    between atoms: O_20  and  C_21
REMARK   14  A    between atoms: C_23  and  O_37
REMARK   15  A    between atoms: C_25  and  O_36
REMARK   16  A    between atoms: C_27  and  O_35
REMARK   17  A    between atoms: C_29  and  C_32
REMARK                            x       y       z     vdW  Elec       q    Type
REMARK                         _______ _______ _______ _____ _____    ______ ____
ROOT
ATOM      1  C   UNL     1       2.431  -4.532   2.527  0.00  0.00    +0.048 C 
ATOM      2  C   UNL     1       1.579  -3.644   1.657  0.00  0.00    -0.001 A 
ATOM      3  C   UNL     1       2.020  -2.391   1.318  0.00  0.00    +0.014 A 
ATOM      4  C   UNL     1       1.236  -1.558   0.511  0.00  0.00    +0.108 A 
ATOM      5  C   UNL     1      -0.009  -2.016   0.050  0.00  0.00    +0.145 A 
ATOM      6  C   UNL     1      -0.445  -3.283   0.398  0.00  0.00    +0.041 A 
ATOM      7  C   UNL     1       0.344  -4.097   1.199  0.00  0.00    +0.130 A 
ATOM      8  C   UNL     1       1.960  -0.295   0.319  0.00  0.00    +0.343 C 
ATOM      9  O   UNL     1       1.556   0.645  -0.338  0.00  0.00    -0.245 OA
ATOM     10  O   UNL     1       3.136  -0.328   0.969  0.00  0.00    -0.456 OA
ATOM     11  C   UNL     1       3.273  -1.613   1.635  0.00  0.00    +0.269 C 
ENDROOT
BRANCH   7  12
ATOM     12  O   UNL     1      -0.089  -5.338   1.536  0.00  0.00    -0.494 OA
ATOM     13  C   UNL     1      -0.701  -5.486   2.819  0.00  0.00    +0.277 C 
ENDBRANCH   7  12
BRANCH   6  14
ATOM     14  C   UNL     1      -1.779  -3.780  -0.094  0.00  0.00    +0.069 C 
BRANCH  14  15
ATOM     15  C   UNL     1      -2.798  -3.660   1.009  0.00  0.00    -0.023 C 
ATOM     16  C   UNL     1      -3.507  -4.704   1.363  0.00  0.00    -0.076 C 
ATOM     17  C   UNL     1      -3.396  -5.989   0.584  0.00  0.00    +0.039 C 
BRANCH  16  18
ATOM     18  C   UNL     1      -4.433  -4.619   2.549  0.00  0.00    +0.041 C 
BRANCH  18  19
ATOM     19  C   UNL     1      -5.846  -4.279   2.069  0.00  0.00    +0.125 C 
BRANCH  19  20
ATOM     20  C   UNL     1      -6.772  -4.195   3.255  0.00  0.00    +0.307 C 
ATOM     21  O   UNL     1      -6.346  -4.387   4.369  0.00  0.00    -0.251 OA
BRANCH  20  22
ATOM     22  O   UNL     1      -8.070  -3.906   3.073  0.00  0.00    -0.468 OA
ATOM     23  C   UNL     1      -8.904  -3.841   4.260  0.00  0.00    +0.280 C 
ENDBRANCH  20  22
ENDBRANCH  19  20
ENDBRANCH  18  19
ENDBRANCH  16  18
ENDBRANCH  14  15
ENDBRANCH   6  14
BRANCH   5  24
ATOM     24  O   UNL     1      -0.781  -1.222  -0.732  0.00  0.00    -0.460 OA
BRANCH  24  25
ATOM     25  C   UNL     1      -2.059  -0.846  -0.215  0.00  0.00    +0.340 C 
ATOM     26  C   UNL     1      -2.822  -0.044  -1.272  0.00  0.00    +0.214 C 
ATOM     27  C   UNL     1      -2.050   1.242  -1.581  0.00  0.00    +0.180 C 
ATOM     28  C   UNL     1      -1.852   2.031  -0.283  0.00  0.00    +0.186 C 
ATOM     29  C   UNL     1      -1.127   1.149   0.736  0.00  0.00    +0.266 C 
ATOM     30  O   UNL     1      -1.883  -0.044   0.955  0.00  0.00    -0.322 OA
BRANCH  29  31
ATOM     31  C   UNL     1      -0.981   1.897   2.035  0.00  0.00    +0.387 C 
ATOM     32  O   UNL     1      -1.549   1.503   3.026  0.00  0.00    -0.243 OA
ATOM     33  O   UNL     1      -0.220   3.002   2.092  0.00  0.00    -0.243 OA
ENDBRANCH  29  31
BRANCH  28  34
ATOM     34  O   UNL     1      -1.070   3.198  -0.548  0.00  0.00    -0.386 OA
ATOM     35  H   UNL     1      -0.824   3.892   0.270  0.00  0.00    +0.210 HD
ENDBRANCH  28  34
BRANCH  27  36
ATOM     36  O   UNL     1      -2.791   2.033  -2.513  0.00  0.00    -0.386 OA
ATOM     37  H   UNL     1      -2.392   2.998  -2.855  0.00  0.00    +0.210 HD
ENDBRANCH  27  36
BRANCH  26  38
ATOM     38  O   UNL     1      -4.120   0.286  -0.775  0.00  0.00    -0.383 OA
ATOM     39  H   UNL     1      -4.817   0.865  -1.399  0.00  0.00    +0.210 HD
ENDBRANCH  26  38
ENDBRANCH  24  25
ENDBRANCH   5  24
TORSDOF 13
