REMARK  Name = ZINC66978176
REMARK  5 active torsions:
REMARK  status: ('A' for Active; 'I' for Inactive)
REMARK    1  A    between atoms: C_4  and  C_7
REMARK    2  A    between atoms: C_7  and  N_10
REMARK    3  A    between atoms: N_13  and  N_14
REMARK    4  A    between atoms: C_15  and  C_17
REMARK    5  A    between atoms: C_17  and  C_18
REMARK                            x       y       z     vdW  Elec       q    Type
REMARK                         _______ _______ _______ _____ _____    ______ ____
ROOT
ATOM      1  N   UNL     1       4.926   0.084  -0.247  0.00  0.00    -0.289 N 
ATOM      2  C   UNL     1       5.050   1.295   0.332  0.00  0.00    +0.317 C 
ATOM      3  O   UNL     1       4.195   1.692   1.099  0.00  0.00    -0.251 OA
ATOM      4  N   UNL     1       6.121   2.066   0.059  0.00  0.00    -0.218 N 
ATOM      5  H   UNL     1       5.643  -0.265  -0.800  0.00  0.00    +0.151 HD
ATOM      6  H   UNL     1       6.210   2.938   0.476  0.00  0.00    +0.174 HD
ENDROOT
BRANCH   4   7
ATOM      7  N   UNL     1       7.107   1.608  -0.825  0.00  0.00    -0.233 N 
ATOM      8  C   UNL     1       8.178   2.379  -1.098  0.00  0.00    +0.234 C 
ATOM      9  O   UNL     1       8.289   3.469  -0.577  0.00  0.00    -0.274 OA
ATOM     10  H   UNL     1       7.018   0.737  -1.242  0.00  0.00    +0.173 HD
BRANCH   8  11
ATOM     11  C   UNL     1       9.238   1.887  -2.049  0.00  0.00    +0.135 C 
BRANCH  11  12
ATOM     12  C   UNL     1      10.319   2.929  -2.180  0.00  0.00    -0.003 A 
ATOM     13  C   UNL     1      10.275   3.845  -3.215  0.00  0.00    +0.007 A 
ATOM     14  C   UNL     1      11.266   4.801  -3.335  0.00  0.00    +0.000 A 
ATOM     15  C   UNL     1      12.302   4.842  -2.421  0.00  0.00    +0.003 A 
ATOM     16  C   UNL     1      12.348   3.929  -1.385  0.00  0.00    +0.038 A 
ATOM     17  C   UNL     1      11.353   2.974  -1.261  0.00  0.00    +0.127 A 
ATOM     18  F   UNL     1      11.394   2.083  -0.246  0.00  0.00    -0.205 F 
ENDBRANCH  11  12
ENDBRANCH   8  11
ENDBRANCH   4   7
BRANCH   1  19
ATOM     19  C   UNL     1       3.709  -0.705  -0.041  0.00  0.00    +0.061 C 
ATOM     20  C   UNL     1       3.589  -1.491   1.266  0.00  0.00    +0.033 C 
ATOM     21  C   UNL     1       3.846  -2.229  -0.049  0.00  0.00    +0.033 C 
BRANCH  19  25
ATOM     22  C   UNL     1       0.133   0.964  -1.674  0.00  0.00    +0.000 A 
ATOM     23  C   UNL     1       0.058   0.020  -0.667  0.00  0.00    +0.000 A 
ATOM     24  C   UNL     1       1.215  -0.521  -0.139  0.00  0.00    +0.006 A 
ATOM     25  C   UNL     1       2.448  -0.117  -0.618  0.00  0.00    -0.024 A 
ATOM     26  C   UNL     1       2.522   0.827  -1.625  0.00  0.00    +0.006 A 
ATOM     27  C   UNL     1       1.365   1.368  -2.152  0.00  0.00    +0.000 A 
ENDBRANCH  19  25
ENDBRANCH   1  19
TORSDOF 5
