REMARK  Name = ZINC09126299
REMARK  9 active torsions:
REMARK  status: ('A' for Active; 'I' for Inactive)
REMARK    1  A    between atoms: C_1  and  C_2
REMARK    2  A    between atoms: C_5  and  C_7
REMARK    3  A    between atoms: N_9  and  C_10
REMARK    4  A    between atoms: N_9  and  C_18
REMARK    5  A    between atoms: C_10  and  C_11
REMARK    6  A    between atoms: C_11  and  C_12
REMARK    7  A    between atoms: C_19  and  N_34
REMARK    8  A    between atoms: N_20  and  C_27
REMARK    9  A    between atoms: C_27  and  C_28
REMARK                            x       y       z     vdW  Elec       q    Type
REMARK                         _______ _______ _______ _____ _____    ______ ____
ROOT
ATOM      1  C   UNL     1      -4.126  -0.584  -1.575  0.00  0.00    +0.140 A 
ATOM      2  C   UNL     1      -4.237   0.255  -2.666  0.00  0.00    +0.128 A 
ATOM      3  N   UNL     1      -5.330   1.083  -2.768  0.00  0.00    -0.276 N 
ATOM      4  C   UNL     1      -6.276   1.083  -1.812  0.00  0.00    +0.331 A 
ATOM      5  O   UNL     1      -7.233   1.826  -1.918  0.00  0.00    -0.246 OA
ATOM      6  N   UNL     1      -6.182   0.277  -0.739  0.00  0.00    -0.273 N 
ATOM      7  H   UNL     1      -6.899   0.296  -0.042  0.00  0.00    +0.173 HD
ATOM      8  C   UNL     1      -5.134  -0.557  -0.594  0.00  0.00    +0.277 A 
ATOM      9  O   UNL     1      -5.059  -1.284   0.383  0.00  0.00    -0.266 OA
ENDROOT
BRANCH   1  12
ATOM     10  C   UNL     1      -3.207  -2.782  -1.398  0.00  0.00    +0.258 C 
ATOM     11  O   UNL     1      -4.319  -3.246  -1.572  0.00  0.00    -0.269 OA
ATOM     12  N   UNL     1      -3.019  -1.448  -1.444  0.00  0.00    -0.259 N 
BRANCH  10  17
ATOM     13  C   UNL     1       1.655  -5.287  -0.245  0.00  0.00    +0.051 C 
ATOM     14  C   UNL     1       0.250  -4.864  -0.586  0.00  0.00    -0.013 A 
ATOM     15  C   UNL     1      -0.821  -5.649  -0.878  0.00  0.00    +0.011 A 
ATOM     16  C   UNL     1      -2.026  -5.058  -1.165  0.00  0.00    +0.021 A 
ATOM     17  C   UNL     1      -2.073  -3.673  -1.137  0.00  0.00    +0.075 A 
ATOM     18  S   UNL     1      -0.391  -3.258  -0.710  0.00  0.00    -0.089 S 
ENDBRANCH  10  17
BRANCH  12  19
ATOM     19  C   UNL     1      -1.665  -0.896  -1.358  0.00  0.00    +0.118 C 
BRANCH  19  20
ATOM     20  C   UNL     1      -1.310  -0.642   0.108  0.00  0.00    +0.050 C 
BRANCH  20  21
ATOM     21  C   UNL     1       0.024   0.055   0.189  0.00  0.00    -0.072 C 
ATOM     22  C   UNL     1       0.030   1.345   0.294  0.00  0.00    -0.028 C 
ATOM     23  C   UNL     1       1.276   2.177   0.373  0.00  0.00    +0.027 C 
ATOM     24  C   UNL     1       2.474   1.298   0.737  0.00  0.00    +0.004 C 
ATOM     25  C   UNL     1       2.480   0.076  -0.192  0.00  0.00    +0.005 C 
ATOM     26  C   UNL     1       1.263  -0.790   0.141  0.00  0.00    +0.030 C 
ENDBRANCH  20  21
ENDBRANCH  19  20
ENDBRANCH  12  19
ENDBRANCH   1  12
BRANCH   2  27
ATOM     27  N   UNL     1      -3.268   0.259  -3.641  0.00  0.00    -0.343 N 
ATOM     28  H   UNL     1      -2.542  -0.385  -3.607  0.00  0.00    +0.144 HD
ATOM     29  H   UNL     1      -3.309   0.905  -4.363  0.00  0.00    +0.144 HD
ENDBRANCH   2  27
BRANCH   3  30
ATOM     30  C   UNL     1      -5.463   1.975  -3.923  0.00  0.00    +0.163 C 
BRANCH  30  31
ATOM     31  C   UNL     1      -4.800   3.293  -3.619  0.00  0.00    -0.028 A 
ATOM     32  C   UNL     1      -5.529   4.317  -3.044  0.00  0.00    +0.005 A 
ATOM     33  C   UNL     1      -4.920   5.525  -2.760  0.00  0.00    +0.000 A 
ATOM     34  C   UNL     1      -3.584   5.713  -3.061  0.00  0.00    +0.000 A 
ATOM     35  C   UNL     1      -2.856   4.691  -3.641  0.00  0.00    +0.000 A 
ATOM     36  C   UNL     1      -3.463   3.481  -3.920  0.00  0.00    +0.005 A 
ENDBRANCH  30  31
ENDBRANCH   3  30
TORSDOF 8
