REMARK  Name = ZINC14980721
REMARK  11 active torsions:
REMARK  status: ('A' for Active; 'I' for Inactive)
REMARK    1  A    between atoms: C_1  and  C_2
REMARK    2  A    between atoms: C_5  and  C_8
REMARK    3  A    between atoms: C_8  and  N_9
REMARK    4  A    between atoms: C_12  and  O_36
REMARK    5  A    between atoms: C_13  and  O_34
REMARK    6  A    between atoms: C_17  and  C_20
REMARK    7  A    between atoms: C_20  and  N_68
REMARK    8  A    between atoms: C_21  and  C_22
REMARK    9  A    between atoms: C_21  and  N_68
REMARK   10  A    between atoms: O_34  and  C_35
REMARK   11  A    between atoms: O_36  and  C_37
REMARK                            x       y       z     vdW  Elec       q    Type
REMARK                         _______ _______ _______ _____ _____    ______ ____
ROOT
ATOM      1  N   UNL     1       0.047   2.895  -8.043  0.00  0.00    -0.303 N 
ATOM      2  C   UNL     1       1.234   2.986  -8.743  0.00  0.00    +0.056 A 
ATOM      3  C   UNL     1       1.279   3.596  -9.990  0.00  0.00    +0.076 A 
ATOM      4  C   UNL     1       2.477   3.677 -10.675  0.00  0.00    +0.163 A 
ATOM      5  C   UNL     1       3.648   3.147 -10.123  0.00  0.00    +0.162 A 
ATOM      6  C   UNL     1       3.621   2.539  -8.888  0.00  0.00    +0.059 A 
ATOM      7  C   UNL     1       2.412   2.452  -8.185  0.00  0.00    +0.003 A 
ATOM      8  C   UNL     1       2.348   1.812  -6.872  0.00  0.00    +0.017 A 
ATOM      9  C   UNL     1       1.150   1.755  -6.235  0.00  0.00    +0.001 A 
ATOM     10  C   UNL     1      -0.002   2.299  -6.839  0.00  0.00    +0.253 A 
ATOM     11  O   UNL     1      -1.068   2.232  -6.252  0.00  0.00    -0.267 OA
ENDROOT
BRANCH   5  12
ATOM     12  O   UNL     1       4.820   3.234 -10.809  0.00  0.00    -0.491 OA
ATOM     13  C   UNL     1       5.978   2.672 -10.189  0.00  0.00    +0.277 C 
ENDBRANCH   5  12
BRANCH   4  14
ATOM     14  O   UNL     1       2.517   4.275 -11.893  0.00  0.00    -0.491 OA
ATOM     15  C   UNL     1       1.287   4.796 -12.402  0.00  0.00    +0.277 C 
ENDBRANCH   4  14
BRANCH   1  16
ATOM     16  C   UNL     1      -1.178   3.450  -8.624  0.00  0.00    +0.160 C 
BRANCH  16  21
ATOM     17  C   UNL     1      -3.829  -0.606 -11.772  0.00  0.00    +0.044 C 
ATOM     18  C   UNL     1      -3.138   0.452 -10.951  0.00  0.00    -0.050 A 
ATOM     19  C   UNL     1      -3.436   0.589  -9.608  0.00  0.00    +0.004 A 
ATOM     20  C   UNL     1      -2.802   1.559  -8.855  0.00  0.00    +0.005 A 
ATOM     21  C   UNL     1      -1.869   2.392  -9.445  0.00  0.00    -0.028 A 
ATOM     22  C   UNL     1      -1.574   2.258 -10.789  0.00  0.00    +0.005 A 
ATOM     23  C   UNL     1      -2.205   1.285 -11.541  0.00  0.00    +0.004 A 
ENDBRANCH  16  21
ENDBRANCH   1  16
BRANCH   9  24
ATOM     24  C   UNL     1       1.050   1.101  -4.881  0.00  0.00    -0.041 C 
BRANCH  24  25
ATOM     25  N   UNL     1       1.165   2.136  -3.836  0.00  0.00    +0.382 N 
ATOM     26  H   UNL     1       0.406   2.819  -3.950  0.00  0.00    -0.085 HD
ATOM     27  H   UNL     1       2.070   2.612  -3.928  0.00  0.00    -0.085 HD
BRANCH  25  28
ATOM     28  C   UNL     1       1.070   1.524  -2.497  0.00  0.00    -0.078 C 
BRANCH  28  29
ATOM     29  C   UNL     1       1.192   2.620  -1.435  0.00  0.00    -0.020 C 
ATOM     30  C   UNL     1      -0.078   3.510  -1.418  0.00  0.00    +0.010 C 
ATOM     31  C   UNL     1      -0.651   3.309   0.026  0.00  0.00    +0.018 C 
ATOM     32  C   UNL     1      -1.094   1.835   0.017  0.00  0.00    -0.027 C 
ATOM     33  C   UNL     1      -0.013   1.076   0.008  0.00  0.00    -0.027 C 
ATOM     34  C   UNL     1       1.223   1.994   0.001  0.00  0.00    +0.019 C 
ATOM     35  C   UNL     1       0.666   3.177   0.828  0.00  0.00    -0.017 C 
ATOM     36  C   UNL     1       1.474   4.319   1.358  0.00  0.00    +0.008 C 
ATOM     37  C   UNL     1       0.791   3.327   2.313  0.00  0.00    +0.008 C 
ENDBRANCH  28  29
ENDBRANCH  25  28
ENDBRANCH  24  25
ENDBRANCH   9  24
TORSDOF 8
