REMARK  Name = ZINC35428909
REMARK  8 active torsions:
REMARK  status: ('A' for Active; 'I' for Inactive)
REMARK    1  A    between atoms: C_1  and  C_2
REMARK    2  A    between atoms: C_5  and  C_34
REMARK    3  A    between atoms: C_6  and  N_8
REMARK    4  A    between atoms: C_9  and  C_11
REMARK    5  A    between atoms: C_11  and  N_12
REMARK    6  A    between atoms: C_16  and  S_23
REMARK    7  A    between atoms: S_23  and  N_26
REMARK    8  A    between atoms: C_31  and  C_33
REMARK                            x       y       z     vdW  Elec       q    Type
REMARK                         _______ _______ _______ _____ _____    ______ ____
ROOT
ATOM      1  N   UNL     1       0.932  -1.182   3.188  0.00  0.00    -0.262 N 
ATOM      2  C   UNL     1       1.909  -0.905   4.149  0.00  0.00    +0.040 A 
ATOM      3  C   UNL     1       3.250  -1.128   3.866  0.00  0.00    +0.026 A 
ATOM      4  C   UNL     1       4.210  -0.851   4.819  0.00  0.00    +0.030 A 
ATOM      5  C   UNL     1       3.837  -0.353   6.054  0.00  0.00    +0.106 A 
ATOM      6  C   UNL     1       2.502  -0.131   6.339  0.00  0.00    +0.034 A 
ATOM      7  C   UNL     1       1.538  -0.405   5.390  0.00  0.00    -0.024 A 
ATOM      8  C   UNL     1       0.083  -0.164   5.696  0.00  0.00    +0.046 C 
ATOM      9  C   UNL     1      -0.640   0.282   4.425  0.00  0.00    +0.101 C 
ATOM     10  C   UNL     1      -0.295  -0.638   3.285  0.00  0.00    +0.221 C 
ATOM     11  O   UNL     1      -1.133  -0.897   2.449  0.00  0.00    -0.275 OA
ENDROOT
BRANCH   5  12
ATOM     12  S   UNL     1       5.065  -0.002   7.268  0.00  0.00    +0.061 S 
ATOM     13  O   UNL     1       4.460  -0.226   8.534  0.00  0.00    -0.153 OA
ATOM     14  O   UNL     1       6.246  -0.678   6.858  0.00  0.00    -0.153 OA
BRANCH  12  15
ATOM     15  N   UNL     1       5.393   1.619   7.179  0.00  0.00    -0.174 NA
ATOM     16  C   UNL     1       4.771   2.561   8.120  0.00  0.00    +0.110 C 
ATOM     17  C   UNL     1       5.873   3.388   8.790  0.00  0.00    +0.017 C 
ATOM     18  C   UNL     1       6.733   4.052   7.712  0.00  0.00    +0.003 C 
ATOM     19  C   UNL     1       7.395   2.974   6.850  0.00  0.00    +0.020 C 
ATOM     20  C   UNL     1       6.315   2.141   6.162  0.00  0.00    +0.077 C 
ATOM     21  C   UNL     1       6.967   0.977   5.414  0.00  0.00    +0.026 C 
ENDBRANCH  12  15
ENDBRANCH   5  12
BRANCH   1  22
ATOM     22  C   UNL     1       1.248  -2.066   2.063  0.00  0.00    +0.209 C 
BRANCH  22  24
ATOM     23  N   UNL     1       2.154  -1.855  -0.229  0.00  0.00    -0.284 N 
ATOM     24  C   UNL     1       1.793  -1.249   0.919  0.00  0.00    +0.235 C 
ATOM     25  O   UNL     1       1.906  -0.047   1.033  0.00  0.00    -0.274 OA
ATOM     26  H   UNL     1       1.998  -2.805  -0.347  0.00  0.00    +0.155 HD
BRANCH  23  32
ATOM     27  C   UNL     1       4.689   2.110  -1.654  0.00  0.00    +0.044 C 
ATOM     28  C   UNL     1       3.990   0.813  -1.971  0.00  0.00    -0.049 A 
ATOM     29  C   UNL     1       3.942   0.355  -3.275  0.00  0.00    +0.004 A 
ATOM     30  C   UNL     1       3.302  -0.835  -3.570  0.00  0.00    +0.005 A 
ATOM     31  C   UNL     1       2.708  -1.570  -2.563  0.00  0.00    -0.029 A 
ATOM     32  C   UNL     1       2.755  -1.113  -1.252  0.00  0.00    +0.037 A 
ATOM     33  C   UNL     1       3.403   0.080  -0.958  0.00  0.00    +0.027 A 
ATOM     34  C   UNL     1       2.010  -2.866  -2.885  0.00  0.00    +0.045 C 
ENDBRANCH  23  32
ENDBRANCH  22  24
ENDBRANCH   1  22
TORSDOF 5
