REMARK  Name = ZINC10042229
REMARK  12 active torsions:
REMARK  status: ('A' for Active; 'I' for Inactive)
REMARK    1  A    between atoms: C_1  and  C_2
REMARK    2  A    between atoms: C_4  and  C_12
REMARK    3  A    between atoms: C_6  and  N_9
REMARK    4  A    between atoms: C_7  and  C_8
REMARK    5  A    between atoms: C_15  and  C_17
REMARK    6  A    between atoms: N_18  and  N_19
REMARK    7  A    between atoms: C_20  and  C_22
REMARK    8  A    between atoms: C_22  and  C_24
REMARK    9  A    between atoms: C_22  and  N_27
REMARK   10  A    between atoms: C_24  and  C_25
REMARK   11  A    between atoms: C_24  and  C_26
REMARK   12  A    between atoms: C_28  and  C_30
REMARK                            x       y       z     vdW  Elec       q    Type
REMARK                         _______ _______ _______ _____ _____    ______ ____
ROOT
ATOM      1  N   UNL     1       5.551   1.310  -0.503  0.00  0.00    -0.205 N 
ATOM      2  C   UNL     1       4.282   1.446  -0.070  0.00  0.00    +0.253 C 
ATOM      3  O   UNL     1       3.965   2.415   0.579  0.00  0.00    -0.272 OA
ATOM      4  H   UNL     1       5.822   0.500  -0.962  0.00  0.00    +0.177 HD
ENDROOT
BRANCH   1   6
ATOM      5  C   UNL     1       7.654   2.123  -0.732  0.00  0.00    +0.176 C 
ATOM      6  N   UNL     1       6.404   2.257  -0.306  0.00  0.00    -0.185 NA
BRANCH   5  10
ATOM      7  C   UNL     1       9.463   5.049   0.118  0.00  0.00    +0.136 A 
ATOM      8  C   UNL     1      10.502   4.329  -0.523  0.00  0.00    +0.050 A 
ATOM      9  C   UNL     1       9.987   3.140  -0.925  0.00  0.00    +0.051 A 
ATOM     10  C   UNL     1       8.573   3.142  -0.520  0.00  0.00    +0.148 A 
ATOM     11  O   UNL     1       8.335   4.318   0.102  0.00  0.00    -0.454 OA
BRANCH   7  15
ATOM     12  C   UNL     1       7.441   8.870   2.504  0.00  0.00    +0.044 C 
ATOM     13  C   UNL     1       8.623   8.204   1.847  0.00  0.00    -0.045 A 
ATOM     14  C   UNL     1       8.485   6.961   1.297  0.00  0.00    +0.015 A 
ATOM     15  C   UNL     1       9.592   6.340   0.688  0.00  0.00    +0.020 A 
ATOM     16  C   UNL     1      10.829   7.013   0.646  0.00  0.00    +0.044 A 
ATOM     17  C   UNL     1      10.942   8.257   1.198  0.00  0.00    +0.130 A 
ATOM     18  C   UNL     1       9.845   8.858   1.800  0.00  0.00    -0.017 A 
ATOM     19  C   UNL     1       9.984  10.231   2.406  0.00  0.00    +0.046 C 
BRANCH  17  20
ATOM     20  N   UNL     1      12.240   8.968   1.154  0.00  0.00    +0.057 N 
ATOM     21  O   UNL     1      12.270  10.275   0.998  0.00  0.00    -0.126 OA
ATOM     22  O   UNL     1      13.365   8.293   1.272  0.00  0.00    -0.126 OA
ENDBRANCH  17  20
ENDBRANCH   7  15
ENDBRANCH   5  10
ENDBRANCH   1   6
BRANCH   2  23
ATOM     23  C   UNL     1       3.257   0.389  -0.394  0.00  0.00    +0.163 C 
BRANCH  23  24
ATOM     24  N   UNL     1       2.102   0.539   0.493  0.00  0.00    -0.300 N 
ATOM     25  C   UNL     1       1.314  -0.521   0.759  0.00  0.00    +0.246 C 
ATOM     26  O   UNL     1       1.562  -1.602   0.263  0.00  0.00    -0.270 OA
ATOM     27  H   UNL     1       1.904   1.403   0.889  0.00  0.00    +0.150 HD
BRANCH  25  28
ATOM     28  C   UNL     1       0.144  -0.367   1.650  0.00  0.00    +0.055 A 
ATOM     29  C   UNL     1      -0.140   0.872   2.226  0.00  0.00    +0.014 A 
ATOM     30  C   UNL     1      -1.236   1.010   3.052  0.00  0.00    +0.001 A 
ATOM     31  C   UNL     1      -2.047  -0.079   3.319  0.00  0.00    +0.001 A 
ATOM     32  C   UNL     1      -1.769  -1.311   2.757  0.00  0.00    +0.021 A 
ATOM     33  C   UNL     1      -0.678  -1.463   1.923  0.00  0.00    +0.053 A 
ATOM     34 CL   UNL     1      -0.330  -3.010   1.218  0.00  0.00    -0.083 Cl
ENDBRANCH  25  28
ENDBRANCH  23  24
BRANCH  23  35
ATOM     35  C   UNL     1       2.808   0.544  -1.849  0.00  0.00    +0.012 C 
ATOM     36  C   UNL     1       1.869  -0.607  -2.218  0.00  0.00    +0.009 C 
ATOM     37  C   UNL     1       2.072   1.875  -2.015  0.00  0.00    +0.009 C 
ENDBRANCH  23  35
ENDBRANCH   2  23
TORSDOF 8
