REMARK  Name = ZINC41701742
REMARK  10 active torsions:
REMARK  status: ('A' for Active; 'I' for Inactive)
REMARK    1  A    between atoms: C_1  and  C_2
REMARK    2  A    between atoms: C_2  and  C_3
REMARK    3  A    between atoms: C_2  and  N_4
REMARK    4  A    between atoms: N_7  and  C_8
REMARK    5  A    between atoms: C_11  and  C_14
REMARK    6  A    between atoms: C_14  and  C_16
REMARK    7  A    between atoms: C_17  and  C_18
REMARK    8  A    between atoms: C_20  and  O_26
REMARK    9  A    between atoms: C_21  and  O_25
REMARK   10  A    between atoms: O_26  and  C_27
REMARK                            x       y       z     vdW  Elec       q    Type
REMARK                         _______ _______ _______ _____ _____    ______ ____
ROOT
ATOM      1  C   UNL     1       4.052  -1.069  -2.417  0.00  0.00    +0.035 A 
ATOM      2  C   UNL     1       4.833  -0.758  -1.308  0.00  0.00    +0.024 A 
ATOM      3  C   UNL     1       6.206  -0.804  -1.396  0.00  0.00    +0.013 A 
ATOM      4  C   UNL     1       6.816  -1.163  -2.601  0.00  0.00    +0.022 A 
ATOM      5  C   UNL     1       6.028  -1.474  -3.714  0.00  0.00    +0.013 A 
ATOM      6  C   UNL     1       4.656  -1.431  -3.617  0.00  0.00    +0.024 A 
ENDROOT
BRANCH   1  10
ATOM      7  N   UNL     1       0.725   0.019  -1.538  0.00  0.00    -0.297 N 
ATOM      8  C   UNL     1       2.069  -0.086  -1.555  0.00  0.00    +0.304 C 
ATOM      9  O   UNL     1       2.746   0.662  -0.878  0.00  0.00    -0.253 OA
ATOM     10  N   UNL     1       2.662  -1.022  -2.324  0.00  0.00    -0.269 N 
ATOM     11  H   UNL     1       0.185  -0.579  -2.078  0.00  0.00    +0.151 HD
ATOM     12  H   UNL     1       2.121  -1.662  -2.812  0.00  0.00    +0.156 HD
BRANCH   7  14
ATOM     13  C   UNL     1       0.028   2.362  -1.463  0.00  0.00    +0.027 C 
ATOM     14  C   UNL     1       0.081   1.035  -0.703  0.00  0.00    +0.068 C 
ATOM     15  C   UNL     1      -1.341   0.587  -0.359  0.00  0.00    +0.027 C 
ENDBRANCH   7  14
ENDBRANCH   1  10
BRANCH   4  16
ATOM     16  C   UNL     1       8.288  -1.212  -2.700  0.00  0.00    +0.186 C 
ATOM     17  O   UNL     1       8.973  -0.941  -1.730  0.00  0.00    -0.287 OA
BRANCH  16  18
ATOM     18  C   UNL     1       8.905  -1.576  -3.924  0.00  0.00    +0.052 C 
ATOM     19  C   UNL     1      10.254  -1.622  -4.014  0.00  0.00    +0.012 C 
BRANCH  19  20
ATOM     20  C   UNL     1      10.893  -1.999  -5.282  0.00  0.00    -0.020 A 
ATOM     21  C   UNL     1      12.289  -2.052  -5.376  0.00  0.00    +0.057 A 
ATOM     22  C   UNL     1      12.884  -2.408  -6.570  0.00  0.00    +0.163 A 
ATOM     23  C   UNL     1      12.096  -2.712  -7.679  0.00  0.00    +0.177 A 
ATOM     24  C   UNL     1      10.710  -2.660  -7.588  0.00  0.00    +0.087 A 
ATOM     25  C   UNL     1      10.108  -2.312  -6.398  0.00  0.00    +0.031 A 
ATOM     26 CL   UNL     1       9.736  -3.039  -8.974  0.00  0.00    -0.080 Cl
BRANCH  23  27
ATOM     27  O   UNL     1      12.684  -3.062  -8.853  0.00  0.00    -0.502 OA
ATOM     28  H   UNL     1      12.839  -4.011  -8.948  0.00  0.00    +0.292 HD
ENDBRANCH  23  27
BRANCH  22  29
ATOM     29  O   UNL     1      14.240  -2.461  -6.664  0.00  0.00    -0.491 OA
ATOM     30  C   UNL     1      14.985  -2.136  -5.489  0.00  0.00    +0.277 C 
ENDBRANCH  22  29
ENDBRANCH  19  20
ENDBRANCH  16  18
ENDBRANCH   4  16
TORSDOF 7
