REMARK  Name = ZINC40930512
REMARK  9 active torsions:
REMARK  status: ('A' for Active; 'I' for Inactive)
REMARK    1  A    between atoms: C_3  and  C_6
REMARK    2  A    between atoms: C_8  and  C_11
REMARK    3  A    between atoms: C_11  and  N_12
REMARK    4  A    between atoms: C_15  and  C_18
REMARK    5  A    between atoms: N_20  and  C_21
REMARK    6  A    between atoms: C_21  and  C_22
REMARK    7  A    between atoms: C_22  and  C_23
REMARK    8  A    between atoms: C_26  and  S_29
REMARK    9  A    between atoms: S_29  and  N_32
REMARK                            x       y       z     vdW  Elec       q    Type
REMARK                         _______ _______ _______ _____ _____    ______ ____
ROOT
ATOM      1  N   UNL     1       7.781   1.178  -1.461  0.00  0.00    +0.386 N 
ATOM      2  C   UNL     1       7.804   2.496  -2.107  0.00  0.00    -0.077 C 
ATOM      3  C   UNL     1       8.192   2.340  -3.579  0.00  0.00    -0.006 C 
ATOM      4  C   UNL     1       9.580   1.700  -3.671  0.00  0.00    +0.071 C 
ATOM      5  C   UNL     1       9.563   0.360  -2.930  0.00  0.00    -0.006 C 
ATOM      6  C   UNL     1       9.125   0.589  -1.482  0.00  0.00    -0.077 C 
ATOM      7  H   UNL     1       7.142   0.574  -1.957  0.00  0.00    -0.081 HD
ENDROOT
BRANCH   4   8
ATOM      8  C   UNL     1       9.935   1.472  -5.117  0.00  0.00    +0.216 C 
ATOM      9  O   UNL     1       9.156   1.789  -5.990  0.00  0.00    -0.276 OA
ATOM     10  N   UNL     1      11.119   0.915  -5.441  0.00  0.00    -0.315 N 
ATOM     11  H   UNL     1      11.742   0.660  -4.743  0.00  0.00    +0.149 HD
BRANCH  10  12
ATOM     12  C   UNL     1      11.464   0.693  -6.847  0.00  0.00    +0.109 C 
BRANCH  12  13
ATOM     13  C   UNL     1      12.851   0.053  -6.937  0.00  0.00    +0.054 C 
BRANCH  13  14
ATOM     14  C   UNL     1      13.206  -0.175  -8.384  0.00  0.00    -0.046 A 
ATOM     15  C   UNL     1      12.866  -1.365  -9.000  0.00  0.00    +0.005 A 
ATOM     16  C   UNL     1      13.191  -1.574 -10.327  0.00  0.00    +0.029 A 
ATOM     17  C   UNL     1      13.857  -0.593 -11.038  0.00  0.00    +0.105 A 
ATOM     18  C   UNL     1      14.197   0.597 -10.423  0.00  0.00    +0.029 A 
ATOM     19  C   UNL     1      13.867   0.808  -9.097  0.00  0.00    +0.005 A 
BRANCH  17  20
ATOM     20  S   UNL     1      14.273  -0.861 -12.729  0.00  0.00    +0.056 S 
ATOM     21  O   UNL     1      15.374  -0.010 -13.016  0.00  0.00    -0.153 OA
ATOM     22  O   UNL     1      14.329  -2.268 -12.916  0.00  0.00    -0.153 OA
BRANCH  20  23
ATOM     23  N   UNL     1      13.002  -0.313 -13.639  0.00  0.00    -0.204 NA
ATOM     24  H   UNL     1      12.223   0.067 -13.204  0.00  0.00    +0.144 HD
ATOM     25  H   UNL     1      13.037  -0.371 -14.606  0.00  0.00    +0.144 HD
ENDBRANCH  20  23
ENDBRANCH  17  20
ENDBRANCH  13  14
ENDBRANCH  12  13
ENDBRANCH  10  12
ENDBRANCH   4   8
BRANCH   1  26
ATOM     26  C   UNL     1       7.333   1.324  -0.070  0.00  0.00    +0.022 C 
BRANCH  26  29
ATOM     27  C   UNL     1       3.738   1.826  -0.024  0.00  0.00    +0.209 A 
ATOM     28  N   UNL     1       4.846   1.060  -0.044  0.00  0.00    -0.192 NA
ATOM     29  C   UNL     1       5.908   1.813  -0.049  0.00  0.00    +0.211 A 
ATOM     30  O   UNL     1       5.522   3.095  -0.032  0.00  0.00    -0.340 OA
ATOM     31  N   UNL     1       4.102   3.087  -0.022  0.00  0.00    -0.056 NA
BRANCH  27  34
ATOM     32  C   UNL     1      -0.016   1.355   0.009  0.00  0.00    +0.008 A 
ATOM     33  C   UNL     1       1.176   2.042   0.002  0.00  0.00    +0.019 A 
ATOM     34  C   UNL     1       2.346   1.330  -0.013  0.00  0.00    +0.060 A 
ATOM     35  S   UNL     1       1.753  -0.354  -0.017  0.00  0.00    -0.093 S 
ATOM     36  C   UNL     1       0.002  -0.004   0.002  0.00  0.00    +0.046 A 
ENDBRANCH  27  34
ENDBRANCH  26  29
ENDBRANCH   1  26
TORSDOF 9
