REMARK  Name = ZINC00197555
REMARK  6 active torsions:
REMARK  status: ('A' for Active; 'I' for Inactive)
REMARK    1  A    between atoms: C_1  and  C_2
REMARK    2  A    between atoms: C_2  and  O_3
REMARK    3  A    between atoms: O_3  and  C_4
REMARK    4  A    between atoms: N_12  and  C_13
REMARK    5  A    between atoms: C_16  and  C_19
REMARK    6  A    between atoms: C_20  and  C_22
REMARK                            x       y       z     vdW  Elec       q    Type
REMARK                         _______ _______ _______ _____ _____    ______ ____
ROOT
ATOM      1  C   UNL     1      -0.069   3.853   0.050  0.00  0.00    +0.163 A 
ATOM      2  C   UNL     1      -1.245   3.122   0.067  0.00  0.00    +0.049 A 
ATOM      3  C   UNL     1      -1.214   1.735   0.051  0.00  0.00    +0.004 A 
ATOM      4  C   UNL     1      -0.011   1.065   0.031  0.00  0.00    +0.012 A 
ATOM      5  C   UNL     1       1.187   1.788   0.016  0.00  0.00    +0.022 A 
ATOM      6  C   UNL     1       1.156   3.195   0.022  0.00  0.00    +0.179 A 
ATOM      7  O   UNL     1       2.316   3.896  -0.002  0.00  0.00    -0.433 OA
ATOM      8  C   UNL     1       3.410   3.295   0.531  0.00  0.00    +0.233 A 
ATOM      9  N   UNL     1       4.265   3.973   1.267  0.00  0.00    -0.213 NA
ATOM     10  C   UNL     1       3.612   1.858   0.260  0.00  0.00    +0.099 A 
ATOM     11  C   UNL     1       2.479   1.098  -0.001  0.00  0.00    +0.030 A 
ENDROOT
BRANCH   9  12
ATOM     12  C   UNL     1       4.118   5.324   1.415  0.00  0.00    +0.068 A 
ATOM     13  C   UNL     1       4.657   6.197   0.467  0.00  0.00    +0.028 A 
ATOM     14  C   UNL     1       4.500   7.559   0.620  0.00  0.00    +0.005 A 
ATOM     15  C   UNL     1       3.821   8.061   1.716  0.00  0.00    -0.050 A 
ATOM     16  C   UNL     1       3.289   7.203   2.662  0.00  0.00    +0.005 A 
ATOM     17  C   UNL     1       3.434   5.839   2.519  0.00  0.00    +0.028 A 
ATOM     18  C   UNL     1       3.659   9.551   1.879  0.00  0.00    +0.044 C 
ENDBRANCH   9  12
BRANCH  10  19
ATOM     19  C   UNL     1       4.956   1.256   0.266  0.00  0.00    +0.247 C 
ATOM     20  O   UNL     1       5.931   1.946   0.499  0.00  0.00    -0.270 OA
ATOM     21  N   UNL     1       5.107  -0.060   0.015  0.00  0.00    -0.325 N 
ATOM     22  H   UNL     1       4.330  -0.610  -0.171  0.00  0.00    +0.145 HD
ATOM     23  H   UNL     1       5.992  -0.456   0.019  0.00  0.00    +0.145 HD
ENDBRANCH  10  19
BRANCH   1  24
ATOM     24  O   UNL     1      -0.112   5.212   0.060  0.00  0.00    -0.489 OA
BRANCH  24  26
ATOM     25  C   UNL     1      -1.253   7.343   0.096  0.00  0.00    +0.048 C 
ATOM     26  C   UNL     1      -1.405   5.820   0.088  0.00  0.00    +0.226 C 
ENDBRANCH  24  26
ENDBRANCH   1  24
TORSDOF 4
