REMARK  Name = ZINC01474682
REMARK  12 active torsions:
REMARK  status: ('A' for Active; 'I' for Inactive)
REMARK    1  A    between atoms: C_1  and  C_2
REMARK    2  A    between atoms: C_5  and  C_8
REMARK    3  A    between atoms: C_11  and  S_20
REMARK    4  A    between atoms: N_12  and  C_13
REMARK    5  A    between atoms: C_16  and  C_19
REMARK    6  A    between atoms: S_20  and  C_21
REMARK    7  A    between atoms: C_21  and  C_22
REMARK    8  A    between atoms: N_24  and  N_25
REMARK    9  A    between atoms: C_26  and  C_27
REMARK   10  A    between atoms: C_32  and  O_33
REMARK   11  A    between atoms: O_33  and  C_34
REMARK   12  A    between atoms: C_34  and  C_35
REMARK                            x       y       z     vdW  Elec       q    Type
REMARK                         _______ _______ _______ _____ _____    ______ ____
ROOT
ATOM      1  C   UNL     1     -12.046  -0.018   0.059  0.00  0.00    +0.169 A 
ATOM      2  N   UNL     1     -11.138  -0.966   0.050  0.00  0.00    -0.128 NA
ATOM      3  N   UNL     1      -9.962  -0.448   0.047  0.00  0.00    -0.122 NA
ATOM      4  C   UNL     1     -10.045   0.864   0.054  0.00  0.00    +0.197 A 
ATOM      5  N   UNL     1     -11.374   1.185   0.068  0.00  0.00    -0.270 N 
ENDROOT
BRANCH   1  10
ATOM      6  C   UNL     1     -17.754  -0.748   0.078  0.00  0.00    +0.044 C 
ATOM      7  C   UNL     1     -16.259  -0.557   0.073  0.00  0.00    -0.050 A 
ATOM      8  C   UNL     1     -15.428  -1.621   0.375  0.00  0.00    +0.004 A 
ATOM      9  C   UNL     1     -14.058  -1.452   0.372  0.00  0.00    +0.012 A 
ATOM     10  C   UNL     1     -13.512  -0.205   0.064  0.00  0.00    +0.020 A 
ATOM     11  C   UNL     1     -14.357   0.865  -0.234  0.00  0.00    +0.012 A 
ATOM     12  C   UNL     1     -15.725   0.682  -0.233  0.00  0.00    +0.004 A 
ENDBRANCH   1  10
BRANCH   5  13
ATOM     13  C   UNL     1     -11.936   2.470   0.085  0.00  0.00    +0.051 A 
ATOM     14  C   UNL     1     -12.675   2.891   1.181  0.00  0.00    +0.026 A 
ATOM     15  C   UNL     1     -13.223   4.160   1.197  0.00  0.00    +0.005 A 
ATOM     16  C   UNL     1     -13.044   5.005   0.118  0.00  0.00    -0.050 A 
ATOM     17  C   UNL     1     -12.312   4.586  -0.979  0.00  0.00    +0.005 A 
ATOM     18  C   UNL     1     -11.758   3.321  -0.998  0.00  0.00    +0.026 A 
ATOM     19  C   UNL     1     -13.648   6.385   0.136  0.00  0.00    +0.044 C 
ENDBRANCH   5  13
BRANCH   4  20
ATOM     20  S   UNL     1      -8.695   1.997   0.054  0.00  0.00    -0.076 S 
BRANCH  20  21
ATOM     21  C   UNL     1      -7.308   0.834   0.041  0.00  0.00    +0.174 C 
BRANCH  21  22
ATOM     22  C   UNL     1      -6.011   1.599   0.039  0.00  0.00    +0.242 C 
ATOM     23  O   UNL     1      -6.022   2.812   0.046  0.00  0.00    -0.273 OA
ATOM     24  N   UNL     1      -4.837   0.936   0.030  0.00  0.00    -0.206 N 
ATOM     25  H   UNL     1      -4.828  -0.034   0.025  0.00  0.00    +0.177 HD
BRANCH  24  26
ATOM     26  N   UNL     1      -3.630   1.648   0.028  0.00  0.00    -0.188 NA
ATOM     27  C   UNL     1      -2.500   1.010   0.019  0.00  0.00    +0.142 C 
BRANCH  27  28
ATOM     28  C   UNL     1      -1.231   1.759   0.017  0.00  0.00    +0.036 A 
ATOM     29  C   UNL     1      -0.013   1.076   0.008  0.00  0.00    +0.013 A 
ATOM     30  C   UNL     1       1.171   1.783   0.000  0.00  0.00    +0.001 A 
ATOM     31  C   UNL     1       1.158   3.167   0.007  0.00  0.00    +0.004 A 
ATOM     32  C   UNL     1      -0.041   3.854   0.023  0.00  0.00    +0.046 A 
ATOM     33  C   UNL     1      -1.240   3.160   0.030  0.00  0.00    +0.130 A 
BRANCH  33  34
ATOM     34  O   UNL     1      -2.418   3.835   0.045  0.00  0.00    -0.480 OA
BRANCH  34  35
ATOM     35  C   UNL     1      -2.349   5.262   0.052  0.00  0.00    +0.353 C 
BRANCH  35  36
ATOM     36  C   UNL     1      -3.743   5.833   0.069  0.00  0.00    +0.393 C 
ATOM     37  O   UNL     1      -4.699   5.093   0.074  0.00  0.00    -0.243 OA
ATOM     38  O   UNL     1      -3.924   7.163   0.077  0.00  0.00    -0.243 OA
ENDBRANCH  35  36
ENDBRANCH  34  35
ENDBRANCH  33  34
ENDBRANCH  27  28
ENDBRANCH  24  26
ENDBRANCH  21  22
ENDBRANCH  20  21
ENDBRANCH   4  20
TORSDOF 10
