REMARK  Name = ZINC35250099
REMARK  8 active torsions:
REMARK  status: ('A' for Active; 'I' for Inactive)
REMARK    1  A    between atoms: C_1  and  C_2
REMARK    2  A    between atoms: C_5  and  N_8
REMARK    3  A    between atoms: C_9  and  C_21
REMARK    4  A    between atoms: C_11  and  C_13
REMARK    5  A    between atoms: C_16  and  C_20
REMARK    6  A    between atoms: C_17  and  C_19
REMARK    7  A    between atoms: N_23  and  C_24
REMARK    8  A    between atoms: C_24  and  C_25
REMARK                            x       y       z     vdW  Elec       q    Type
REMARK                         _______ _______ _______ _____ _____    ______ ____
ROOT
ATOM      1  N   UNL     1       0.073  -4.170  -0.033  0.00  0.00    -0.227 N 
ATOM      2  C   UNL     1       0.788  -4.952   0.833  0.00  0.00    +0.130 A 
ATOM      3  C   UNL     1       0.506  -6.264   0.500  0.00  0.00    +0.063 A 
ATOM      4  C   UNL     1      -0.391  -6.188  -0.581  0.00  0.00    +0.094 A 
ATOM      5  N   UNL     1      -0.603  -4.913  -0.834  0.00  0.00    -0.166 NA
ENDROOT
BRANCH   4   6
ATOM      6  C   UNL     1      -0.994  -7.336  -1.302  0.00  0.00    +0.002 A 
ATOM      7  C   UNL     1      -0.689  -8.641  -0.918  0.00  0.00    +0.010 A 
ATOM      8  C   UNL     1      -1.253  -9.705  -1.592  0.00  0.00    +0.004 A 
ATOM      9  C   UNL     1      -2.120  -9.479  -2.646  0.00  0.00    -0.047 A 
ATOM     10  C   UNL     1      -2.426  -8.186  -3.031  0.00  0.00    -0.047 A 
ATOM     11  C   UNL     1      -1.872  -7.114  -2.360  0.00  0.00    +0.013 A 
ATOM     12  C   UNL     1      -3.370  -7.948  -4.181  0.00  0.00    +0.044 C 
ATOM     13  C   UNL     1      -2.733 -10.645  -3.377  0.00  0.00    +0.044 C 
ENDBRANCH   4   6
BRANCH   1  18
ATOM     14  C   UNL     1       0.073   1.503  -0.067  0.00  0.00    +0.044 C 
ATOM     15  C   UNL     1       0.073  -0.004  -0.058  0.00  0.00    -0.050 A 
ATOM     16  C   UNL     1       1.267  -0.693   0.047  0.00  0.00    +0.005 A 
ATOM     17  C   UNL     1       1.271  -2.074   0.055  0.00  0.00    +0.028 A 
ATOM     18  C   UNL     1       0.073  -2.771  -0.041  0.00  0.00    +0.066 A 
ATOM     19  C   UNL     1      -1.125  -2.075  -0.146  0.00  0.00    +0.028 A 
ATOM     20  C   UNL     1      -1.122  -0.694  -0.148  0.00  0.00    +0.005 A 
ENDBRANCH   1  18
BRANCH   2  21
ATOM     21  C   UNL     1       1.682  -4.489   1.906  0.00  0.00    +0.263 C 
ATOM     22  O   UNL     1       1.758  -3.302   2.164  0.00  0.00    -0.269 OA
ATOM     23  N   UNL     1       2.416  -5.378   2.603  0.00  0.00    -0.306 N 
ATOM     24  H   UNL     1       2.412  -6.315   2.351  0.00  0.00    +0.149 HD
BRANCH  23  25
ATOM     25  C   UNL     1       3.221  -4.931   3.743  0.00  0.00    +0.140 C 
BRANCH  25  26
ATOM     26  C   UNL     1       3.940  -6.111   4.344  0.00  0.00    -0.027 A 
ATOM     27  C   UNL     1       3.339  -6.847   5.347  0.00  0.00    +0.009 A 
ATOM     28  C   UNL     1       3.994  -7.931   5.902  0.00  0.00    +0.050 A 
ATOM     29  C   UNL     1       5.257  -8.281   5.453  0.00  0.00    +0.166 A 
ATOM     30  C   UNL     1       5.863  -7.539   4.442  0.00  0.00    +0.167 A 
ATOM     31  C   UNL     1       5.198  -6.458   3.887  0.00  0.00    +0.054 A 
ATOM     32  O   UNL     1       7.090  -8.078   4.181  0.00  0.00    -0.453 OA
ATOM     33  C   UNL     1       7.397  -8.905   5.319  0.00  0.00    +0.466 C 
ATOM     34  O   UNL     1       6.104  -9.285   5.824  0.00  0.00    -0.453 OA
ENDBRANCH  25  26
ENDBRANCH  23  25
ENDBRANCH   2  21
TORSDOF 5
