REMARK  Name = ZINC08739573
REMARK  9 active torsions:
REMARK  status: ('A' for Active; 'I' for Inactive)
REMARK    1  A    between atoms: C_1  and  C_2
REMARK    2  A    between atoms: C_2  and  C_3
REMARK    3  A    between atoms: C_3  and  C_4
REMARK    4  A    between atoms: C_7  and  C_10
REMARK    5  A    between atoms: C_10  and  C_12
REMARK    6  A    between atoms: C_14  and  C_37
REMARK    7  A    between atoms: C_37  and  O_39
REMARK    8  A    between atoms: O_39  and  C_40
REMARK    9  A    between atoms: C_40  and  C_41
REMARK                            x       y       z     vdW  Elec       q    Type
REMARK                         _______ _______ _______ _____ _____    ______ ____
ROOT
ATOM      1  C   UNL     1       6.093   3.772   1.269  0.00  0.00    +0.113 C 
ATOM      2  C   UNL     1       6.782   2.474   1.770  0.00  0.00    +0.195 C 
ATOM      3  N   UNL     1       8.195   2.806   1.918  0.00  0.00    -0.308 N 
ATOM      4  C   UNL     1       9.143   1.818   1.837  0.00  0.00    +0.038 A 
ATOM      5  C   UNL     1       8.852   0.469   1.891  0.00  0.00    +0.024 A 
ATOM      6  C   UNL     1       9.872  -0.461   1.796  0.00  0.00    +0.002 A 
ATOM      7  C   UNL     1      11.186  -0.051   1.647  0.00  0.00    +0.001 A 
ATOM      8  C   UNL     1      11.496   1.294   1.592  0.00  0.00    +0.010 A 
ATOM      9  C   UNL     1      10.484   2.239   1.689  0.00  0.00    -0.004 A 
ATOM     10  C   UNL     1      10.769   3.692   1.650  0.00  0.00    +0.007 C 
ATOM     11  C   UNL     1       9.777   4.514   1.265  0.00  0.00    -0.003 C 
ATOM     12  C   UNL     1       8.472   3.867   0.913  0.00  0.00    +0.118 C 
ATOM     13  C   UNL     1       7.250   4.770   1.057  0.00  0.00    +0.108 C 
ATOM     14  C   UNL     1       7.027   5.646  -0.124  0.00  0.00    -0.008 A 
ATOM     15  C   UNL     1       6.841   5.366  -1.461  0.00  0.00    +0.006 A 
ATOM     16  C   UNL     1       6.657   6.448  -2.315  0.00  0.00    +0.000 A 
ATOM     17  C   UNL     1       6.660   7.745  -1.843  0.00  0.00    +0.002 A 
ATOM     18  C   UNL     1       6.845   8.036  -0.500  0.00  0.00    +0.023 A 
ATOM     19  C   UNL     1       7.031   6.960   0.368  0.00  0.00    +0.038 A 
ATOM     20  N   UNL     1       7.236   6.961   1.737  0.00  0.00    -0.284 N 
ATOM     21  C   UNL     1       7.376   5.709   2.228  0.00  0.00    +0.231 C 
ATOM     22  O   UNL     1       7.566   5.402   3.386  0.00  0.00    -0.274 OA
ATOM     23  H   UNL     1       7.274   7.764   2.280  0.00  0.00    +0.155 HD
ENDROOT
BRANCH   1  24
ATOM     24  C   UNL     1       5.374   3.517  -0.030  0.00  0.00    +0.170 C 
ATOM     25  O   UNL     1       5.909   2.866  -0.902  0.00  0.00    -0.292 OA
BRANCH  24  29
ATOM     26  C   UNL     1       1.478   5.080  -0.639  0.00  0.00    -0.047 A 
ATOM     27  C   UNL     1       2.137   5.321   0.553  0.00  0.00    +0.004 A 
ATOM     28  C   UNL     1       3.402   4.811   0.761  0.00  0.00    +0.011 A 
ATOM     29  C   UNL     1       4.022   4.060  -0.242  0.00  0.00    +0.018 A 
ATOM     30  C   UNL     1       3.352   3.826  -1.446  0.00  0.00    +0.011 A 
ATOM     31  C   UNL     1       2.085   4.337  -1.637  0.00  0.00    +0.004 A 
BRANCH  26  32
ATOM     32  C   UNL     1       0.094   5.636  -0.856  0.00  0.00    +0.035 C 
BRANCH  32  34
ATOM     33  C   UNL     1      -2.349   5.184  -0.599  0.00  0.00    +0.004 C 
ATOM     34  C   UNL     1      -0.945   4.619  -0.379  0.00  0.00    +0.001 C 
ENDBRANCH  32  34
ENDBRANCH  26  32
ENDBRANCH  24  29
ENDBRANCH   1  24
BRANCH   2  35
ATOM     35  C   UNL     1       6.611   1.371   0.757  0.00  0.00    +0.329 C 
ATOM     36  O   UNL     1       7.511   1.102  -0.002  0.00  0.00    -0.249 OA
BRANCH  35  37
ATOM     37  O   UNL     1       5.457   0.686   0.699  0.00  0.00    -0.464 OA
BRANCH  37  38
ATOM     38  C   UNL     1       5.363  -0.363  -0.301  0.00  0.00    +0.229 C 
ATOM     39  C   UNL     1       3.987  -1.026  -0.216  0.00  0.00    +0.048 C 
ENDBRANCH  37  38
ENDBRANCH  35  37
ENDBRANCH   2  35
TORSDOF 7
