REMARK  Name = ZINC27662407
REMARK  10 active torsions:
REMARK  status: ('A' for Active; 'I' for Inactive)
REMARK    1  A    between atoms: C_1  and  C_2
REMARK    2  A    between atoms: C_5  and  C_34
REMARK    3  A    between atoms: C_6  and  C_8
REMARK    4  A    between atoms: C_8  and  C_10
REMARK    5  A    between atoms: N_14  and  C_27
REMARK    6  A    between atoms: C_15  and  C_17
REMARK    7  A    between atoms: C_19  and  O_25
REMARK    8  A    between atoms: C_20  and  O_24
REMARK    9  A    between atoms: O_25  and  C_26
REMARK   10  A    between atoms: C_27  and  C_28
REMARK                            x       y       z     vdW  Elec       q    Type
REMARK                         _______ _______ _______ _____ _____    ______ ____
ROOT
ATOM      1  C   UNL     1       2.813   4.230   3.294  0.00  0.00    +0.076 C 
ATOM      2  C   UNL     1       1.544   4.665   3.111  0.00  0.00    +0.249 C 
ATOM      3  C   UNL     1       1.095   4.290   1.753  0.00  0.00    +0.288 C 
ATOM      4  O   UNL     1       0.002   4.543   1.285  0.00  0.00    -0.266 OA
ATOM      5  N   UNL     1       2.074   3.625   1.112  0.00  0.00    -0.276 N 
ATOM      6  C   UNL     1       3.225   3.536   2.017  0.00  0.00    +0.145 C 
ATOM      7  O   UNL     1       0.806   5.338   4.022  0.00  0.00    -0.282 OA
ENDROOT
BRANCH   6   8
ATOM      8  C   UNL     1       4.417   4.231   1.410  0.00  0.00    -0.018 A 
ATOM      9  C   UNL     1       5.683   3.703   1.577  0.00  0.00    +0.055 A 
ATOM     10  C   UNL     1       6.779   4.338   1.015  0.00  0.00    +0.163 A 
ATOM     11  C   UNL     1       6.603   5.513   0.292  0.00  0.00    +0.173 A 
ATOM     12  C   UNL     1       5.331   6.041   0.132  0.00  0.00    +0.063 A 
ATOM     13  C   UNL     1       4.241   5.399   0.691  0.00  0.00    +0.025 A 
ATOM     14 BR   UNL     1       5.087   7.639  -0.849  0.00  0.00    -0.046 Br
BRANCH  11  15
ATOM     15  O   UNL     1       7.676   6.143  -0.258  0.00  0.00    -0.503 OA
ATOM     16  H   UNL     1       7.535   7.072  -0.829  0.00  0.00    +0.292 HD
ENDBRANCH  11  15
BRANCH  10  17
ATOM     17  O   UNL     1       8.025   3.816   1.175  0.00  0.00    -0.491 OA
ATOM     18  C   UNL     1       8.119   2.554   1.839  0.00  0.00    +0.277 C 
ENDBRANCH  10  17
ENDBRANCH   6   8
BRANCH   1  19
ATOM     19  C   UNL     1       3.629   4.401   4.500  0.00  0.00    +0.195 C 
ATOM     20  O   UNL     1       4.724   3.876   4.572  0.00  0.00    -0.287 OA
BRANCH  19  26
ATOM     21  C   UNL     1       1.640   4.673   9.069  0.00  0.00    +0.044 C 
ATOM     22  C   UNL     1       2.164   5.347   7.827  0.00  0.00    -0.050 A 
ATOM     23  C   UNL     1       2.171   6.728   7.741  0.00  0.00    +0.003 A 
ATOM     24  C   UNL     1       2.651   7.355   6.604  0.00  0.00    +0.004 A 
ATOM     25  C   UNL     1       3.126   6.605   5.548  0.00  0.00    -0.040 A 
ATOM     26  C   UNL     1       3.122   5.211   5.628  0.00  0.00    +0.025 A 
ATOM     27  C   UNL     1       2.631   4.585   6.776  0.00  0.00    +0.015 A 
ATOM     28  C   UNL     1       3.648   7.289   4.311  0.00  0.00    +0.044 C 
ENDBRANCH  19  26
ENDBRANCH   1  19
BRANCH   5  29
ATOM     29  C   UNL     1       2.004   3.090  -0.250  0.00  0.00    +0.183 C 
BRANCH  29  30
ATOM     30  C   UNL     1       1.485   1.676  -0.208  0.00  0.00    +0.122 A 
ATOM     31  C   UNL     1       0.193   1.309  -0.280  0.00  0.00    +0.046 A 
ATOM     32  C   UNL     1       0.163  -0.102  -0.204  0.00  0.00    +0.041 A 
ATOM     33  C   UNL     1       1.439  -0.514  -0.090  0.00  0.00    +0.195 A 
ATOM     34  O   UNL     1       2.235   0.568  -0.093  0.00  0.00    -0.466 OA
ENDBRANCH  29  30
ENDBRANCH   5  29
TORSDOF 7
