REMARK  Name = ZINC58913472
REMARK  11 active torsions:
REMARK  status: ('A' for Active; 'I' for Inactive)
REMARK    1  A    between atoms: C_1  and  C_2
REMARK    2  A    between atoms: C_5  and  N_9
REMARK    3  A    between atoms: C_7  and  C_8
REMARK    4  A    between atoms: C_10  and  C_36
REMARK    5  A    between atoms: C_12  and  C_15
REMARK    6  A    between atoms: C_13  and  C_14
REMARK    7  A    between atoms: N_16  and  N_17
REMARK    8  A    between atoms: C_18  and  C_20
REMARK    9  A    between atoms: N_22  and  C_23
REMARK   10  A    between atoms: C_26  and  O_29
REMARK   11  A    between atoms: O_29  and  C_30
REMARK                            x       y       z     vdW  Elec       q    Type
REMARK                         _______ _______ _______ _____ _____    ______ ____
ROOT
ATOM      1  N   UNL     1       5.013  -8.340   0.680  0.00  0.00    -0.199 N 
ATOM      2  C   UNL     1       5.742  -8.213  -0.447  0.00  0.00    +0.318 C 
ATOM      3  O   UNL     1       5.895  -7.119  -0.951  0.00  0.00    -0.263 OA
ATOM      4  H   UNL     1       4.891  -9.214   1.083  0.00  0.00    +0.178 HD
ENDROOT
BRANCH   2   5
ATOM      5  C   UNL     1       6.359  -9.416  -1.074  0.00  0.00    +0.305 C 
ATOM      6  O   UNL     1       6.205 -10.510  -0.570  0.00  0.00    -0.265 OA
ATOM      7  N   UNL     1       7.087  -9.289  -2.201  0.00  0.00    -0.278 N 
ATOM      8  H   UNL     1       7.113  -8.440  -2.669  0.00  0.00    +0.155 HD
BRANCH   7   9
ATOM      9  C   UNL     1       7.806 -10.383  -2.696  0.00  0.00    +0.034 A 
ATOM     10  C   UNL     1       8.947 -10.176  -3.460  0.00  0.00    +0.027 A 
ATOM     11  C   UNL     1       9.656 -11.255  -3.947  0.00  0.00    +0.048 A 
ATOM     12  C   UNL     1       9.228 -12.547  -3.675  0.00  0.00    +0.129 A 
ATOM     13  C   UNL     1       8.088 -12.755  -2.912  0.00  0.00    +0.048 A 
ATOM     14  C   UNL     1       7.381 -11.676  -2.419  0.00  0.00    +0.027 A 
BRANCH  12  15
ATOM     15  O   UNL     1       9.927 -13.610  -4.156  0.00  0.00    -0.456 OA
BRANCH  15  16
ATOM     16  C   UNL     1       9.378 -14.846  -4.025  0.00  0.00    +0.128 A 
ATOM     17  C   UNL     1       8.355 -15.246  -4.873  0.00  0.00    +0.046 A 
ATOM     18  C   UNL     1       7.799 -16.503  -4.738  0.00  0.00    +0.004 A 
ATOM     19  C   UNL     1       8.261 -17.363  -3.758  0.00  0.00    +0.000 A 
ATOM     20  C   UNL     1       9.279 -16.966  -2.911  0.00  0.00    +0.004 A 
ATOM     21  C   UNL     1       9.843 -15.712  -3.046  0.00  0.00    +0.046 A 
ENDBRANCH  15  16
ENDBRANCH  12  15
ENDBRANCH   7   9
ENDBRANCH   2   5
BRANCH   1  23
ATOM     22  C   UNL     1       3.730  -7.331   2.356  0.00  0.00    +0.140 C 
ATOM     23  N   UNL     1       4.433  -7.209   1.270  0.00  0.00    -0.187 NA
BRANCH  22  27
ATOM     24  N   UNL     1       2.501  -4.062   3.388  0.00  0.00    -0.317 N 
ATOM     25  C   UNL     1       1.962  -4.820   4.389  0.00  0.00    +0.022 A 
ATOM     26  C   UNL     1       2.305  -6.106   4.194  0.00  0.00    +0.032 A 
ATOM     27  C   UNL     1       3.120  -6.143   2.976  0.00  0.00    +0.016 A 
ATOM     28  C   UNL     1       3.198  -4.853   2.529  0.00  0.00    +0.030 A 
ATOM     29  C   UNL     1       3.931  -4.388   1.297  0.00  0.00    +0.064 C 
ATOM     30  C   UNL     1       1.121  -4.299   5.526  0.00  0.00    +0.064 C 
BRANCH  24  35
ATOM     31  C   UNL     1       1.902   1.558   2.880  0.00  0.00    +0.044 C 
ATOM     32  C   UNL     1       2.061   0.066   3.014  0.00  0.00    -0.047 A 
ATOM     33  C   UNL     1       1.515  -0.775   2.063  0.00  0.00    +0.005 A 
ATOM     34  C   UNL     1       1.659  -2.143   2.184  0.00  0.00    +0.026 A 
ATOM     35  C   UNL     1       2.354  -2.674   3.262  0.00  0.00    +0.047 A 
ATOM     36  C   UNL     1       2.901  -1.827   4.216  0.00  0.00    +0.029 A 
ATOM     37  C   UNL     1       2.759  -0.459   4.087  0.00  0.00    -0.046 A 
ATOM     38  C   UNL     1       3.358   0.461   5.118  0.00  0.00    +0.044 C 
ENDBRANCH  24  35
ENDBRANCH  22  27
ENDBRANCH   1  23
TORSDOF 7
