REMARK  Name = ZINC65181535
REMARK  9 active torsions:
REMARK  status: ('A' for Active; 'I' for Inactive)
REMARK    1  A    between atoms: C_1  and  N_2
REMARK    2  A    between atoms: N_2  and  C_3
REMARK    3  A    between atoms: C_3  and  C_4
REMARK    4  A    between atoms: C_4  and  C_5
REMARK    5  A    between atoms: C_8  and  C_11
REMARK    6  A    between atoms: C_21  and  C_23
REMARK    7  A    between atoms: C_23  and  C_24
REMARK    8  A    between atoms: C_27  and  O_31
REMARK    9  A    between atoms: O_31  and  C_32
REMARK                            x       y       z     vdW  Elec       q    Type
REMARK                         _______ _______ _______ _____ _____    ______ ____
ROOT
ATOM      1  C   UNL     1      -1.411  -1.020   1.720  0.00  0.00    +0.094 C 
ENDROOT
BRANCH   1   2
ATOM      2  C   UNL     1      -1.388  -1.781   3.021  0.00  0.00    +0.139 C 
ATOM      3  N   UNL     1      -0.316  -2.126   3.637  0.00  0.00    -0.072 NA
ATOM      4  O   UNL     1      -0.619  -2.826   4.830  0.00  0.00    -0.367 OA
ATOM      5  C   UNL     1      -2.052  -2.891   4.907  0.00  0.00    +0.318 C 
ATOM      6  N   UNL     1      -2.513  -2.187   3.700  0.00  0.00    -0.291 N 
ATOM      7  H   UNL     1      -3.434  -2.038   3.434  0.00  0.00    +0.151 HD
BRANCH   5   8
ATOM      8  C   UNL     1      -2.522  -4.347   4.898  0.00  0.00    +0.165 C 
ATOM      9  C   UNL     1      -4.030  -4.408   5.004  0.00  0.00    +0.012 C 
ATOM     10  C   UNL     1      -4.299  -5.087   6.142  0.00  0.00    -0.004 A 
ATOM     11  C   UNL     1      -5.555  -5.475   6.795  0.00  0.00    +0.010 A 
ATOM     12  C   UNL     1      -5.504  -6.168   7.956  0.00  0.00    +0.001 A 
ATOM     13  C   UNL     1      -4.284  -6.524   8.549  0.00  0.00    +0.002 A 
ATOM     14  C   UNL     1      -3.090  -6.203   8.008  0.00  0.00    +0.026 A 
ATOM     15  C   UNL     1      -3.025  -5.475   6.788  0.00  0.00    +0.043 A 
ATOM     16  N   UNL     1      -2.006  -5.052   6.077  0.00  0.00    -0.373 N 
ATOM     17  H   UNL     1      -1.070  -5.184   6.293  0.00  0.00    +0.160 HD
ENDBRANCH   5   8
ENDBRANCH   1   2
BRANCH   1  18
ATOM     18  C   UNL     1       0.024  -0.743   1.267  0.00  0.00    +0.115 C 
BRANCH  18  20
ATOM     19  C   UNL     1      -0.018   1.461   0.010  0.00  0.00    +0.132 C 
ATOM     20  N   UNL     1       0.002  -0.004   0.002  0.00  0.00    -0.304 N 
ATOM     21  C   UNL     1       0.000  -0.672  -1.169  0.00  0.00    +0.220 C 
ATOM     22  O   UNL     1       0.017  -1.884  -1.175  0.00  0.00    -0.275 OA
BRANCH  21  23
ATOM     23  C   UNL     1      -0.023   0.089  -2.470  0.00  0.00    +0.131 C 
BRANCH  23  24
ATOM     24  C   UNL     1      -0.020  -0.884  -3.620  0.00  0.00    -0.037 A 
ATOM     25  C   UNL     1       1.179  -1.318  -4.155  0.00  0.00    +0.008 A 
ATOM     26  C   UNL     1       1.184  -2.209  -5.210  0.00  0.00    +0.047 A 
ATOM     27  C   UNL     1      -0.015  -2.671  -5.734  0.00  0.00    +0.138 A 
ATOM     28  C   UNL     1      -1.217  -2.234  -5.195  0.00  0.00    +0.083 A 
ATOM     29  C   UNL     1      -1.217  -1.346  -4.136  0.00  0.00    +0.027 A 
ATOM     30 CL   UNL     1      -2.720  -2.809  -5.847  0.00  0.00    -0.080 Cl
BRANCH  27  31
ATOM     31  O   UNL     1      -0.012  -3.547  -6.772  0.00  0.00    -0.494 OA
ATOM     32  C   UNL     1       1.263  -3.953  -7.276  0.00  0.00    +0.277 C 
ENDBRANCH  27  31
ENDBRANCH  23  24
ENDBRANCH  21  23
ENDBRANCH  18  20
ENDBRANCH   1  18
TORSDOF 7
