REMARK  Name = ZINC01775043
REMARK  10 active torsions:
REMARK  status: ('A' for Active; 'I' for Inactive)
REMARK    1  A    between atoms: C_1  and  C_2
REMARK    2  A    between atoms: C_2  and  O_3
REMARK    3  A    between atoms: O_3  and  C_4
REMARK    4  A    between atoms: C_4  and  C_6
REMARK    5  A    between atoms: C_9  and  C_12
REMARK    6  A    between atoms: C_15  and  C_17
REMARK    7  A    between atoms: C_18  and  C_19
REMARK    8  A    between atoms: C_18  and  C_21
REMARK    9  A    between atoms: N_23  and  C_24
REMARK   10  A    between atoms: C_25  and  C_33
REMARK                            x       y       z     vdW  Elec       q    Type
REMARK                         _______ _______ _______ _____ _____    ______ ____
ROOT
ATOM      1  C   UNL     1      -8.560   4.186   0.069  0.00  0.00    +0.070 C 
ATOM      2  C   UNL     1      -9.067   2.896   0.065  0.00  0.00    +0.117 C 
ENDROOT
BRANCH   1   6
ATOM      3  C   UNL     1      -5.006   4.003   0.049  0.00  0.00    +0.136 A 
ATOM      4  C   UNL     1      -5.162   5.373   0.057  0.00  0.00    +0.050 A 
ATOM      5  C   UNL     1      -6.533   5.628   0.066  0.00  0.00    +0.050 A 
ATOM      6  C   UNL     1      -7.170   4.396   0.063  0.00  0.00    +0.130 A 
ATOM      7  O   UNL     1      -6.224   3.433   0.047  0.00  0.00    -0.455 OA
BRANCH   3  11
ATOM      8  C   UNL     1      -1.303   1.931   0.019  0.00  0.00    +0.059 A 
ATOM      9  C   UNL     1      -1.321   3.329   0.032  0.00  0.00    +0.015 A 
ATOM     10  C   UNL     1      -2.518   3.999   0.036  0.00  0.00    +0.012 A 
ATOM     11  C   UNL     1      -3.719   3.283   0.038  0.00  0.00    +0.017 A 
ATOM     12  C   UNL     1      -3.700   1.885   0.030  0.00  0.00    +0.012 A 
ATOM     13  C   UNL     1      -2.504   1.216   0.021  0.00  0.00    +0.015 A 
BRANCH   8  14
ATOM     14  C   UNL     1      -0.014   1.211   0.009  0.00  0.00    +0.339 C 
ATOM     15  O   UNL     1       0.002  -0.004   0.002  0.00  0.00    -0.245 OA
BRANCH  14  16
ATOM     16  O   UNL     1       1.143   1.900   0.001  0.00  0.00    -0.461 OA
BRANCH  16  18
ATOM     17  C   UNL     1       3.572   2.075  -0.021  0.00  0.00    +0.048 C 
ATOM     18  C   UNL     1       2.372   1.126  -0.015  0.00  0.00    +0.229 C 
ENDBRANCH  16  18
ENDBRANCH  14  16
ENDBRANCH   8  14
ENDBRANCH   3  11
ENDBRANCH   1   6
BRANCH   2  19
ATOM     19  C   UNL     1     -10.518   2.677   0.071  0.00  0.00    +0.259 C 
ATOM     20  O   UNL     1     -11.277   3.628   0.080  0.00  0.00    -0.269 OA
ATOM     21  N   UNL     1     -11.011   1.422   0.067  0.00  0.00    -0.275 N 
ATOM     22  H   UNL     1     -10.406   0.664   0.060  0.00  0.00    +0.156 HD
BRANCH  21  23
ATOM     23  C   UNL     1     -12.380   1.215   0.073  0.00  0.00    +0.085 A 
ATOM     24  C   UNL     1     -13.071   0.011   0.065  0.00  0.00    +0.068 A 
ATOM     25  C   UNL     1     -14.523   0.070   0.079  0.00  0.00    -0.023 A 
ATOM     26  C   UNL     1     -15.048   1.315   0.087  0.00  0.00    -0.004 A 
ATOM     27  S   UNL     1     -13.647   2.397   0.086  0.00  0.00    -0.077 S 
ATOM     28  C   UNL     1     -16.500   1.682   0.096  0.00  0.00    +0.043 C 
ATOM     29  C   UNL     1     -17.316   0.438  -0.285  0.00  0.00    +0.005 C 
ATOM     30  C   UNL     1     -16.819  -0.750   0.544  0.00  0.00    +0.005 C 
ATOM     31  C   UNL     1     -15.421  -1.161   0.078  0.00  0.00    +0.037 C 
BRANCH  24  32
ATOM     32  C   UNL     1     -12.362  -1.272   0.047  0.00  0.00    +0.244 C 
ATOM     33  O   UNL     1     -12.062  -1.816   1.093  0.00  0.00    -0.270 OA
ATOM     34  N   UNL     1     -12.043  -1.849  -1.129  0.00  0.00    -0.325 N 
ATOM     35  H   UNL     1     -12.283  -1.415  -1.962  0.00  0.00    +0.145 HD
ATOM     36  H   UNL     1     -11.574  -2.698  -1.141  0.00  0.00    +0.145 HD
ENDBRANCH  24  32
ENDBRANCH  21  23
ENDBRANCH   2  19
BRANCH   2  37
ATOM     37  C   UNL     1      -8.174   1.776   0.054  0.00  0.00    +0.104 C 
ATOM     38  N   UNL     1      -7.465   0.888   0.046  0.00  0.00    -0.191 NA
ENDBRANCH   2  37
TORSDOF 9
