REMARK  Name = ZINC11819388
REMARK  6 active torsions:
REMARK  status: ('A' for Active; 'I' for Inactive)
REMARK    1  A    between atoms: C_1  and  O_2
REMARK    2  A    between atoms: O_2  and  C_3
REMARK    3  A    between atoms: C_8  and  C_9
REMARK    4  A    between atoms: C_9  and  N_10
REMARK    5  A    between atoms: C_15  and  C_23
REMARK    6  A    between atoms: C_28  and  C_29
REMARK                            x       y       z     vdW  Elec       q    Type
REMARK                         _______ _______ _______ _____ _____    ______ ____
ROOT
ATOM      1  N   UNL     1      -4.351   4.790  -4.234  0.00  0.00    -0.298 N 
ATOM      2  C   UNL     1      -3.021   5.041  -4.800  0.00  0.00    +0.110 C 
ATOM      3  C   UNL     1      -2.318   6.009  -3.825  0.00  0.00    +0.003 C 
ATOM      4  C   UNL     1      -1.595   5.201  -2.735  0.00  0.00    -0.007 C 
ATOM      5  C   UNL     1      -2.125   5.734  -1.395  0.00  0.00    -0.032 C 
ATOM      6  C   UNL     1      -3.523   6.649  -3.095  0.00  0.00    +0.018 C 
ATOM      7  C   UNL     1      -4.664   5.702  -3.295  0.00  0.00    +0.206 C 
ATOM      8  O   UNL     1      -5.719   5.750  -2.697  0.00  0.00    -0.277 OA
ATOM      9  C   UNL     1      -3.797   8.057  -3.626  0.00  0.00    -0.004 C 
ATOM     10  C   UNL     1      -3.466   8.999  -2.441  0.00  0.00    -0.019 C 
ATOM     11  C   UNL     1      -2.539   8.129  -1.552  0.00  0.00    -0.077 C 
ATOM     12  N   UNL     1      -3.121   6.782  -1.710  0.00  0.00    +0.394 N 
ATOM     13  H   UNL     1      -3.935   6.678  -1.093  0.00  0.00    -0.079 HD
ENDROOT
BRANCH   5  14
ATOM     14  C   UNL     1      -0.991   6.326  -0.598  0.00  0.00    -0.016 A 
ATOM     15  C   UNL     1       0.212   6.701  -1.084  0.00  0.00    +0.107 A 
ATOM     16  N   UNL     1       0.946   7.181  -0.057  0.00  0.00    -0.284 N 
ATOM     17  H   UNL     1       1.881   7.530  -0.116  0.00  0.00    +0.188 HD
ATOM     18  N   UNL     1       0.169   7.106   1.107  0.00  0.00    -0.174 NA
ATOM     19  C   UNL     1      -0.997   6.586   0.787  0.00  0.00    +0.094 A 
BRANCH  19  20
ATOM     20  C   UNL     1      -2.122   6.325   1.719  0.00  0.00    +0.002 A 
ATOM     21  C   UNL     1      -1.875   5.778   2.976  0.00  0.00    +0.013 A 
ATOM     22  C   UNL     1      -2.924   5.537   3.840  0.00  0.00    +0.039 A 
ATOM     23  C   UNL     1      -4.221   5.838   3.458  0.00  0.00    +0.123 A 
ATOM     24  C   UNL     1      -4.472   6.377   2.207  0.00  0.00    +0.039 A 
ATOM     25  C   UNL     1      -3.428   6.627   1.339  0.00  0.00    +0.013 A 
ATOM     26  F   UNL     1      -5.245   5.599   4.306  0.00  0.00    -0.205 F 
ENDBRANCH  19  20
ENDBRANCH   5  14
BRANCH   1  27
ATOM     27  C   UNL     1      -5.227   3.687  -4.638  0.00  0.00    +0.146 C 
BRANCH  27  33
ATOM     28  C   UNL     1      -5.481   2.398  -2.502  0.00  0.00    +0.125 A 
ATOM     29  C   UNL     1      -5.223   1.285  -1.715  0.00  0.00    +0.046 A 
ATOM     30  C   UNL     1      -4.427   0.266  -2.201  0.00  0.00    +0.004 A 
ATOM     31  C   UNL     1      -3.890   0.353  -3.473  0.00  0.00    +0.001 A 
ATOM     32  C   UNL     1      -4.150   1.459  -4.261  0.00  0.00    +0.009 A 
ATOM     33  C   UNL     1      -4.946   2.481  -3.779  0.00  0.00    +0.011 A 
BRANCH  28  35
ATOM     34  C   UNL     1      -6.777   3.252  -0.701  0.00  0.00    +0.277 C 
ATOM     35  O   UNL     1      -6.259   3.404  -2.024  0.00  0.00    -0.495 OA
ENDBRANCH  28  35
ENDBRANCH  27  33
ENDBRANCH   1  27
TORSDOF 5
