REMARK  Name = ZINC39498479
REMARK  11 active torsions:
REMARK  status: ('A' for Active; 'I' for Inactive)
REMARK    1  A    between atoms: C_4  and  O_7
REMARK    2  A    between atoms: O_7  and  S_8
REMARK    3  A    between atoms: S_8  and  C_11
REMARK    4  A    between atoms: C_14  and  C_28
REMARK    5  A    between atoms: C_15  and  S_18
REMARK    6  A    between atoms: C_16  and  O_17
REMARK    7  A    between atoms: S_18  and  O_21
REMARK    8  A    between atoms: O_21  and  C_22
REMARK    9  A    between atoms: C_28  and  C_30
REMARK   10  A    between atoms: C_28  and  N_33
REMARK   11  A    between atoms: C_30  and  C_31
REMARK                            x       y       z     vdW  Elec       q    Type
REMARK                         _______ _______ _______ _____ _____    ______ ____
ROOT
ATOM      1  C   UNL     1       3.173  -2.462   1.949  0.00  0.00    +0.171 A 
ATOM      2  C   UNL     1       1.934  -2.239   2.518  0.00  0.00    +0.035 A 
ATOM      3  C   UNL     1       1.140  -3.308   2.889  0.00  0.00    +0.009 A 
ATOM      4  C   UNL     1       1.583  -4.603   2.691  0.00  0.00    +0.005 A 
ATOM      5  C   UNL     1       2.820  -4.831   2.122  0.00  0.00    +0.176 A 
ATOM      6  C   UNL     1       3.617  -3.760   1.744  0.00  0.00    +0.174 A 
ENDROOT
BRANCH   1   7
ATOM      7  S   UNL     1       4.184  -1.099   1.477  0.00  0.00    +0.155 S 
ATOM      8  O   UNL     1       5.524  -1.573   1.463  0.00  0.00    -0.131 OA
ATOM      9  O   UNL     1       3.776   0.005   2.274  0.00  0.00    -0.131 OA
BRANCH   7  10
ATOM     10  O   UNL     1       3.830  -0.752   0.038  0.00  0.00    -0.342 OA
BRANCH  10  14
ATOM     11  C   UNL     1       0.228   1.216  -0.376  0.00  0.00    +0.000 A 
ATOM     12  C   UNL     1       1.391   1.938  -0.191  0.00  0.00    +0.004 A 
ATOM     13  C   UNL     1       2.599   1.282  -0.052  0.00  0.00    +0.048 A 
ATOM     14  C   UNL     1       2.643  -0.104  -0.098  0.00  0.00    +0.157 A 
ATOM     15  C   UNL     1       1.474  -0.827  -0.283  0.00  0.00    +0.048 A 
ATOM     16  C   UNL     1       0.269  -0.166  -0.422  0.00  0.00    +0.004 A 
ENDBRANCH  10  14
ENDBRANCH   7  10
ENDBRANCH   1   7
BRANCH   5  17
ATOM     17  S   UNL     1       3.384  -6.481   1.869  0.00  0.00    +0.155 S 
ATOM     18  O   UNL     1       4.197  -6.808   2.988  0.00  0.00    -0.131 OA
ATOM     19  O   UNL     1       2.245  -7.249   1.506  0.00  0.00    -0.131 OA
BRANCH  17  20
ATOM     20  O   UNL     1       4.302  -6.463   0.655  0.00  0.00    -0.342 OA
BRANCH  20  21
ATOM     21  C   UNL     1       3.646  -6.376  -0.532  0.00  0.00    +0.157 A 
ATOM     22  C   UNL     1       3.169  -7.524  -1.148  0.00  0.00    +0.048 A 
ATOM     23  C   UNL     1       2.502  -7.433  -2.354  0.00  0.00    +0.004 A 
ATOM     24  C   UNL     1       2.310  -6.199  -2.948  0.00  0.00    +0.000 A 
ATOM     25  C   UNL     1       2.785  -5.054  -2.337  0.00  0.00    +0.004 A 
ATOM     26  C   UNL     1       3.447  -5.139  -1.127  0.00  0.00    +0.048 A 
ENDBRANCH  20  21
ENDBRANCH  17  20
ENDBRANCH   5  17
BRANCH   6  27
ATOM     27  O   UNL     1       4.833  -3.982   1.178  0.00  0.00    -0.503 OA
ATOM     28  H   UNL     1       5.544  -4.122   1.818  0.00  0.00    +0.292 HD
ENDBRANCH   6  27
BRANCH   4  29
ATOM     29  C   UNL     1       0.715  -5.766   3.096  0.00  0.00    +0.112 C 
BRANCH  29  30
ATOM     30  N   UNL     1       0.057  -6.322   1.911  0.00  0.00    -0.311 N 
ATOM     31  C   UNL     1      -0.705  -5.530   1.130  0.00  0.00    +0.326 C 
ATOM     32  O   UNL     1      -0.772  -4.340   1.355  0.00  0.00    -0.280 OA
ATOM     33  H   UNL     1       0.169  -7.259   1.688  0.00  0.00    +0.149 HD
ENDBRANCH  29  30
BRANCH  29  34
ATOM     34  C   UNL     1      -0.345  -5.289   4.092  0.00  0.00    +0.097 C 
BRANCH  34  35
ATOM     35  C   UNL     1      -1.134  -6.472   4.591  0.00  0.00    +0.225 C 
ATOM     36  O   UNL     1      -1.222  -6.682   5.777  0.00  0.00    -0.301 OA
ENDBRANCH  34  35
ENDBRANCH  29  34
ENDBRANCH   4  29
TORSDOF 11
