REMARK  Name = ZINC12531894
REMARK  4 active torsions:
REMARK  status: ('A' for Active; 'I' for Inactive)
REMARK    1  A    between atoms: C_4  and  C_7
REMARK    2  A    between atoms: C_8  and  C_13
REMARK    3  A    between atoms: N_15  and  N_16
REMARK    4  A    between atoms: C_17  and  C_19
REMARK                            x       y       z     vdW  Elec       q    Type
REMARK                         _______ _______ _______ _____ _____    ______ ____
ROOT
ATOM      1  C   UNL     1       1.178  -0.662  -0.013  0.00  0.00    +0.264 C 
ATOM      2  O   UNL     1       2.223  -0.040  -0.019  0.00  0.00    -0.269 OA
ATOM      3  N   UNL     1       0.002  -0.004   0.002  0.00  0.00    -0.230 N 
ATOM      4  H   UNL     1      -0.831  -0.500   0.007  0.00  0.00    +0.173 HD
ENDROOT
BRANCH   1   6
ATOM      5  C   UNL     1       2.384  -2.997  -0.043  0.00  0.00    +0.105 A 
ATOM      6  C   UNL     1       1.198  -2.135  -0.021  0.00  0.00    +0.083 A 
ATOM      7  C   UNL     1       0.105  -2.976  -0.015  0.00  0.00    +0.118 A 
ATOM      8  N   UNL     1       0.557  -4.239  -0.026  0.00  0.00    -0.283 N 
ATOM      9  H   UNL     1      -0.018  -5.057  -0.025  0.00  0.00    +0.188 HD
ATOM     10  N   UNL     1       1.955  -4.239  -0.039  0.00  0.00    -0.173 NA
BRANCH   5  14
ATOM     11  C   UNL     1       6.439  -1.721  -0.095  0.00  0.00    +0.000 A 
ATOM     12  C   UNL     1       6.086  -2.869   0.592  0.00  0.00    +0.001 A 
ATOM     13  C   UNL     1       4.772  -3.288   0.613  0.00  0.00    +0.010 A 
ATOM     14  C   UNL     1       3.798  -2.552  -0.061  0.00  0.00    +0.003 A 
ATOM     15  C   UNL     1       4.160  -1.399  -0.756  0.00  0.00    +0.010 A 
ATOM     16  C   UNL     1       5.477  -0.987  -0.765  0.00  0.00    +0.001 A 
ENDBRANCH   5  14
ENDBRANCH   1   6
BRANCH   3  17
ATOM     17  N   UNL     1      -0.017   1.397   0.010  0.00  0.00    -0.230 N 
ATOM     18  C   UNL     1      -1.193   2.055   0.019  0.00  0.00    +0.267 C 
ATOM     19  O   UNL     1      -2.239   1.432   0.021  0.00  0.00    -0.268 OA
ATOM     20  H   UNL     1       0.816   1.893   0.004  0.00  0.00    +0.173 HD
BRANCH  18  21
ATOM     21  C   UNL     1      -1.213   3.520   0.027  0.00  0.00    +0.076 A 
ATOM     22  C   UNL     1      -2.298   4.378   0.037  0.00  0.00    +0.024 A 
ATOM     23  C   UNL     1      -2.054   5.741   0.044  0.00  0.00    -0.036 A 
ATOM     24  C   UNL     1      -0.745   6.132   0.040  0.00  0.00    -0.006 A 
ATOM     25  S   UNL     1       0.157   4.665   0.035  0.00  0.00    -0.088 S 
ATOM     26  C   UNL     1      -0.222   7.535   0.045  0.00  0.00    +0.043 C 
ATOM     27  C   UNL     1      -1.373   8.483  -0.320  0.00  0.00    +0.005 C 
ATOM     28  C   UNL     1      -2.598   8.117   0.524  0.00  0.00    +0.005 C 
ATOM     29  C   UNL     1      -3.172   6.780   0.056  0.00  0.00    +0.036 C 
ENDBRANCH  18  21
ENDBRANCH   3  17
TORSDOF 4
