REMARK  Name = ZINC08897717
REMARK  7 active torsions:
REMARK  status: ('A' for Active; 'I' for Inactive)
REMARK    1  A    between atoms: C_1  and  N_56
REMARK    2  A    between atoms: C_2  and  C_3
REMARK    3  A    between atoms: C_2  and  N_56
REMARK    4  A    between atoms: C_15  and  C_16
REMARK    5  A    between atoms: C_15  and  N_56
REMARK    6  A    between atoms: C_19  and  C_31
REMARK    7  A    between atoms: C_22  and  C_24
REMARK                            x       y       z     vdW  Elec       q    Type
REMARK                         _______ _______ _______ _____ _____    ______ ____
ROOT
ATOM      1  C   UNL     1       3.181  -6.443   0.412  0.00  0.00    +0.219 C 
ATOM      2  O   UNL     1       4.027  -5.574   0.382  0.00  0.00    -0.276 OA
ATOM      3  N   UNL     1       3.537  -7.722   0.644  0.00  0.00    -0.184 N 
ATOM      4  C   UNL     1       4.910  -8.200   0.875  0.00  0.00    +0.172 C 
ATOM      5  C   UNL     1       4.735  -9.718   1.080  0.00  0.00    +0.090 C 
ATOM      6  C   UNL     1       3.245  -9.935   0.938  0.00  0.00    +0.069 C 
ATOM      7  N   UNL     1       2.666  -8.807   0.709  0.00  0.00    -0.181 NA
ENDROOT
BRANCH   6   8
ATOM      8  C   UNL     1       2.560 -11.236   1.052  0.00  0.00    -0.002 A 
ATOM      9  C   UNL     1       3.296 -12.396   1.305  0.00  0.00    +0.011 A 
ATOM     10  C   UNL     1       2.649 -13.609   1.416  0.00  0.00    +0.020 A 
ATOM     11  C   UNL     1       1.274 -13.680   1.265  0.00  0.00    +0.041 A 
ATOM     12  C   UNL     1       0.539 -12.534   1.009  0.00  0.00    +0.020 A 
ATOM     13  C   UNL     1       1.173 -11.314   0.902  0.00  0.00    +0.011 A 
ATOM     14 CL   UNL     1       0.468 -15.211   1.399  0.00  0.00    -0.084 Cl
ENDBRANCH   6   8
BRANCH   4  15
ATOM     15  C   UNL     1       5.778  -7.920  -0.325  0.00  0.00    +0.128 A 
ATOM     16  C   UNL     1       7.063  -7.525  -0.291  0.00  0.00    +0.046 A 
ATOM     17  C   UNL     1       7.483  -7.381  -1.633  0.00  0.00    +0.041 A 
ATOM     18  C   UNL     1       6.430  -7.698  -2.407  0.00  0.00    +0.195 A 
ATOM     19  O   UNL     1       5.401  -8.029  -1.609  0.00  0.00    -0.466 OA
ENDBRANCH   4  15
BRANCH   1  20
ATOM     20  C   UNL     1       1.732  -6.093   0.191  0.00  0.00    +0.021 C 
BRANCH  20  22
ATOM     21  C   UNL     1       2.257  -4.256  -1.296  0.00  0.00    -0.095 C 
ATOM     22  N   UNL     1       1.620  -4.634  -0.017  0.00  0.00    +0.388 N 
ATOM     23  H   UNL     1       2.101  -4.150   0.751  0.00  0.00    -0.081 HD
BRANCH  22  24
ATOM     24  C   UNL     1       0.198  -4.232  -0.022  0.00  0.00    -0.003 C 
BRANCH  24  25
ATOM     25  C   UNL     1       0.119  -2.727  -0.013  0.00  0.00    +0.094 A 
ATOM     26  N   UNL     1      -1.110  -2.147   0.002  0.00  0.00    -0.312 N 
ATOM     27  H   UNL     1      -1.904  -2.703   0.007  0.00  0.00    +0.170 HD
ATOM     28  C   UNL     1      -1.235  -0.799   0.010  0.00  0.00    +0.259 A 
ATOM     29  O   UNL     1      -2.329  -0.266   0.024  0.00  0.00    -0.267 OA
ATOM     30  C   UNL     1       0.002  -0.004   0.002  0.00  0.00    +0.065 A 
ATOM     31  C   UNL     1      -0.017   1.389   0.010  0.00  0.00    +0.015 A 
ATOM     32  C   UNL     1       1.173   2.084   0.002  0.00  0.00    +0.001 A 
ATOM     33  C   UNL     1       2.386   1.408  -0.013  0.00  0.00    +0.002 A 
ATOM     34  C   UNL     1       2.426   0.032  -0.021  0.00  0.00    +0.028 A 
ATOM     35  C   UNL     1       1.234  -0.695  -0.013  0.00  0.00    +0.078 A 
ATOM     36  N   UNL     1       1.228  -2.051  -0.020  0.00  0.00    -0.236 NA
ENDBRANCH  24  25
ENDBRANCH  22  24
ENDBRANCH  20  22
ENDBRANCH   1  20
TORSDOF 6
