REMARK  Name = ZINC08440713
REMARK  11 active torsions:
REMARK  status: ('A' for Active; 'I' for Inactive)
REMARK    1  A    between atoms: C_1  and  C_2
REMARK    2  A    between atoms: C_4  and  O_9
REMARK    3  A    between atoms: O_9  and  C_10
REMARK    4  A    between atoms: C_10  and  C_11
REMARK    5  A    between atoms: C_14  and  C_16
REMARK    6  A    between atoms: C_21  and  C_25
REMARK    7  A    between atoms: C_21  and  C_26
REMARK    8  A    between atoms: C_28  and  C_34
REMARK    9  A    between atoms: C_29  and  C_30
REMARK   10  A    between atoms: C_30  and  O_32
REMARK   11  A    between atoms: O_32  and  C_33
REMARK                            x       y       z     vdW  Elec       q    Type
REMARK                         _______ _______ _______ _____ _____    ______ ____
ROOT
ATOM      1  C   UNL     1      -9.355   5.152   2.430  0.00  0.00    +0.128 C 
ATOM      2  C   UNL     1      -9.059   6.271   3.396  0.00  0.00    +0.027 C 
ATOM      3  C   UNL     1      -8.245   7.289   3.044  0.00  0.00    +0.016 C 
ATOM      4  C   UNL     1      -7.948   8.415   4.004  0.00  0.00    +0.058 C 
ATOM      5  C   UNL     1      -7.997   7.891   5.441  0.00  0.00    -0.023 C 
ATOM      6  C   UNL     1      -9.386   7.294   5.693  0.00  0.00    +0.086 C 
ATOM      7  C   UNL     1      -9.650   6.223   4.671  0.00  0.00    +0.162 C 
ATOM      8  O   UNL     1     -10.389   5.300   4.951  0.00  0.00    -0.292 OA
ATOM      9  C   UNL     1      -6.931   6.811   5.632  0.00  0.00    +0.011 C 
ATOM     10  C   UNL     1      -7.743   9.043   6.416  0.00  0.00    +0.011 C 
ATOM     11  N   UNL     1      -7.674   7.323   1.800  0.00  0.00    -0.321 N 
ATOM     12  C   UNL     1      -8.201   6.592   0.772  0.00  0.00    +0.016 C 
ATOM     13  C   UNL     1      -9.011   5.549   1.024  0.00  0.00    +0.068 C 
ATOM     14  C   UNL     1      -7.870   6.956  -0.652  0.00  0.00    +0.061 C 
ATOM     15  H   UNL     1      -6.784   7.944   1.620  0.00  0.00    +0.152 HD
ENDROOT
BRANCH   1  19
ATOM     16  C   UNL     1      -6.832   2.637   3.232  0.00  0.00    +0.142 A 
ATOM     17  C   UNL     1      -7.940   1.904   3.444  0.00  0.00    +0.048 A 
ATOM     18  C   UNL     1      -9.045   2.745   3.180  0.00  0.00    +0.046 A 
ATOM     19  C   UNL     1      -8.546   3.940   2.813  0.00  0.00    +0.118 A 
ATOM     20  O   UNL     1      -7.206   3.869   2.846  0.00  0.00    -0.460 OA
BRANCH  16  21
ATOM     21  C   UNL     1      -5.413   2.157   3.392  0.00  0.00    +0.303 C 
BRANCH  21  22
ATOM     22  O   UNL     1      -4.954   1.606   2.156  0.00  0.00    -0.484 OA
BRANCH  22  26
ATOM     23  C   UNL     1      -1.327  -0.510  -0.332  0.00  0.00    +0.045 C 
ATOM     24  C   UNL     1      -1.882   0.085   0.937  0.00  0.00    -0.029 A 
ATOM     25  C   UNL     1      -3.172   0.580   0.960  0.00  0.00    +0.050 A 
ATOM     26  C   UNL     1      -3.684   1.123   2.129  0.00  0.00    +0.121 A 
ATOM     27  C   UNL     1      -2.895   1.179   3.270  0.00  0.00    +0.047 A 
ATOM     28  C   UNL     1      -1.605   0.689   3.240  0.00  0.00    +0.024 A 
ATOM     29  C   UNL     1      -1.097   0.142   2.075  0.00  0.00    +0.044 A 
ATOM     30 CL   UNL     1       0.526  -0.474   2.041  0.00  0.00    -0.083 Cl
ENDBRANCH  22  26
ENDBRANCH  21  22
ENDBRANCH  16  21
ENDBRANCH   1  19
BRANCH  13  31
ATOM     31  C   UNL     1      -9.551   4.813  -0.057  0.00  0.00    +0.337 C 
ATOM     32  O   UNL     1      -9.381   5.196  -1.199  0.00  0.00    -0.245 OA
BRANCH  31  33
ATOM     33  O   UNL     1     -10.254   3.686   0.179  0.00  0.00    -0.465 OA
ATOM     34  C   UNL     1     -10.770   2.993  -0.959  0.00  0.00    +0.280 C 
ENDBRANCH  31  33
ENDBRANCH  13  31
TORSDOF 6
