REMARK  Name = ZINC25105313
REMARK  11 active torsions:
REMARK  status: ('A' for Active; 'I' for Inactive)
REMARK    1  A    between atoms: C_1  and  C_2
REMARK    2  A    between atoms: C_5  and  S_28
REMARK    3  A    between atoms: C_7  and  N_8
REMARK    4  A    between atoms: C_9  and  C_11
REMARK    5  A    between atoms: C_11  and  C_13
REMARK    6  A    between atoms: C_11  and  O_14
REMARK    7  A    between atoms: O_14  and  C_15
REMARK    8  A    between atoms: C_15  and  C_17
REMARK    9  A    between atoms: S_28  and  N_31
REMARK   10  A    between atoms: N_31  and  C_32
REMARK   11  A    between atoms: N_31  and  C_33
REMARK                            x       y       z     vdW  Elec       q    Type
REMARK                         _______ _______ _______ _____ _____    ______ ____
ROOT
ATOM      1  N   UNL     1      -1.982   1.007   5.764  0.00  0.00    -0.282 N 
ATOM      2  C   UNL     1      -1.232   0.766   4.670  0.00  0.00    +0.258 C 
ATOM      3  O   UNL     1      -0.561  -0.242   4.604  0.00  0.00    -0.271 OA
ATOM      4  H   UNL     1      -2.518   1.962   5.865  0.00  0.00    +0.155 HD
ENDROOT
BRANCH   1  11
ATOM      5  C   UNL     1      -2.597   1.875   8.403  0.00  0.00    +0.045 C 
ATOM      6  C   UNL     1      -2.376   0.421   8.074  0.00  0.00    -0.029 A 
ATOM      7  C   UNL     1      -2.475  -0.535   9.066  0.00  0.00    +0.007 A 
ATOM      8  C   UNL     1      -2.267  -1.868   8.766  0.00  0.00    +0.029 A 
ATOM      9  C   UNL     1      -1.964  -2.250   7.472  0.00  0.00    +0.107 A 
ATOM     10  C   UNL     1      -1.869  -1.300   6.475  0.00  0.00    +0.052 A 
ATOM     11  C   UNL     1      -2.078   0.041   6.773  0.00  0.00    +0.038 A 
BRANCH   9  12
ATOM     12  S   UNL     1      -1.701  -3.951   7.095  0.00  0.00    +0.060 S 
ATOM     13  O   UNL     1      -2.384  -4.699   8.092  0.00  0.00    -0.153 OA
ATOM     14  O   UNL     1      -1.970  -4.106   5.708  0.00  0.00    -0.153 OA
BRANCH  12  15
ATOM     15  N   UNL     1      -0.086  -4.253   7.300  0.00  0.00    -0.183 NA
ATOM     16  C   UNL     1       0.418  -4.689   8.604  0.00  0.00    +0.131 C 
ATOM     17  C   UNL     1       0.840  -4.085   6.176  0.00  0.00    +0.131 C 
ENDBRANCH  12  15
ENDBRANCH   9  12
ENDBRANCH   1  11
BRANCH   2  18
ATOM     18  C   UNL     1      -1.227   1.751   3.530  0.00  0.00    +0.259 C 
ATOM     19  C   UNL     1      -0.612   3.071   3.998  0.00  0.00    +0.062 C 
BRANCH  18  20
ATOM     20  O   UNL     1      -0.444   1.215   2.431  0.00  0.00    -0.450 OA
BRANCH  20  21
ATOM     21  C   UNL     1      -0.800   1.585   1.191  0.00  0.00    +0.349 C 
ATOM     22  O   UNL     1      -1.736   2.332   1.029  0.00  0.00    -0.247 OA
BRANCH  21  23
ATOM     23  C   UNL     1      -0.034   1.068   0.001  0.00  0.00    +0.286 C 
ATOM     24  C   UNL     1       1.403   1.643  -0.018  0.00  0.00    +0.095 C 
ATOM     25  C   UNL     1       1.645   1.832  -1.503  0.00  0.00    -0.000 A 
ATOM     26  C   UNL     1       2.795   2.038  -2.233  0.00  0.00    +0.027 A 
ATOM     27  C   UNL     1       2.725   2.173  -3.609  0.00  0.00    +0.041 A 
ATOM     28  C   UNL     1       1.498   2.100  -4.245  0.00  0.00    +0.023 A 
ATOM     29  C   UNL     1       0.346   1.896  -3.514  0.00  0.00    +0.047 A 
ATOM     30  C   UNL     1       0.407   1.762  -2.129  0.00  0.00    +0.125 A 
ATOM     31  O   UNL     1      -0.593   1.568  -1.226  0.00  0.00    -0.477 OA
ATOM     32 CL   UNL     1       4.171   2.433  -4.534  0.00  0.00    -0.084 Cl
ENDBRANCH  21  23
ENDBRANCH  20  21
ENDBRANCH  18  20
ENDBRANCH   2  18
TORSDOF 7
