REMARK  Name = ZINC39483570
REMARK  5 active torsions:
REMARK  status: ('A' for Active; 'I' for Inactive)
REMARK    1  A    between atoms: C_1  and  C_2
REMARK    2  A    between atoms: C_2  and  C_3
REMARK    3  A    between atoms: C_2  and  S_4
REMARK    4  A    between atoms: S_4  and  C_7
REMARK    5  A    between atoms: C_22  and  C_23
REMARK                            x       y       z     vdW  Elec       q    Type
REMARK                         _______ _______ _______ _____ _____    ______ ____
ROOT
ATOM      1  C   UNL     1      -2.352  -2.223  -0.374  0.00  0.00    +0.115 A 
ATOM      2  C   UNL     1      -3.052  -2.838   0.639  0.00  0.00    +0.029 A 
ATOM      3  C   UNL     1      -3.014  -4.218   0.793  0.00  0.00    +0.003 A 
ATOM      4  C   UNL     1      -2.279  -5.001  -0.070  0.00  0.00    +0.015 A 
ATOM      5  C   UNL     1      -1.568  -4.400  -1.107  0.00  0.00    +0.067 A 
ATOM      6  C   UNL     1      -1.598  -2.995  -1.263  0.00  0.00    +0.103 A 
ATOM      7  N   UNL     1      -0.881  -2.434  -2.252  0.00  0.00    -0.227 NA
ATOM      8  C   UNL     1      -0.183  -3.151  -3.110  0.00  0.00    +0.140 A 
ATOM      9  N   UNL     1      -0.166  -4.523  -3.080  0.00  0.00    -0.293 N 
ATOM     10  C   UNL     1      -0.778  -5.185  -2.063  0.00  0.00    +0.262 A 
ATOM     11  O   UNL     1      -0.688  -6.394  -1.958  0.00  0.00    -0.267 OA
ATOM     12  C   UNL     1       0.468  -5.313  -4.128  0.00  0.00    +0.127 C 
ATOM     13  C   UNL     1       1.595  -4.600  -4.839  0.00  0.00    +0.026 C 
ATOM     14  C   UNL     1       1.224  -3.190  -5.263  0.00  0.00    +0.040 C 
ATOM     15  C   UNL     1       0.615  -2.437  -4.116  0.00  0.00    -0.004 C 
ATOM     16  C   UNL     1       0.800  -1.107  -4.009  0.00  0.00    +0.015 C 
ENDROOT
BRANCH  16  17
ATOM     17  C   UNL     1       1.460  -0.365  -5.097  0.00  0.00    -0.021 A 
ATOM     18  C   UNL     1       1.284  -0.764  -6.425  0.00  0.00    +0.046 A 
ATOM     19  C   UNL     1       1.906  -0.064  -7.440  0.00  0.00    +0.125 A 
ATOM     20  C   UNL     1       2.702   1.031  -7.144  0.00  0.00    +0.053 A 
ATOM     21  C   UNL     1       2.879   1.431  -5.831  0.00  0.00    +0.021 A 
ATOM     22  C   UNL     1       2.259   0.745  -4.807  0.00  0.00    +0.023 A 
ATOM     23 BR   UNL     1       3.968   2.927  -5.439  0.00  0.00    -0.050 Br
ATOM     24  F   UNL     1       1.738  -0.448  -8.725  0.00  0.00    -0.205 F 
ENDBRANCH  16  17
BRANCH   1  25
ATOM     25  S   UNL     1      -2.413  -0.471  -0.554  0.00  0.00    +0.001 S 
ATOM     26  O   UNL     1      -3.275  -0.029   0.486  0.00  0.00    -0.169 OA
ATOM     27  O   UNL     1      -2.754  -0.258  -1.917  0.00  0.00    -0.169 OA
BRANCH  25  29
ATOM     28  C   UNL     1      -0.674   1.618  -0.246  0.00  0.00    +0.032 C 
ATOM     29  C   UNL     1      -0.716   0.089  -0.239  0.00  0.00    +0.130 C 
ATOM     30  C   UNL     1      -0.254  -0.428   1.125  0.00  0.00    +0.032 C 
ENDBRANCH  25  29
ENDBRANCH   1  25
TORSDOF 3
