REMARK  Name = ZINC35632039
REMARK  6 active torsions:
REMARK  status: ('A' for Active; 'I' for Inactive)
REMARK    1  A    between atoms: C_1  and  C_2
REMARK    2  A    between atoms: C_2  and  C_4
REMARK    3  A    between atoms: C_2  and  O_22
REMARK    4  A    between atoms: C_7  and  O_13
REMARK    5  A    between atoms: C_8  and  N_10
REMARK    6  A    between atoms: O_13  and  C_14
REMARK                            x       y       z     vdW  Elec       q    Type
REMARK                         _______ _______ _______ _____ _____    ______ ____
ROOT
ATOM      1  C   UNL     1       0.751  -0.267   1.318  0.00  0.00    -0.017 A 
ATOM      2  C   UNL     1       2.116  -0.479   1.259  0.00  0.00    +0.010 A 
ATOM      3  C   UNL     1       2.780  -1.016   2.345  0.00  0.00    +0.049 A 
ATOM      4  C   UNL     1       2.076  -1.341   3.495  0.00  0.00    +0.159 A 
ATOM      5  C   UNL     1       0.706  -1.127   3.552  0.00  0.00    +0.168 A 
ATOM      6  C   UNL     1       0.048  -0.586   2.465  0.00  0.00    +0.042 A 
ENDROOT
BRANCH   5   7
ATOM      7  N   UNL     1      -0.048  -1.474   4.777  0.00  0.00    +0.060 N 
ATOM      8  O   UNL     1      -1.242  -1.286   4.826  0.00  0.00    -0.126 OA
ATOM      9  O   UNL     1       0.529  -1.943   5.730  0.00  0.00    -0.126 OA
ENDBRANCH   5   7
BRANCH   1  11
ATOM     10  C   UNL     1       0.232   1.835   0.109  0.00  0.00    +0.043 C 
ATOM     11  C   UNL     1       0.029   0.319   0.131  0.00  0.00    +0.141 C 
BRANCH  11  12
ATOM     12  O   UNL     1       0.550  -0.249  -1.072  0.00  0.00    -0.387 OA
ATOM     13  H   UNL     1       0.131   0.083  -1.877  0.00  0.00    +0.210 HD
ENDBRANCH  11  12
ENDBRANCH   1  11
BRANCH   4  14
ATOM     14  O   UNL     1       2.726  -1.870   4.565  0.00  0.00    -0.453 OA
BRANCH  14  15
ATOM     15  C   UNL     1       4.081  -1.961   4.507  0.00  0.00    +0.143 A 
ATOM     16  C   UNL     1       4.681  -3.134   4.071  0.00  0.00    +0.050 A 
ATOM     17  C   UNL     1       6.058  -3.224   4.012  0.00  0.00    +0.042 A 
ATOM     18  C   UNL     1       6.840  -2.146   4.387  0.00  0.00    +0.125 A 
ATOM     19  C   UNL     1       6.245  -0.974   4.822  0.00  0.00    +0.057 A 
ATOM     20  C   UNL     1       4.867  -0.878   4.877  0.00  0.00    +0.063 A 
ATOM     21 BR   UNL     1       4.053   0.725   5.464  0.00  0.00    -0.046 Br
ATOM     22  F   UNL     1       8.187  -2.236   4.329  0.00  0.00    -0.205 F 
ENDBRANCH  14  15
ENDBRANCH   4  14
TORSDOF 5
