REMARK  Name = ZINC35664913
REMARK  11 active torsions:
REMARK  status: ('A' for Active; 'I' for Inactive)
REMARK    1  A    between atoms: C_1  and  C_2
REMARK    2  A    between atoms: C_2  and  O_3
REMARK    3  A    between atoms: O_3  and  C_4
REMARK    4  A    between atoms: C_4  and  C_6
REMARK    5  A    between atoms: C_7  and  C_24
REMARK    6  A    between atoms: N_8  and  C_21
REMARK    7  A    between atoms: C_12  and  C_14
REMARK    8  A    between atoms: C_18  and  C_20
REMARK    9  A    between atoms: C_21  and  C_22
REMARK   10  A    between atoms: C_24  and  N_25
REMARK   11  A    between atoms: C_32  and  C_34
REMARK                            x       y       z     vdW  Elec       q    Type
REMARK                         _______ _______ _______ _____ _____    ______ ____
ROOT
ATOM      1  C   UNL     1       1.952  -3.304  -2.506  0.00  0.00    +0.076 C 
ATOM      2  C   UNL     1       2.866  -4.279  -2.316  0.00  0.00    +0.011 C 
ATOM      3  N   UNL     1       4.020  -4.316  -3.046  0.00  0.00    -0.257 N 
ATOM      4  C   UNL     1       4.334  -3.413  -3.984  0.00  0.00    +0.307 C 
ATOM      5  O   UNL     1       5.385  -3.529  -4.583  0.00  0.00    -0.252 OA
ATOM      6  N   UNL     1       3.522  -2.381  -4.287  0.00  0.00    -0.288 N 
ATOM      7  C   UNL     1       2.247  -2.255  -3.560  0.00  0.00    +0.143 C 
ATOM      8  H   UNL     1       3.769  -1.739  -4.970  0.00  0.00    +0.151 HD
ENDROOT
BRANCH   7   9
ATOM      9  C   UNL     1       2.232  -0.906  -2.889  0.00  0.00    -0.022 A 
ATOM     10  C   UNL     1       3.337  -0.474  -2.179  0.00  0.00    +0.006 A 
ATOM     11  C   UNL     1       3.323   0.764  -1.565  0.00  0.00    +0.001 A 
ATOM     12  C   UNL     1       2.204   1.571  -1.660  0.00  0.00    +0.003 A 
ATOM     13  C   UNL     1       1.100   1.139  -2.370  0.00  0.00    -0.050 A 
ATOM     14  C   UNL     1       1.116  -0.097  -2.989  0.00  0.00    +0.009 A 
ATOM     15  C   UNL     1      -0.120   2.018  -2.474  0.00  0.00    +0.044 C 
ENDBRANCH   7   9
BRANCH   1  16
ATOM     16  C   UNL     1       0.756  -3.265  -1.751  0.00  0.00    +0.339 C 
ATOM     17  O   UNL     1       0.593  -4.042  -0.829  0.00  0.00    -0.245 OA
BRANCH  16  18
ATOM     18  O   UNL     1      -0.204  -2.365  -2.053  0.00  0.00    -0.462 OA
BRANCH  18  20
ATOM     19  C   UNL     1      -2.350  -1.301  -1.738  0.00  0.00    +0.048 C 
ATOM     20  C   UNL     1      -1.385  -2.383  -1.249  0.00  0.00    +0.229 C 
ENDBRANCH  18  20
ENDBRANCH  16  18
ENDBRANCH   1  16
BRANCH   3  21
ATOM     21  C   UNL     1       4.967  -5.403  -2.788  0.00  0.00    +0.141 C 
BRANCH  21  22
ATOM     22  C   UNL     1       4.693  -6.543  -3.734  0.00  0.00    -0.015 C 
ATOM     23  C   UNL     1       5.655  -7.016  -4.487  0.00  0.00    +0.005 C 
ENDBRANCH  21  22
ENDBRANCH   3  21
BRANCH   2  24
ATOM     24  C   UNL     1       2.609  -5.345  -1.282  0.00  0.00    -0.026 C 
BRANCH  24  25
ATOM     25  N   UNL     1       3.350  -5.024  -0.054  0.00  0.00    +0.384 N 
ATOM     26  C   UNL     1       3.329  -6.197   0.816  0.00  0.00    -0.077 C 
ATOM     27  C   UNL     1       4.579  -6.210   1.668  0.00  0.00    +0.000 C 
ATOM     28  C   UNL     1       4.290  -5.520   3.013  0.00  0.00    +0.106 C 
ATOM     29  N   UNL     1       3.434  -4.330   2.827  0.00  0.00    -0.299 N 
ATOM     30  C   UNL     1       3.625  -3.402   1.732  0.00  0.00    +0.089 C 
ATOM     31  C   UNL     1       2.794  -3.854   0.509  0.00  0.00    -0.059 C 
ATOM     32  C   UNL     1       2.440  -4.101   3.708  0.00  0.00    +0.249 C 
ATOM     33  O   UNL     1       1.674  -3.173   3.531  0.00  0.00    -0.270 OA
ATOM     34  H   UNL     1       4.309  -4.832  -0.304  0.00  0.00    -0.081 HD
BRANCH  32  35
ATOM     35  C   UNL     1       2.281  -4.975   4.887  0.00  0.00    +0.072 A 
ATOM     36  C   UNL     1       3.401  -5.376   5.619  0.00  0.00    +0.016 A 
ATOM     37  C   UNL     1       3.246  -6.192   6.719  0.00  0.00    +0.001 A 
ATOM     38  C   UNL     1       1.984  -6.616   7.100  0.00  0.00    +0.003 A 
ATOM     39  C   UNL     1       0.870  -6.225   6.382  0.00  0.00    +0.039 A 
ATOM     40  C   UNL     1       1.009  -5.402   5.279  0.00  0.00    +0.135 A 
ATOM     41  F   UNL     1      -0.081  -5.015   4.580  0.00  0.00    -0.205 F 
ENDBRANCH  32  35
ENDBRANCH  24  25
ENDBRANCH   2  24
TORSDOF 9
