REMARK  Name = ZINC66348865
REMARK  11 active torsions:
REMARK  status: ('A' for Active; 'I' for Inactive)
REMARK    1  A    between atoms: C_1  and  C_2
REMARK    2  A    between atoms: C_2  and  O_3
REMARK    3  A    between atoms: O_3  and  C_4
REMARK    4  A    between atoms: C_10  and  C_33
REMARK    5  A    between atoms: N_14  and  C_15
REMARK    6  A    between atoms: C_15  and  C_16
REMARK    7  A    between atoms: C_19  and  C_22
REMARK    8  A    between atoms: C_27  and  C_28
REMARK    9  A    between atoms: C_33  and  O_35
REMARK   10  A    between atoms: O_35  and  C_36
REMARK   11  A    between atoms: C_36  and  C_37
REMARK                            x       y       z     vdW  Elec       q    Type
REMARK                         _______ _______ _______ _____ _____    ______ ____
ROOT
ATOM      1  C   UNL     1      -1.802  -1.102   1.144  0.00  0.00    +0.264 C 
ATOM      2  N   UNL     1      -0.622  -1.614   0.891  0.00  0.00    -0.315 N 
ATOM      3  C   UNL     1      -0.711  -2.892   0.522  0.00  0.00    +0.042 C 
ATOM      4  C   UNL     1       0.211  -3.871   0.415  0.00  0.00    +0.023 C 
ATOM      5  C   UNL     1      -0.297  -5.233   0.181  0.00  0.00    -0.002 C 
ATOM      6  C   UNL     1      -1.578  -5.520   0.411  0.00  0.00    -0.010 C 
ATOM      7  C   UNL     1      -2.554  -4.473   0.895  0.00  0.00    +0.147 C 
ATOM      8  C   UNL     1      -2.189  -3.140   0.253  0.00  0.00    +0.142 C 
ATOM      9  N   UNL     1      -2.821  -1.990   0.905  0.00  0.00    -0.273 N 
ATOM     10  H   UNL     1       0.212  -1.123   0.962  0.00  0.00    +0.170 HD
ENDROOT
BRANCH   7  11
ATOM     11  C   UNL     1      -3.954  -4.865   0.498  0.00  0.00    +0.316 C 
ATOM     12  O   UNL     1      -4.508  -4.291  -0.409  0.00  0.00    -0.250 OA
BRANCH  11  13
ATOM     13  O   UNL     1      -4.586  -5.851   1.154  0.00  0.00    -0.464 OA
BRANCH  13  14
ATOM     14  C   UNL     1      -5.912  -6.169   0.725  0.00  0.00    +0.229 C 
ATOM     15  C   UNL     1      -6.466  -7.308   1.583  0.00  0.00    +0.048 C 
ENDBRANCH  13  14
ENDBRANCH  11  13
ENDBRANCH   7  11
BRANCH   1  16
ATOM     16  O   UNL     1      -1.993   0.155   1.596  0.00  0.00    -0.467 OA
BRANCH  16  18
ATOM     17  C   UNL     1      -1.241   2.339   2.305  0.00  0.00    +0.048 C 
ATOM     18  C   UNL     1      -0.828   0.957   1.795  0.00  0.00    +0.228 C 
ENDBRANCH  16  18
ENDBRANCH   1  16
BRANCH   9  19
ATOM     19  C   UNL     1      -4.240  -1.822   1.230  0.00  0.00    +0.145 C 
BRANCH  19  20
ATOM     20  C   UNL     1      -4.471  -2.188   2.673  0.00  0.00    -0.030 A 
ATOM     21  C   UNL     1      -4.923  -3.454   2.999  0.00  0.00    +0.006 A 
ATOM     22  C   UNL     1      -5.136  -3.795   4.319  0.00  0.00    +0.009 A 
ATOM     23  C   UNL     1      -4.896  -2.860   5.325  0.00  0.00    -0.017 A 
ATOM     24  C   UNL     1      -4.442  -1.586   4.991  0.00  0.00    +0.009 A 
ATOM     25  C   UNL     1      -4.226  -1.258   3.668  0.00  0.00    +0.006 A 
BRANCH  23  26
ATOM     26  C   UNL     1      -5.125  -3.220   6.745  0.00  0.00    -0.007 A 
ATOM     27  C   UNL     1      -6.324  -3.810   7.134  0.00  0.00    +0.009 A 
ATOM     28  C   UNL     1      -6.532  -4.144   8.457  0.00  0.00    +0.001 A 
ATOM     29  C   UNL     1      -5.554  -3.895   9.405  0.00  0.00    +0.001 A 
ATOM     30  C   UNL     1      -4.359  -3.312   9.038  0.00  0.00    +0.012 A 
ATOM     31  C   UNL     1      -4.129  -2.973   7.705  0.00  0.00    +0.030 A 
BRANCH  31  32
ATOM     32  C   UNL     1      -2.848  -2.353   7.306  0.00  0.00    +0.207 A 
ATOM     33  N   UNL     1      -2.496  -1.968   6.077  0.00  0.00    -0.106 NA
ATOM     34  N   UNL     1      -1.306  -1.477   6.152  0.00  0.00    -0.021 NA
ATOM     35  N   UNL     1      -0.897  -1.536   7.370  0.00  0.00    -0.021 NA
ATOM     36  N   UNL     1      -1.819  -2.061   8.103  0.00  0.00    -0.106 NA
ENDBRANCH  31  32
ENDBRANCH  23  26
ENDBRANCH  19  20
ENDBRANCH   9  19
TORSDOF 9
