REMARK  Name = ZINC39733504
REMARK  8 active torsions:
REMARK  status: ('A' for Active; 'I' for Inactive)
REMARK    1  A    between atoms: C_1  and  C_2
REMARK    2  A    between atoms: C_2  and  O_3
REMARK    3  A    between atoms: O_3  and  C_4
REMARK    4  A    between atoms: C_4  and  C_6
REMARK    5  A    between atoms: C_8  and  N_17
REMARK    6  A    between atoms: C_18  and  C_20
REMARK    7  A    between atoms: C_20  and  S_21
REMARK    8  A    between atoms: S_21  and  C_22
REMARK                            x       y       z     vdW  Elec       q    Type
REMARK                         _______ _______ _______ _____ _____    ______ ____
ROOT
ATOM      1  N   UNL     1       1.657  -1.668  -4.937  0.00  0.00    -0.301 N 
ATOM      2  C   UNL     1       1.341  -2.125  -6.165  0.00  0.00    +0.224 C 
ATOM      3  O   UNL     1       0.289  -2.702  -6.345  0.00  0.00    -0.275 OA
ATOM      4  H   UNL     1       2.498  -1.207  -4.793  0.00  0.00    +0.150 HD
ENDROOT
BRANCH   1   6
ATOM      5  C   UNL     1       1.468  -2.353  -2.550  0.00  0.00    +0.155 C 
ATOM      6  C   UNL     1       0.730  -1.867  -3.820  0.00  0.00    +0.153 C 
ATOM      7  S   UNL     1      -0.353  -3.332  -4.092  0.00  0.00    -0.106 S 
ATOM      8  C   UNL     1       0.597  -4.529  -3.184  0.00  0.00    -0.013 C 
ATOM      9  C   UNL     1       1.481  -3.859  -2.459  0.00  0.00    -0.044 C 
ATOM     10  C   UNL     1       2.478  -4.593  -1.565  0.00  0.00    +0.032 C 
ATOM     11  C   UNL     1       1.970  -6.010  -1.305  0.00  0.00    +0.005 C 
ATOM     12  C   UNL     1       1.649  -6.691  -2.639  0.00  0.00    +0.005 C 
ATOM     13  C   UNL     1       0.417  -6.020  -3.240  0.00  0.00    +0.042 C 
BRANCH   5  14
ATOM     14  C   UNL     1       0.775  -1.794  -1.334  0.00  0.00    +0.317 C 
ATOM     15  O   UNL     1       0.314  -2.540  -0.504  0.00  0.00    -0.250 OA
BRANCH  14  16
ATOM     16  O   UNL     1       0.671  -0.465  -1.174  0.00  0.00    -0.464 OA
BRANCH  16  18
ATOM     17  C   UNL     1      -0.019   1.526   0.010  0.00  0.00    +0.048 C 
ATOM     18  C   UNL     1       0.002  -0.004   0.002  0.00  0.00    +0.229 C 
ENDBRANCH  16  18
ENDBRANCH  14  16
ENDBRANCH   5  14
ENDBRANCH   1   6
BRANCH   2  19
ATOM     19  C   UNL     1       2.294  -1.920  -7.314  0.00  0.00    +0.173 C 
BRANCH  19  20
ATOM     20  S   UNL     1       1.589  -2.642  -8.821  0.00  0.00    -0.076 S 
BRANCH  20  21
ATOM     21  C   UNL     1       2.805  -2.325 -10.056  0.00  0.00    +0.198 A 
ATOM     22  N   UNL     1       3.951  -1.708  -9.881  0.00  0.00    -0.120 NA
ATOM     23  N   UNL     1       4.599  -1.647 -10.990  0.00  0.00    -0.107 NA
ATOM     24  C   UNL     1       3.901  -2.226 -11.949  0.00  0.00    +0.260 A 
ATOM     25  N   UNL     1       2.736  -2.679 -11.373  0.00  0.00    -0.258 N 
ATOM     26  C   UNL     1       1.793  -3.338 -12.124  0.00  0.00    +0.037 A 
ATOM     27  C   UNL     1       2.026  -3.529 -13.434  0.00  0.00    +0.039 A 
ATOM     28  C   UNL     1       3.240  -3.057 -13.995  0.00  0.00    +0.278 A 
ATOM     29  O   UNL     1       3.488  -3.253 -15.312  0.00  0.00    -0.265 OA
ATOM     30  N   UNL     1       4.125  -2.427 -13.256  0.00  0.00    -0.171 NA
ATOM     31  C   UNL     1       1.049  -4.218 -14.347  0.00  0.00    +0.042 C 
ATOM     32  C   UNL     1       0.037  -5.031 -13.541  0.00  0.00    +0.005 C 
ATOM     33  C   UNL     1      -0.551  -4.123 -12.454  0.00  0.00    +0.006 C 
ATOM     34  C   UNL     1       0.546  -3.822 -11.435  0.00  0.00    +0.054 C 
ENDBRANCH  20  21
ENDBRANCH  19  20
ENDBRANCH   2  19
TORSDOF 7
