REMARK  Name = ZINC00720046
REMARK  4 active torsions:
REMARK  status: ('A' for Active; 'I' for Inactive)
REMARK    1  A    between atoms: C_4  and  N_7
REMARK    2  A    between atoms: C_16  and  C_24
REMARK    3  A    between atoms: C_16  and  C_28
REMARK    4  A    between atoms: C_17  and  C_19
REMARK                            x       y       z     vdW  Elec       q    Type
REMARK                         _______ _______ _______ _____ _____    ______ ____
ROOT
ATOM      1  N   UNL     1       3.603   5.625   1.085  0.00  0.00    -0.250 N 
ATOM      2  C   UNL     1       2.858   6.165   0.064  0.00  0.00    +0.124 A 
ATOM      3  C   UNL     1       2.308   7.404   0.211  0.00  0.00    +0.098 A 
ATOM      4  C   UNL     1       2.513   8.102   1.413  0.00  0.00    +0.262 A 
ATOM      5  O   UNL     1       2.028   9.210   1.571  0.00  0.00    -0.267 OA
ATOM      6  N   UNL     1       3.248   7.537   2.391  0.00  0.00    -0.274 N 
ATOM      7  H   UNL     1       3.395   8.031   3.248  0.00  0.00    +0.173 HD
ATOM      8  C   UNL     1       3.787   6.315   2.227  0.00  0.00    +0.335 A 
ATOM      9  O   UNL     1       4.448   5.827   3.122  0.00  0.00    -0.246 OA
ATOM     10  C   UNL     1       1.496   8.018  -0.893  0.00  0.00    +0.264 C 
ATOM     11  C   UNL     1       1.639   5.846  -1.956  0.00  0.00    +0.113 C 
ATOM     12  N   UNL     1       2.651   5.461  -1.097  0.00  0.00    -0.286 N 
ATOM     13  H   UNL     1       3.215   4.702  -1.314  0.00  0.00    +0.155 HD
ATOM     14  N   UNL     1       1.020   7.037  -1.931  0.00  0.00    -0.348 N 
ATOM     15  H   UNL     1       0.262   7.266  -2.584  0.00  0.00    +0.162 HD
ENDROOT
BRANCH   1  19
ATOM     16  C   UNL     1       5.302   1.845   0.645  0.00  0.00    +0.000 A 
ATOM     17  C   UNL     1       6.017   2.970   0.277  0.00  0.00    +0.002 A 
ATOM     18  C   UNL     1       5.457   4.224   0.421  0.00  0.00    +0.026 A 
ATOM     19  C   UNL     1       4.174   4.355   0.937  0.00  0.00    +0.053 A 
ATOM     20  C   UNL     1       3.461   3.224   1.311  0.00  0.00    +0.026 A 
ATOM     21  C   UNL     1       4.025   1.972   1.159  0.00  0.00    +0.002 A 
ENDBRANCH   1  19
BRANCH  11  22
ATOM     22  C   UNL     1       1.172   4.905  -2.985  0.00  0.00    +0.050 A 
ATOM     23  C   UNL     1       0.181   5.073  -3.936  0.00  0.00    +0.019 A 
ATOM     24  C   UNL     1      -0.052   4.021  -4.790  0.00  0.00    +0.008 A 
ATOM     25  C   UNL     1       0.678   2.885  -4.657  0.00  0.00    +0.046 A 
ATOM     26  S   UNL     1       1.736   3.248  -3.333  0.00  0.00    -0.094 S 
ENDBRANCH  11  22
BRANCH  10  27
ATOM     27  C   UNL     1       2.332   9.091  -1.593  0.00  0.00    +0.426 C 
ATOM     28  F   UNL     1       1.568   9.698  -2.596  0.00  0.00    -0.167 F 
ATOM     29  F   UNL     1       2.728  10.056  -0.661  0.00  0.00    -0.167 F 
ATOM     30  F   UNL     1       3.465   8.501  -2.163  0.00  0.00    -0.167 F 
ENDBRANCH  10  27
BRANCH  10  31
ATOM     31  C   UNL     1       0.248   8.669  -0.293  0.00  0.00    +0.426 C 
ATOM     32  F   UNL     1      -0.321   7.806   0.650  0.00  0.00    -0.167 F 
ATOM     33  F   UNL     1       0.603   9.871   0.330  0.00  0.00    -0.167 F 
ATOM     34  F   UNL     1      -0.679   8.926  -1.308  0.00  0.00    -0.167 F 
ENDBRANCH  10  31
TORSDOF 4
