REMARK  Name = ZINC38570487
REMARK  16 active torsions:
REMARK  status: ('A' for Active; 'I' for Inactive)
REMARK    1  A    between atoms: C_1  and  C_2
REMARK    2  A    between atoms: C_2  and  C_4
REMARK    3  A    between atoms: C_2  and  N_25
REMARK    4  A    between atoms: N_6  and  C_7
REMARK    5  A    between atoms: C_7  and  C_8
REMARK    6  A    between atoms: C_11  and  C_14
REMARK    7  A    between atoms: N_16  and  CA_17
REMARK    8  A    between atoms: CA_17  and  CB_19
REMARK    9  A    between atoms: CA_17  and  C_22
REMARK   10  A    between atoms: CB_19  and  CG1_20
REMARK   11  A    between atoms: CB_19  and  CG2_21
REMARK   12  A    between atoms: C_26  and  O_28
REMARK   13  A    between atoms: O_28  and  C_29
REMARK   14  A    between atoms: C_29  and  C_30
REMARK   15  A    between atoms: C_29  and  C_31
REMARK   16  A    between atoms: C_29  and  C_32
REMARK                            x       y       z     vdW  Elec       q    Type
REMARK                         _______ _______ _______ _____ _____    ______ ____
ROOT
ATOM      1  C   UNK A   0       4.163  -0.117   2.602  0.00  0.00    +0.006 C 
ATOM      2  C   UNK A   0       4.916  -0.710   1.410  0.00  0.00    +0.006 C 
ATOM      3  C   UNK A   0       6.352  -0.181   1.399  0.00  0.00    +0.013 C 
ATOM      4  C   UNK A   0       7.053  -0.583   2.697  0.00  0.00    +0.075 C 
ATOM      5  C   UNK A   0       6.300   0.010   3.889  0.00  0.00    +0.013 C 
ATOM      6  C   UNK A   0       4.865  -0.519   3.900  0.00  0.00    +0.006 C 
ENDROOT
BRANCH   4   7
ATOM      7  C   UNK A   0       7.073  -2.086   2.813  0.00  0.00    +0.217 C 
ATOM      8  O   UNK A   0       6.575  -2.767   1.942  0.00  0.00    -0.275 OA
ATOM      9  N   VAL A   1       7.645  -2.672   3.884  0.00  0.00    -0.302 N 
ATOM     10  H   VAL A   1       8.043  -2.126   4.580  0.00  0.00    +0.150 HD
BRANCH   9  11
ATOM     11  CA  VAL A   1       7.664  -4.132   3.996  0.00  0.00    +0.189 C 
BRANCH  11  12
ATOM     12  CB  VAL A   1       8.835  -4.560   4.883  0.00  0.00    +0.014 C 
ATOM     13  CG1 VAL A   1       8.855  -6.085   5.000  0.00  0.00    +0.009 C 
ATOM     14  CG2 VAL A   1      10.148  -4.079   4.262  0.00  0.00    +0.009 C 
ENDBRANCH  11  12
BRANCH  11  15
ATOM     15  C   VAL A   1       6.371  -4.606   4.608  0.00  0.00    +0.376 C 
ATOM     16  O   VAL A   1       5.925  -5.703   4.317  0.00  0.00    -0.244 OA
ATOM     17  OXT VAL A   1       5.771  -3.893   5.394  0.00  0.00    -0.244 OA
ENDBRANCH  11  15
ENDBRANCH   9  11
ENDBRANCH   4   7
BRANCH   1  18
ATOM     18  C   UNK A   0       2.727  -0.647   2.613  0.00  0.00    +0.107 C 
BRANCH  18  21
ATOM     19  C   UNK A   0       0.731  -0.503   1.223  0.00  0.00    +0.233 C 
ATOM     20  O   UNK A   0       0.159  -1.213   2.023  0.00  0.00    -0.274 OA
ATOM     21  N   UNK A   0       2.019  -0.161   1.426  0.00  0.00    -0.314 N 
ATOM     22  H   UNK A   0       2.476   0.406   0.786  0.00  0.00    +0.149 HD
BRANCH  19  24
ATOM     23  C   UNK A   0      -0.019   1.526   0.010  0.00  0.00    +0.038 C 
ATOM     24  C   UNK A   0       0.002  -0.004   0.002  0.00  0.00    +0.159 C 
BRANCH  24  25
ATOM     25  N   UNK A   0      -1.372  -0.511   0.012  0.00  0.00    -0.270 N 
ATOM     26  C   UNK A   0      -2.051  -0.643  -1.145  0.00  0.00    +0.401 C 
ATOM     27  O   UNK A   0      -1.523  -0.341  -2.196  0.00  0.00    -0.226 OA
ATOM     28  H   UNK A   0      -1.794  -0.752   0.852  0.00  0.00    +0.153 HD
BRANCH  26  29
ATOM     29  O   UNK A   0      -3.314  -1.109  -1.135  0.00  0.00    -0.445 OA
BRANCH  29  30
ATOM     30  C   UNK A   0      -3.973  -1.222  -2.398  0.00  0.00    +0.107 C 
ATOM     31  C   UNK A   0      -3.189  -2.179  -3.298  0.00  0.00    +0.055 C 
ATOM     32  C   UNK A   0      -5.388  -1.765  -2.188  0.00  0.00    +0.055 C 
ATOM     33  C   UNK A   0      -4.048   0.155  -3.060  0.00  0.00    +0.055 C 
ENDBRANCH  29  30
ENDBRANCH  26  29
ENDBRANCH  24  25
ENDBRANCH  19  24
ENDBRANCH  18  21
ENDBRANCH   1  18
TORSDOF 10
