REMARK  Name = ZINC52902095
REMARK  4 active torsions:
REMARK  status: ('A' for Active; 'I' for Inactive)
REMARK    1  A    between atoms: C_3  and  C_6
REMARK    2  A    between atoms: C_7  and  C_12
REMARK    3  A    between atoms: C_10  and  N_11
REMARK    4  A    between atoms: C_15  and  N_18
REMARK                            x       y       z     vdW  Elec       q    Type
REMARK                         _______ _______ _______ _____ _____    ______ ____
ROOT
ATOM      1  C   UNL     1       3.662   1.650  -0.065  0.00  0.00    +0.077 A 
ATOM      2  C   UNL     1       4.693   1.269  -1.055  0.00  0.00    +0.123 A 
ATOM      3  N   UNL     1       5.828   1.749  -0.639  0.00  0.00    -0.075 NA
ATOM      4  O   UNL     1       5.676   2.444   0.578  0.00  0.00    -0.339 OA
ATOM      5  C   UNL     1       4.395   2.423   0.968  0.00  0.00    +0.224 A 
ENDROOT
BRANCH   2   6
ATOM      6  C   UNL     1       4.473   0.484  -2.294  0.00  0.00    +0.004 A 
ATOM      7  C   UNL     1       3.351   0.725  -3.085  0.00  0.00    +0.012 A 
ATOM      8  C   UNL     1       3.152  -0.008  -4.237  0.00  0.00    +0.033 A 
ATOM      9  C   UNL     1       4.062  -0.982  -4.606  0.00  0.00    +0.126 A 
ATOM     10  C   UNL     1       5.177  -1.227  -3.824  0.00  0.00    +0.033 A 
ATOM     11  C   UNL     1       5.390  -0.495  -2.674  0.00  0.00    +0.012 A 
BRANCH   9  12
ATOM     12  N   UNL     1       3.842  -1.766  -5.842  0.00  0.00    +0.056 N 
ATOM     13  O   UNL     1       2.782  -1.536  -6.588  0.00  0.00    -0.126 OA
ATOM     14  O   UNL     1       4.707  -2.694  -6.196  0.00  0.00    -0.126 OA
ENDBRANCH   9  12
ENDBRANCH   2   6
BRANCH   1  17
ATOM     15  C   UNL     1      -0.034   1.665  -0.239  0.00  0.00    +0.008 A 
ATOM     16  C   UNL     1       1.156   2.272  -0.245  0.00  0.00    +0.016 A 
ATOM     17  C   UNL     1       2.310   1.355  -0.098  0.00  0.00    +0.026 A 
ATOM     18  S   UNL     1       1.500  -0.229   0.024  0.00  0.00    -0.096 S 
ATOM     19  C   UNL     1      -0.098   0.273  -0.101  0.00  0.00    +0.046 A 
ENDBRANCH   1  17
BRANCH   5  20
ATOM     20  N   UNL     1       3.880   2.984   2.069  0.00  0.00    -0.327 N 
ATOM     21  H   UNL     1       2.932   2.904   2.256  0.00  0.00    +0.145 HD
ATOM     22  H   UNL     1       4.456   3.470   2.680  0.00  0.00    +0.145 HD
ENDBRANCH   5  20
TORSDOF 4
