REMARK  Name = ZINC13210581
REMARK  14 active torsions:
REMARK  status: ('A' for Active; 'I' for Inactive)
REMARK    1  A    between atoms: C_1  and  C_2
REMARK    2  A    between atoms: C_5  and  N_8
REMARK    3  A    between atoms: C_9  and  C_11
REMARK    4  A    between atoms: C_11  and  N_12
REMARK    5  A    between atoms: N_12  and  C_13
REMARK    6  A    between atoms: C_14  and  C_16
REMARK    7  A    between atoms: C_16  and  C_18
REMARK    8  A    between atoms: C_16  and  S_19
REMARK    9  A    between atoms: S_19  and  C_20
REMARK   10  A    between atoms: C_24  and  C_34
REMARK   11  A    between atoms: C_25  and  C_30
REMARK   12  A    between atoms: C_26  and  C_29
REMARK   13  A    between atoms: C_30  and  C_31
REMARK   14  A    between atoms: C_31  and  C_32
REMARK                            x       y       z     vdW  Elec       q    Type
REMARK                         _______ _______ _______ _____ _____    ______ ____
ROOT
ATOM      1  C   UNL     1      -1.327   2.080   0.011  0.00  0.00    +0.137 C 
ATOM      2  C   UNL     1      -1.822   2.222   1.452  0.00  0.00    +0.029 C 
ENDROOT
BRANCH   1   5
ATOM      3  N   UNL     1       0.001  -0.007   0.002  0.00  0.00    -0.295 N 
ATOM      4  C   UNL     1      -1.260  -0.753   0.018  0.00  0.00    +0.132 C 
ATOM      5  C   UNL     1      -0.014   1.341   0.001  0.00  0.00    +0.229 C 
ATOM      6  O   UNL     1       1.029   1.959  -0.013  0.00  0.00    -0.274 OA
BRANCH   3   7
ATOM      7  C   UNL     1       1.277  -0.725  -0.014  0.00  0.00    +0.203 C 
BRANCH   7   9
ATOM      8  N   UNL     1       2.891  -1.620   1.633  0.00  0.00    -0.284 N 
ATOM      9  C   UNL     1       1.733  -0.971   1.401  0.00  0.00    +0.235 C 
ATOM     10  O   UNL     1       1.058  -0.583   2.331  0.00  0.00    -0.274 OA
ATOM     11  H   UNL     1       3.397  -1.989   0.892  0.00  0.00    +0.155 HD
BRANCH   8  16
ATOM     12  C   UNL     1       4.804  -2.200   6.942  0.00  0.00    +0.044 C 
ATOM     13  C   UNL     1       4.296  -2.046   5.532  0.00  0.00    -0.050 A 
ATOM     14  C   UNL     1       2.937  -2.081   5.281  0.00  0.00    +0.005 A 
ATOM     15  C   UNL     1       2.468  -1.940   3.989  0.00  0.00    +0.023 A 
ATOM     16  C   UNL     1       3.363  -1.763   2.942  0.00  0.00    +0.033 A 
ATOM     17  C   UNL     1       4.728  -1.734   3.197  0.00  0.00    +0.023 A 
ATOM     18  C   UNL     1       5.190  -1.869   4.492  0.00  0.00    +0.005 A 
ENDBRANCH   8  16
ENDBRANCH   7   9
ENDBRANCH   3   7
ENDBRANCH   1   5
BRANCH   1  19
ATOM     19  S   UNL     1      -1.100   3.727  -0.715  0.00  0.00    -0.072 S 
BRANCH  19  20
ATOM     20  C   UNL     1      -2.728   4.398  -0.767  0.00  0.00    +0.212 A 
ATOM     21  N   UNL     1      -3.830   3.778  -0.350  0.00  0.00    -0.183 NA
ATOM     22  C   UNL     1      -4.884   4.566  -0.531  0.00  0.00    +0.254 A 
ATOM     23  N   UNL     1      -6.187   4.401  -0.277  0.00  0.00    -0.216 NA
ATOM     24  C   UNL     1      -7.054   5.349  -0.553  0.00  0.00    +0.047 A 
ATOM     25  C   UNL     1      -6.624   6.554  -1.121  0.00  0.00    -0.005 A 
ATOM     26  C   UNL     1      -5.302   6.730  -1.383  0.00  0.00    +0.048 A 
ATOM     27  N   UNL     1      -4.432   5.730  -1.086  0.00  0.00    -0.200 N 
ATOM     28  N   UNL     1      -3.044   5.595  -1.221  0.00  0.00    -0.137 NA
ATOM     29  C   UNL     1      -4.809   8.016  -1.994  0.00  0.00    +0.066 C 
ATOM     30  C   UNL     1      -8.516   5.139  -0.258  0.00  0.00    +0.066 C 
BRANCH  25  31
ATOM     31  C   UNL     1      -7.616   7.643  -1.440  0.00  0.00    +0.050 C 
BRANCH  31  32
ATOM     32  C   UNL     1      -7.765   8.567  -0.229  0.00  0.00    +0.130 C 
BRANCH  32  33
ATOM     33  C   UNL     1      -8.756   9.656  -0.547  0.00  0.00    +0.356 C 
ATOM     34  O   UNL     1      -9.289   9.690  -1.631  0.00  0.00    -0.246 OA
ATOM     35  O   UNL     1      -9.047  10.589   0.373  0.00  0.00    -0.246 OA
ENDBRANCH  32  33
ENDBRANCH  31  32
ENDBRANCH  25  31
ENDBRANCH  19  20
ENDBRANCH   1  19
TORSDOF 9
