REMARK  Name = ZINC13499468
REMARK  11 active torsions:
REMARK  status: ('A' for Active; 'I' for Inactive)
REMARK    1  A    between atoms: C_1  and  C_2
REMARK    2  A    between atoms: C_2  and  C_3
REMARK    3  A    between atoms: C_3  and  C_4
REMARK    4  A    between atoms: C_4  and  C_6
REMARK    5  A    between atoms: C_4  and  N_72
REMARK    6  A    between atoms: N_10  and  C_11
REMARK    7  A    between atoms: C_16  and  C_17
REMARK    8  A    between atoms: C_16  and  N_72
REMARK    9  A    between atoms: C_21  and  C_30
REMARK   10  A    between atoms: C_22  and  C_29
REMARK   11  A    between atoms: C_31  and  N_72
REMARK                            x       y       z     vdW  Elec       q    Type
REMARK                         _______ _______ _______ _____ _____    ______ ____
ROOT
ATOM      1  N   UNL     1      -5.470   3.882  -0.942  0.00  0.00    +0.391 N 
ATOM      2  H   UNL     1      -4.638   4.240  -1.427  0.00  0.00    -0.080 HD
ENDROOT
BRANCH   1   3
ATOM      3  C   UNL     1      -5.675   2.468  -1.321  0.00  0.00    -0.067 C 
ATOM      4  C   UNL     1      -7.008   1.931  -0.761  0.00  0.00    -0.015 C 
ATOM      5  C   UNL     1      -6.692   0.467  -0.367  0.00  0.00    -0.002 C 
ATOM      6  C   UNL     1      -5.254   0.567   0.201  0.00  0.00    -0.002 C 
ATOM      7  C   UNL     1      -4.560   1.601  -0.710  0.00  0.00    -0.015 C 
ENDBRANCH   1   3
BRANCH   1   8
ATOM      8  C   UNL     1      -6.643   4.687  -1.341  0.00  0.00    +0.003 C 
BRANCH   8   9
ATOM      9  C   UNL     1      -7.186   4.165  -2.646  0.00  0.00    +0.138 A 
ATOM     10  N   UNL     1      -6.488   3.787  -3.689  0.00  0.00    -0.115 NA
ATOM     11  N   UNL     1      -7.313   3.405  -4.603  0.00  0.00    -0.023 NA
ATOM     12  N   UNL     1      -8.519   3.529  -4.169  0.00  0.00    -0.044 NA
ATOM     13  N   UNL     1      -8.482   3.990  -2.965  0.00  0.00    -0.228 N 
BRANCH  13  14
ATOM     14  C   UNL     1      -9.635   4.272  -2.106  0.00  0.00    +0.111 C 
ATOM     15  C   UNL     1     -10.479   2.995  -1.916  0.00  0.00    +0.027 C 
ATOM     16  C   UNL     1     -11.942   3.505  -1.907  0.00  0.00    +0.002 C 
ATOM     17  C   UNL     1     -11.921   4.626  -2.974  0.00  0.00    +0.002 C 
ATOM     18  C   UNL     1     -10.552   5.309  -2.778  0.00  0.00    +0.027 C 
ENDBRANCH  13  14
ENDBRANCH   8   9
BRANCH   8  19
ATOM     19  C   UNL     1      -6.199   6.141  -1.519  0.00  0.00    -0.008 C 
BRANCH  19  21
ATOM     20  C   UNL     1      -4.936   8.027  -0.476  0.00  0.00    +0.004 C 
ATOM     21  C   UNL     1      -5.296   6.545  -0.352  0.00  0.00    -0.005 C 
ENDBRANCH  19  21
ENDBRANCH   8  19
ENDBRANCH   1   8
BRANCH   1  22
ATOM     22  C   UNL     1      -5.258   3.988   0.517  0.00  0.00    -0.036 C 
BRANCH  22  23
ATOM     23  C   UNL     1      -6.528   3.664   1.261  0.00  0.00    +0.001 A 
ATOM     24  C   UNL     1      -6.645   2.482   1.914  0.00  0.00    +0.017 A 
ATOM     25  C   UNL     1      -7.892   2.198   2.627  0.00  0.00    -0.001 A 
ATOM     26  C   UNL     1      -8.072   0.996   3.320  0.00  0.00    +0.013 A 
ATOM     27  C   UNL     1      -9.248   0.761   3.974  0.00  0.00    -0.047 A 
ATOM     28  C   UNL     1     -10.265   1.705   3.960  0.00  0.00    -0.046 A 
ATOM     29  C   UNL     1     -10.110   2.896   3.284  0.00  0.00    +0.030 A 
ATOM     30  C   UNL     1      -8.924   3.155   2.605  0.00  0.00    +0.049 A 
ATOM     31  N   UNL     1      -8.739   4.340   1.926  0.00  0.00    -0.322 N 
ATOM     32  H   UNL     1      -9.450   5.001   1.915  0.00  0.00    +0.169 HD
ATOM     33  C   UNL     1      -7.591   4.592   1.274  0.00  0.00    +0.251 A 
ATOM     34  O   UNL     1      -7.465   5.649   0.679  0.00  0.00    -0.268 OA
ATOM     35  C   UNL     1     -11.553   1.424   4.690  0.00  0.00    +0.044 C 
ATOM     36  C   UNL     1      -9.441  -0.535   4.720  0.00  0.00    +0.044 C 
ENDBRANCH  22  23
ENDBRANCH   1  22
TORSDOF 8
