REMARK  Name = ZINC06591427
REMARK  3 active torsions:
REMARK  status: ('A' for Active; 'I' for Inactive)
REMARK    1  A    between atoms: C_1  and  C_2
REMARK    2  A    between atoms: P_7  and  O_10
REMARK    3  A    between atoms: O_10  and  C_11
REMARK                            x       y       z     vdW  Elec       q    Type
REMARK                         _______ _______ _______ _____ _____    ______ ____
ROOT
ATOM      1  C   UNL     1      -0.018   1.503   0.010  0.00  0.00    +0.061 C 
ATOM      2  C   UNL     1       0.002  -0.004   0.002  0.00  0.00    +0.015 C 
ATOM      3  C   UNL     1       0.005  -0.660  -1.167  0.00  0.00    +0.086 C 
ATOM      4  C   UNL     1       0.060  -2.056  -1.299  0.00  0.00    +0.247 C 
ATOM      5  O   UNL     1      -0.159  -2.550  -2.390  0.00  0.00    -0.270 OA
ATOM      6  N   UNL     1       0.345  -2.872  -0.263  0.00  0.00    -0.216 N 
ATOM      7  P   UNL     1       0.730  -2.179   1.183  0.00  0.00    +0.432 P 
ATOM      8  O   UNL     1       0.203  -3.001   2.296  0.00  0.00    -0.234 OA
ATOM      9  N   UNL     1       0.023  -0.690   1.193  0.00  0.00    -0.253 N 
ATOM     10  H   UNL     1       0.324  -3.837  -0.366  0.00  0.00    +0.161 HD
ATOM     11  H   UNL     1      -0.362  -0.317   2.002  0.00  0.00    +0.158 HD
ENDROOT
BRANCH   7  12
ATOM     12  O   UNL     1       2.328  -2.031   1.316  0.00  0.00    -0.417 OA
BRANCH  12  13
ATOM     13  C   UNL     1       3.019  -3.138   0.938  0.00  0.00    +0.131 A 
ATOM     14  C   UNL     1       3.310  -4.126   1.884  0.00  0.00    +0.047 A 
ATOM     15  C   UNL     1       4.000  -5.245   1.536  0.00  0.00    +0.012 A 
ATOM     16  C   UNL     1       4.429  -5.415   0.208  0.00  0.00    -0.018 A 
ATOM     17  C   UNL     1       5.143  -6.559  -0.186  0.00  0.00    +0.008 A 
ATOM     18  C   UNL     1       5.543  -6.691  -1.480  0.00  0.00    +0.001 A 
ATOM     19  C   UNL     1       5.254  -5.708  -2.425  0.00  0.00    +0.001 A 
ATOM     20  C   UNL     1       4.564  -4.587  -2.080  0.00  0.00    +0.008 A 
ATOM     21  C   UNL     1       4.135  -4.415  -0.752  0.00  0.00    -0.014 A 
ATOM     22  C   UNL     1       3.416  -3.273  -0.361  0.00  0.00    +0.054 A 
ENDBRANCH  12  13
ENDBRANCH   7  12
TORSDOF 2
