REMARK  Name = ZINC33959556
REMARK  11 active torsions:
REMARK  status: ('A' for Active; 'I' for Inactive)
REMARK    1  A    between atoms: C_4  and  C_7
REMARK    2  A    between atoms: N_9  and  C_10
REMARK    3  A    between atoms: C_10  and  C_11
REMARK    4  A    between atoms: C_11  and  C_12
REMARK    5  A    between atoms: C_12  and  C_13
REMARK    6  A    between atoms: C_13  and  C_14
REMARK    7  A    between atoms: C_14  and  C_16
REMARK    8  A    between atoms: C_14  and  N_28
REMARK    9  A    between atoms: N_18  and  N_19
REMARK   10  A    between atoms: C_20  and  C_21
REMARK   11  A    between atoms: C_25  and  O_27
REMARK                            x       y       z     vdW  Elec       q    Type
REMARK                         _______ _______ _______ _____ _____    ______ ____
ROOT
ATOM      1  C   UNL     1       7.215  -7.142  -0.065  0.00  0.00    +0.021 C 
ENDROOT
BRANCH   1   2
ATOM      2  N   UNL     1       7.951  -6.757  -1.277  0.00  0.00    +0.387 N 
ATOM      3  C   UNL     1       9.233  -7.470  -1.315  0.00  0.00    -0.078 C 
ATOM      4  C   UNL     1       9.969  -7.135  -2.615  0.00  0.00    -0.019 C 
ATOM      5  C   UNL     1      10.220  -5.625  -2.678  0.00  0.00    -0.004 C 
ATOM      6  C   UNL     1       8.882  -4.890  -2.562  0.00  0.00    -0.019 C 
ATOM      7  C   UNL     1       8.187  -5.308  -1.264  0.00  0.00    -0.078 C 
ATOM      8  H   UNL     1       7.408  -7.001  -2.091  0.00  0.00    -0.081 HD
ENDBRANCH   1   2
BRANCH   1   9
ATOM      9  C   UNL     1       6.908  -8.617  -0.112  0.00  0.00    +0.219 C 
ATOM     10  O   UNL     1       6.928  -9.207  -1.171  0.00  0.00    -0.276 OA
ATOM     11  N   UNL     1       6.612  -9.279   1.024  0.00  0.00    -0.208 N 
ATOM     12  H   UNL     1       6.596  -8.807   1.871  0.00  0.00    +0.177 HD
BRANCH  11  13
ATOM     13  N   UNL     1       6.327 -10.650   0.981  0.00  0.00    -0.188 NA
ATOM     14  C   UNL     1       6.041 -11.288   2.075  0.00  0.00    +0.138 C 
BRANCH  14  15
ATOM     15  C   UNL     1       5.741 -12.732   2.029  0.00  0.00    -0.002 A 
ATOM     16  C   UNL     1       5.769 -13.416   0.811  0.00  0.00    +0.010 A 
ATOM     17  C   UNL     1       5.487 -14.766   0.773  0.00  0.00    +0.004 A 
ATOM     18  C   UNL     1       5.177 -15.445   1.937  0.00  0.00    +0.045 A 
ATOM     19  C   UNL     1       5.147 -14.774   3.152  0.00  0.00    +0.117 A 
ATOM     20  C   UNL     1       5.434 -13.421   3.204  0.00  0.00    +0.054 A 
BRANCH  19  21
ATOM     21  O   UNL     1       4.842 -15.447   4.293  0.00  0.00    -0.507 OA
ATOM     22  H   UNL     1       5.609 -15.824   4.744  0.00  0.00    +0.292 HD
ENDBRANCH  19  21
ENDBRANCH  14  15
ENDBRANCH  11  13
ENDBRANCH   1   9
BRANCH   1  23
ATOM     23  C   UNL     1       5.907  -6.351   0.010  0.00  0.00    -0.006 C 
BRANCH  23  24
ATOM     24  C   UNL     1       5.175  -6.699   1.307  0.00  0.00    +0.000 C 
BRANCH  24  25
ATOM     25  C   UNL     1       3.934  -5.814   1.446  0.00  0.00    +0.019 C 
BRANCH  25  26
ATOM     26  C   UNL     1       3.202  -6.162   2.743  0.00  0.00    +0.104 C 
BRANCH  26  29
ATOM     27  C   UNL     1       1.210  -5.444   3.950  0.00  0.00    +0.244 C 
ATOM     28  O   UNL     1       1.470  -6.265   4.808  0.00  0.00    -0.270 OA
ATOM     29  N   UNL     1       2.014  -5.314   2.876  0.00  0.00    -0.311 N 
ATOM     30  H   UNL     1       1.807  -4.659   2.191  0.00  0.00    +0.149 HD
BRANCH  27  34
ATOM     31  C   UNL     1      -2.233  -2.986   4.335  0.00  0.00    +0.000 A 
ATOM     32  C   UNL     1      -1.940  -3.920   5.313  0.00  0.00    +0.001 A 
ATOM     33  C   UNL     1      -0.824  -4.721   5.194  0.00  0.00    +0.013 A 
ATOM     34  C   UNL     1       0.012  -4.589   4.083  0.00  0.00    +0.037 A 
ATOM     35  C   UNL     1      -0.289  -3.645   3.100  0.00  0.00    +0.013 A 
ATOM     36  C   UNL     1      -1.409  -2.850   3.231  0.00  0.00    +0.001 A 
ENDBRANCH  27  34
ENDBRANCH  26  29
ENDBRANCH  25  26
ENDBRANCH  24  25
ENDBRANCH  23  24
ENDBRANCH   1  23
TORSDOF 11
