REMARK  Name = ZINC19631216
REMARK  12 active torsions:
REMARK  status: ('A' for Active; 'I' for Inactive)
REMARK    1  A    between atoms: C_1  and  C_2
REMARK    2  A    between atoms: C_3  and  C_16
REMARK    3  A    between atoms: C_4  and  C_15
REMARK    4  A    between atoms: N_5  and  C_7
REMARK    5  A    between atoms: N_17  and  N_18
REMARK    6  A    between atoms: C_19  and  C_21
REMARK    7  A    between atoms: C_21  and  O_22
REMARK    8  A    between atoms: O_22  and  C_23
REMARK    9  A    between atoms: C_26  and  C_29
REMARK   10  A    between atoms: C_29  and  C_30
REMARK   11  A    between atoms: C_29  and  C_31
REMARK   12  A    between atoms: C_29  and  C_32
REMARK                            x       y       z     vdW  Elec       q    Type
REMARK                         _______ _______ _______ _____ _____    ______ ____
ROOT
ATOM      1  C   UNL     1      -0.004  -0.370  -2.549  0.00  0.00    +0.141 C 
ATOM      2  N   UNL     1      -0.022   0.898  -2.818  0.00  0.00    -0.188 NA
ENDROOT
BRANCH   1   5
ATOM      3  C   UNL     1      -0.018   1.503   0.010  0.00  0.00    +0.068 C 
ATOM      4  C   UNL     1       0.002  -0.004   0.002  0.00  0.00    +0.069 A 
ATOM      5  C   UNL     1       0.008  -0.826  -1.145  0.00  0.00    +0.038 A 
ATOM      6  C   UNL     1       0.028  -2.134  -0.711  0.00  0.00    +0.045 A 
ATOM      7  N   UNL     1       0.034  -2.111   0.636  0.00  0.00    -0.263 N 
ATOM      8  N   UNL     1       0.023  -0.776   1.055  0.00  0.00    -0.175 NA
ATOM      9  C   UNL     1       0.040  -3.364  -1.583  0.00  0.00    +0.066 C 
BRANCH   7  10
ATOM     10  C   UNL     1       0.053  -3.285   1.513  0.00  0.00    +0.130 C 
ATOM     11  C   UNL     1      -1.179  -3.266   2.433  0.00  0.00    +0.051 C 
ATOM     12  C   UNL     1      -1.007  -4.307   3.566  0.00  0.00    +0.168 C 
ATOM     13  S   UNL     1       0.820  -4.397   3.758  0.00  0.00    -0.029 S 
ATOM     14  O   UNL     1       1.254  -5.712   3.435  0.00  0.00    -0.174 OA
ATOM     15  O   UNL     1       1.182  -3.829   5.008  0.00  0.00    -0.174 OA
ATOM     16  C   UNL     1       1.326  -3.250   2.408  0.00  0.00    +0.192 C 
ENDBRANCH   7  10
ENDBRANCH   1   5
BRANCH   2  17
ATOM     17  N   UNL     1      -0.034   1.331  -4.151  0.00  0.00    -0.204 N 
ATOM     18  C   UNL     1      -0.053   2.649  -4.431  0.00  0.00    +0.270 C 
ATOM     19  O   UNL     1      -0.059   3.461  -3.529  0.00  0.00    -0.270 OA
ATOM     20  H   UNL     1      -0.029   0.682  -4.872  0.00  0.00    +0.177 HD
BRANCH  18  21
ATOM     21  C   UNL     1      -0.066   3.115  -5.864  0.00  0.00    +0.326 C 
BRANCH  21  22
ATOM     22  O   UNL     1      -0.085   4.543  -5.901  0.00  0.00    -0.483 OA
BRANCH  22  23
ATOM     23  C   UNL     1      -0.098   5.129  -7.127  0.00  0.00    +0.121 A 
ATOM     24  C   UNL     1      -0.099   4.345  -8.272  0.00  0.00    +0.046 A 
ATOM     25  C   UNL     1      -0.113   4.943  -9.517  0.00  0.00    +0.008 A 
ATOM     26  C   UNL     1      -0.126   6.321  -9.623  0.00  0.00    -0.042 A 
ATOM     27  C   UNL     1      -0.125   7.105  -8.484  0.00  0.00    +0.008 A 
ATOM     28  C   UNL     1      -0.117   6.512  -7.237  0.00  0.00    +0.046 A 
BRANCH  26  29
ATOM     29  C   UNL     1      -0.141   6.971 -10.983  0.00  0.00    -0.013 C 
ATOM     30  C   UNL     1      -1.391   6.528 -11.746  0.00  0.00    +0.015 C 
ATOM     31  C   UNL     1      -0.153   8.492 -10.822  0.00  0.00    +0.015 C 
ATOM     32  C   UNL     1       1.107   6.550 -11.763  0.00  0.00    +0.015 C 
ENDBRANCH  26  29
ENDBRANCH  22  23
ENDBRANCH  21  22
ENDBRANCH  18  21
ENDBRANCH   2  17
TORSDOF 7
