REMARK  Name = ZINC09516169
REMARK  9 active torsions:
REMARK  status: ('A' for Active; 'I' for Inactive)
REMARK    1  A    between atoms: C_1  and  C_2
REMARK    2  A    between atoms: C_3  and  C_16
REMARK    3  A    between atoms: C_4  and  C_15
REMARK    4  A    between atoms: N_5  and  C_7
REMARK    5  A    between atoms: C_16  and  N_61
REMARK    6  A    between atoms: C_17  and  N_61
REMARK    7  A    between atoms: C_18  and  C_19
REMARK    8  A    between atoms: C_18  and  N_61
REMARK    9  A    between atoms: C_25  and  C_30
REMARK                            x       y       z     vdW  Elec       q    Type
REMARK                         _______ _______ _______ _____ _____    ______ ____
ROOT
ATOM      1  C   UNL     1       4.867   8.367  -0.413  0.00  0.00    -0.003 C 
ENDROOT
BRANCH   1   2
ATOM      2  C   UNL     1       6.225   8.443  -1.062  0.00  0.00    +0.094 A 
ATOM      3  N   UNL     1       6.902   9.620  -1.056  0.00  0.00    -0.312 N 
ATOM      4  H   UNL     1       6.503  10.396  -0.634  0.00  0.00    +0.170 HD
ATOM      5  C   UNL     1       8.120   9.729  -1.620  0.00  0.00    +0.260 A 
ATOM      6  O   UNL     1       8.717  10.791  -1.602  0.00  0.00    -0.267 OA
ATOM      7  C   UNL     1       8.700   8.579  -2.245  0.00  0.00    +0.080 A 
ATOM      8  C   UNL     1       9.986   8.446  -2.920  0.00  0.00    +0.004 A 
ATOM      9  C   UNL     1      10.326   7.243  -3.442  0.00  0.00    +0.056 A 
ATOM     10  S   UNL     1       8.925   6.213  -3.053  0.00  0.00    -0.076 S 
ATOM     11  C   UNL     1       7.925   7.409  -2.206  0.00  0.00    +0.116 A 
ATOM     12  N   UNL     1       6.728   7.377  -1.625  0.00  0.00    -0.229 NA
BRANCH   8  13
ATOM     13  C   UNL     1      10.903   9.605  -3.032  0.00  0.00    -0.017 A 
ATOM     14  C   UNL     1      10.432  10.827  -3.509  0.00  0.00    +0.008 A 
ATOM     15  C   UNL     1      11.289  11.904  -3.606  0.00  0.00    +0.001 A 
ATOM     16  C   UNL     1      12.617  11.770  -3.241  0.00  0.00    +0.000 A 
ATOM     17  C   UNL     1      13.092  10.558  -2.772  0.00  0.00    +0.001 A 
ATOM     18  C   UNL     1      12.242   9.476  -2.666  0.00  0.00    +0.008 A 
ENDBRANCH   8  13
ENDBRANCH   1   2
BRANCH   1  20
ATOM     19  C   UNL     1       5.141   6.044   0.213  0.00  0.00    -0.095 C 
ATOM     20  N   UNL     1       4.336   6.997  -0.579  0.00  0.00    +0.385 N 
ATOM     21  H   UNL     1       4.390   6.737  -1.570  0.00  0.00    -0.081 HD
BRANCH  20  22
ATOM     22  C   UNL     1       2.924   6.948  -0.145  0.00  0.00    -0.039 C 
BRANCH  22  25
ATOM     23  C   UNL     1       1.514   6.245  -2.895  0.00  0.00    +0.068 C 
ATOM     24  C   UNL     1       1.722   5.299  -1.740  0.00  0.00    +0.062 A 
ATOM     25  C   UNL     1       2.345   5.610  -0.527  0.00  0.00    -0.021 A 
ATOM     26  C   UNL     1       2.335   4.497   0.243  0.00  0.00    +0.038 A 
ATOM     27  N   UNL     1       1.728   3.517  -0.458  0.00  0.00    -0.263 N 
ATOM     28  N   UNL     1       1.357   4.043  -1.702  0.00  0.00    -0.176 NA
ATOM     29  C   UNL     1       2.900   4.375   1.635  0.00  0.00    +0.065 C 
BRANCH  27  30
ATOM     30  C   UNL     1       1.502   2.144  -0.001  0.00  0.00    +0.130 C 
ATOM     31  C   UNL     1       2.180   1.157  -0.966  0.00  0.00    +0.051 C 
ATOM     32  C   UNL     1       1.686  -0.282  -0.682  0.00  0.00    +0.168 C 
ATOM     33  S   UNL     1       0.002  -0.004   0.002  0.00  0.00    -0.029 S 
ATOM     34  O   UNL     1      -0.036  -0.474   1.342  0.00  0.00    -0.174 OA
ATOM     35  O   UNL     1      -0.961  -0.474  -0.931  0.00  0.00    -0.174 OA
ATOM     36  C   UNL     1      -0.023   1.838   0.012  0.00  0.00    +0.192 C 
ENDBRANCH  27  30
ENDBRANCH  22  25
ENDBRANCH  20  22
ENDBRANCH   1  20
TORSDOF 6
