REMARK  Name = ZINC00196433
REMARK  4 active torsions:
REMARK  status: ('A' for Active; 'I' for Inactive)
REMARK    1  A    between atoms: C_9  and  C_11
REMARK    2  A    between atoms: C_11  and  C_12
REMARK    3  A    between atoms: C_12  and  C_14
REMARK    4  A    between atoms: C_12  and  O_24
REMARK                            x       y       z     vdW  Elec       q    Type
REMARK                         _______ _______ _______ _____ _____    ______ ____
ROOT
ATOM      1  C   UNL     1      -0.665   5.713   1.220  0.00  0.00    +0.187 C 
ENDROOT
BRANCH   1   2
ATOM      2  C   UNL     1      -1.480   6.978   1.308  0.00  0.00    +0.137 A 
ATOM      3  N   UNL     1      -2.164   7.390   2.409  0.00  0.00    -0.340 N 
ATOM      4  H   UNL     1      -2.215   6.915   3.287  0.00  0.00    +0.167 HD
ATOM      5  C   UNL     1      -2.775   8.586   2.089  0.00  0.00    +0.066 A 
ATOM      6  C   UNL     1      -3.589   9.471   2.783  0.00  0.00    +0.028 A 
ATOM      7  C   UNL     1      -4.051  10.608   2.155  0.00  0.00    +0.002 A 
ATOM      8  C   UNL     1      -3.708  10.872   0.836  0.00  0.00    +0.002 A 
ATOM      9  C   UNL     1      -2.909  10.012   0.139  0.00  0.00    +0.030 A 
ATOM     10  C   UNL     1      -2.428   8.854   0.754  0.00  0.00    +0.089 A 
ATOM     11  N   UNL     1      -1.636   7.832   0.339  0.00  0.00    -0.230 NA
ENDBRANCH   1   2
BRANCH   1  12
ATOM     12  O   UNL     1       0.712   6.046   1.032  0.00  0.00    -0.384 OA
ATOM     13  H   UNL     1       0.887   6.554   0.228  0.00  0.00    +0.210 HD
ENDBRANCH   1  12
BRANCH   1  14
ATOM     14  C   UNL     1      -1.153   4.872   0.039  0.00  0.00    +0.113 C 
BRANCH  14  23
ATOM     15  C   UNL     1       1.209  -0.670  -0.013  0.00  0.00    +0.002 A 
ATOM     16  C   UNL     1       2.403   0.037  -0.021  0.00  0.00    +0.002 A 
ATOM     17  C   UNL     1       2.404   1.403  -0.014  0.00  0.00    +0.030 A 
ATOM     18  C   UNL     1       1.192   2.100   0.002  0.00  0.00    +0.089 A 
ATOM     19  C   UNL     1      -0.017   1.384   0.010  0.00  0.00    +0.066 A 
ATOM     20  C   UNL     1       0.002  -0.004   0.002  0.00  0.00    +0.028 A 
ATOM     21  N   UNL     1      -1.020   2.332   0.019  0.00  0.00    -0.342 N 
ATOM     22  H   UNL     1      -2.004   2.153   0.020  0.00  0.00    +0.167 HD
ATOM     23  C   UNL     1      -0.423   3.554   0.025  0.00  0.00    +0.111 A 
ATOM     24  N   UNL     1       0.871   3.419   0.012  0.00  0.00    -0.232 NA
ENDBRANCH  14  23
ENDBRANCH   1  14
TORSDOF 4
