REMARK  Name = ZINC20928045
REMARK  7 active torsions:
REMARK  status: ('A' for Active; 'I' for Inactive)
REMARK    1  A    between atoms: C_1  and  C_2
REMARK    2  A    between atoms: C_7  and  N_8
REMARK    3  A    between atoms: N_12  and  S_27
REMARK    4  A    between atoms: C_14  and  C_15
REMARK    5  A    between atoms: C_14  and  C_16
REMARK    6  A    between atoms: N_18  and  C_19
REMARK    7  A    between atoms: S_27  and  C_30
REMARK                            x       y       z     vdW  Elec       q    Type
REMARK                         _______ _______ _______ _____ _____    ______ ____
ROOT
ATOM      1  N   UNL     1      -0.425   1.644   0.389  0.00  0.00    -0.254 N 
ATOM      2  C   UNL     1      -1.505   2.428   0.375  0.00  0.00    +0.236 C 
ATOM      3  O   UNL     1      -2.599   1.905   0.372  0.00  0.00    -0.274 OA
ATOM      4  C   UNL     1      -1.427   3.930   0.369  0.00  0.00    +0.205 C 
ATOM      5  N   UNL     1      -0.048   4.337   0.674  0.00  0.00    -0.170 NA
ATOM      6  C   UNL     1       1.039   3.584   0.025  0.00  0.00    +0.145 C 
ATOM      7  C   UNL     1       0.946   2.126   0.478  0.00  0.00    +0.129 C 
ATOM      8  C   UNL     1       1.842   1.264  -0.413  0.00  0.00    +0.043 C 
ENDROOT
BRANCH   1  15
ATOM      9  C   UNL     1      -1.712   0.339   2.566  0.00  0.00    +0.045 C 
ATOM     10  C   UNL     1      -1.249  -0.415   1.346  0.00  0.00    -0.029 A 
ATOM     11  C   UNL     1      -1.448  -1.779   1.260  0.00  0.00    +0.006 A 
ATOM     12  C   UNL     1      -1.019  -2.474   0.145  0.00  0.00    +0.020 A 
ATOM     13  C   UNL     1      -0.392  -1.804  -0.892  0.00  0.00    +0.043 A 
ATOM     14  C   UNL     1      -0.194  -0.438  -0.813  0.00  0.00    +0.043 A 
ATOM     15  C   UNL     1      -0.625   0.261   0.306  0.00  0.00    +0.042 A 
ATOM     16 CL   UNL     1       0.146  -2.679  -2.291  0.00  0.00    -0.083 Cl
ENDBRANCH   1  15
BRANCH   7  17
ATOM     17  C   UNL     1       1.417   2.020   1.906  0.00  0.00    +0.238 C 
ATOM     18  O   UNL     1       2.090   2.905   2.389  0.00  0.00    -0.273 OA
ATOM     19  N   UNL     1       1.090   0.942   2.645  0.00  0.00    -0.311 N 
ATOM     20  H   UNL     1       0.522   0.116   2.192  0.00  0.00    +0.149 HD
BRANCH  19  21
ATOM     21  C   UNL     1       1.492   0.869   4.052  0.00  0.00    +0.073 C 
ATOM     22  C   UNL     1       2.917   0.321   4.148  0.00  0.00    +0.022 C 
ATOM     23  C   UNL     1       3.482   0.610   5.540  0.00  0.00    +0.002 C 
ATOM     24  C   UNL     1       3.140   2.046   5.942  0.00  0.00    +0.000 C 
ATOM     25  C   UNL     1       2.156   2.028   7.114  0.00  0.00    +0.000 C 
ATOM     26  C   UNL     1       0.760   1.668   6.602  0.00  0.00    +0.000 C 
ATOM     27  C   UNL     1       0.694   0.167   6.313  0.00  0.00    +0.002 C 
ATOM     28  C   UNL     1       0.537  -0.057   4.808  0.00  0.00    +0.022 C 
ENDBRANCH  19  21
ENDBRANCH   7  17
BRANCH   5  29
ATOM     29  S   UNL     1       0.271   5.593   1.706  0.00  0.00    +0.029 S 
ATOM     30  O   UNL     1      -0.859   5.652   2.565  0.00  0.00    -0.158 OA
ATOM     31  O   UNL     1       1.563   5.314   2.228  0.00  0.00    -0.158 OA
ATOM     32  C   UNL     1       0.329   7.064   0.646  0.00  0.00    +0.215 C 
ENDBRANCH   5  29
TORSDOF 4
