REMARK  Name = ZINC08424899
REMARK  7 active torsions:
REMARK  status: ('A' for Active; 'I' for Inactive)
REMARK    1  A    between atoms: C_1  and  C_2
REMARK    2  A    between atoms: C_3  and  C_30
REMARK    3  A    between atoms: C_4  and  C_21
REMARK    4  A    between atoms: C_10  and  C_15
REMARK    5  A    between atoms: C_25  and  N_27
REMARK    6  A    between atoms: C_30  and  O_32
REMARK    7  A    between atoms: O_32  and  C_33
REMARK                            x       y       z     vdW  Elec       q    Type
REMARK                         _______ _______ _______ _____ _____    ______ ____
ROOT
ATOM      1  C   UNL     1       3.681   5.097  -2.496  0.00  0.00    +0.061 C 
ATOM      2  C   UNL     1       3.053   4.597  -1.220  0.00  0.00    +0.031 C 
ATOM      3  C   UNL     1       1.800   4.110  -1.240  0.00  0.00    +0.154 C 
ATOM      4  C   UNL     1       1.147   3.593   0.010  0.00  0.00    +0.073 C 
ATOM      5  C   UNL     1       1.863   4.093   1.239  0.00  0.00    +0.025 C 
ATOM      6  C   UNL     1       3.120   4.579   1.156  0.00  0.00    +0.049 C 
ATOM      7  N   UNL     1       3.761   4.642  -0.052  0.00  0.00    -0.260 NA
ATOM      8  C   UNL     1       3.849   5.063   2.385  0.00  0.00    +0.064 C 
ATOM      9  C   UNL     1       2.843   5.626   3.391  0.00  0.00    +0.032 C 
ATOM     10  C   UNL     1       1.834   4.527   3.738  0.00  0.00    +0.088 C 
ATOM     11  C   UNL     1       1.186   4.038   2.471  0.00  0.00    +0.162 C 
ATOM     12  O   UNL     1       0.058   3.589   2.512  0.00  0.00    -0.292 OA
ENDROOT
BRANCH   4  13
ATOM     13  C   UNL     1       1.170   2.086   0.002  0.00  0.00    -0.036 A 
ATOM     14  C   UNL     1       2.379   1.415  -0.013  0.00  0.00    +0.008 A 
ATOM     15  C   UNL     1       2.403   0.034  -0.021  0.00  0.00    +0.053 A 
ATOM     16  C   UNL     1       1.213  -0.680  -0.013  0.00  0.00    +0.209 A 
ATOM     17  C   UNL     1       0.002  -0.004   0.002  0.00  0.00    +0.173 A 
ATOM     18  C   UNL     1      -0.017   1.377   0.010  0.00  0.00    +0.041 A 
ATOM     19  O   UNL     1       1.234  -2.039  -0.021  0.00  0.00    -0.285 OA
BRANCH  17  20
ATOM     20  N   UNL     1      -1.269  -0.762   0.011  0.00  0.00    +0.060 N 
ATOM     21  O   UNL     1      -2.332  -0.168   0.024  0.00  0.00    -0.126 OA
ATOM     22  O   UNL     1      -1.252  -1.980   0.004  0.00  0.00    -0.126 OA
ENDBRANCH  17  20
ENDBRANCH   4  13
BRANCH   9  23
ATOM     23  C   UNL     1       3.566   6.062   4.639  0.00  0.00    -0.044 A 
ATOM     24  C   UNL     1       4.286   5.141   5.378  0.00  0.00    +0.004 A 
ATOM     25  C   UNL     1       4.953   5.542   6.521  0.00  0.00    +0.000 A 
ATOM     26  C   UNL     1       4.892   6.861   6.930  0.00  0.00    +0.000 A 
ATOM     27  C   UNL     1       4.168   7.780   6.194  0.00  0.00    +0.000 A 
ATOM     28  C   UNL     1       3.504   7.380   5.049  0.00  0.00    +0.004 A 
ENDBRANCH   9  23
BRANCH   3  29
ATOM     29  C   UNL     1       1.086   4.080  -2.460  0.00  0.00    +0.317 C 
ATOM     30  O   UNL     1       1.606   4.494  -3.479  0.00  0.00    -0.250 OA
BRANCH  29  31
ATOM     31  O   UNL     1      -0.172   3.594  -2.494  0.00  0.00    -0.461 OA
BRANCH  31  32
ATOM     32  C   UNL     1      -0.834   3.594  -3.760  0.00  0.00    +0.176 C 
ATOM     33  C   UNL     1      -1.588   4.914  -3.941  0.00  0.00    +0.044 C 
ATOM     34  C   UNL     1      -2.296   4.914  -5.297  0.00  0.00    +0.004 C 
ATOM     35  C   UNL     1      -3.287   3.749  -5.356  0.00  0.00    +0.000 C 
ATOM     36  C   UNL     1      -2.533   2.430  -5.174  0.00  0.00    +0.004 C 
ATOM     37  C   UNL     1      -1.825   2.429  -3.818  0.00  0.00    +0.044 C 
ENDBRANCH  31  32
ENDBRANCH  29  31
ENDBRANCH   3  29
TORSDOF 6
