REMARK  Name = ZINC62790738
REMARK  4 active torsions:
REMARK  status: ('A' for Active; 'I' for Inactive)
REMARK    1  A    between atoms: C_3  and  C_9
REMARK    2  A    between atoms: C_6  and  C_7
REMARK    3  A    between atoms: C_7  and  N_8
REMARK    4  A    between atoms: C_11  and  C_14
REMARK                            x       y       z     vdW  Elec       q    Type
REMARK                         _______ _______ _______ _____ _____    ______ ____
ROOT
ATOM      1  C   UNL     1       3.657   2.160  -0.022  0.00  0.00    +0.259 A 
ATOM      2  N   UNL     1       4.860   1.637  -0.041  0.00  0.00    -0.187 NA
ATOM      3  C   UNL     1       5.783   2.612  -0.044  0.00  0.00    +0.202 A 
ATOM      4  N   UNL     1       5.173   3.772  -0.026  0.00  0.00    -0.056 NA
ATOM      5  O   UNL     1       3.780   3.499  -0.017  0.00  0.00    -0.332 OA
ENDROOT
BRANCH   3   6
ATOM      6  C   UNL     1       7.253   2.410  -0.064  0.00  0.00    +0.024 A 
ATOM      7  C   UNL     1       7.781   1.120  -0.087  0.00  0.00    +0.014 A 
ATOM      8  C   UNL     1       9.148   0.936  -0.106  0.00  0.00    +0.040 A 
ATOM      9  C   UNL     1       9.997   2.031  -0.101  0.00  0.00    +0.142 A 
ATOM     10  C   UNL     1       9.477   3.316  -0.078  0.00  0.00    +0.077 A 
ATOM     11  C   UNL     1       8.109   3.509  -0.065  0.00  0.00    +0.034 A 
ATOM     12 CL   UNL     1      10.546   4.684  -0.071  0.00  0.00    -0.081 Cl
ATOM     13  F   UNL     1      11.335   1.846  -0.120  0.00  0.00    -0.204 F 
ENDBRANCH   3   6
BRANCH   1  16
ATOM     14  C   UNL     1      -0.017   1.379   0.010  0.00  0.00    +0.002 A 
ATOM     15  C   UNL     1       1.167   2.088   0.002  0.00  0.00    +0.013 A 
ATOM     16  C   UNL     1       2.385   1.407  -0.013  0.00  0.00    +0.039 A 
ATOM     17  C   UNL     1       2.397   0.011  -0.021  0.00  0.00    +0.013 A 
ATOM     18  C   UNL     1       1.206  -0.686  -0.013  0.00  0.00    +0.002 A 
ATOM     19  C   UNL     1       0.002  -0.004   0.002  0.00  0.00    -0.065 A 
BRANCH  19  20
ATOM     20  C   UNL     1      -1.295  -0.772   0.010  0.00  0.00    -0.051 C 
BRANCH  20  21
ATOM     21  N   UNL     1      -1.729  -1.014  -1.372  0.00  0.00    +0.381 N 
ATOM     22  H   UNL     1      -2.597  -1.528  -1.366  0.00  0.00    -0.090 HD
ATOM     23  H   UNL     1      -1.864  -0.131  -1.842  0.00  0.00    -0.090 HD
ATOM     24  H   UNL     1      -1.025  -1.549  -1.857  0.00  0.00    -0.090 HD
ENDBRANCH  20  21
ENDBRANCH  19  20
ENDBRANCH   1  16
TORSDOF 4
