REMARK  Name = ZINC28056014
REMARK  5 active torsions:
REMARK  status: ('A' for Active; 'I' for Inactive)
REMARK    1  A    between atoms: C_1  and  C_2
REMARK    2  A    between atoms: C_10  and  C_18
REMARK    3  A    between atoms: C_21  and  O_24
REMARK    4  A    between atoms: O_24  and  C_25
REMARK    5  A    between atoms: C_26  and  C_29
REMARK                            x       y       z     vdW  Elec       q    Type
REMARK                         _______ _______ _______ _____ _____    ______ ____
ROOT
ATOM      1  C   UNL     1       2.127  -6.100   0.925  0.00  0.00    +0.044 C 
ATOM      2  C   UNL     1       1.243  -4.976   0.446  0.00  0.00    -0.050 A 
ATOM      3  C   UNL     1       1.172  -4.684  -0.905  0.00  0.00    +0.007 A 
ATOM      4  C   UNL     1       0.366  -3.656  -1.360  0.00  0.00    +0.046 A 
ATOM      5  C   UNL     1      -0.375  -2.915  -0.458  0.00  0.00    +0.131 A 
ATOM      6  C   UNL     1      -0.304  -3.209   0.910  0.00  0.00    +0.038 A 
ATOM      7  C   UNL     1       0.509  -4.243   1.358  0.00  0.00    +0.016 A 
ATOM      8  C   UNL     1      -1.113  -2.395   1.847  0.00  0.00    +0.050 C 
ATOM      9  C   UNL     1      -1.596  -1.226   1.421  0.00  0.00    +0.025 C 
ATOM     10  C   UNL     1      -2.432  -0.328   2.299  0.00  0.00    +0.174 C 
ATOM     11  N   UNL     1      -2.854  -1.047   3.493  0.00  0.00    -0.201 N 
ATOM     12  C   UNL     1      -2.336  -2.241   3.882  0.00  0.00    +0.240 A 
ATOM     13  N   UNL     1      -2.932  -2.581   4.988  0.00  0.00    -0.092 NA
ATOM     14  N   UNL     1      -3.799  -1.687   5.322  0.00  0.00    -0.021 NA
ATOM     15  N   UNL     1      -3.808  -0.724   4.457  0.00  0.00    -0.042 NA
ATOM     16  N   UNL     1      -1.353  -2.875   3.141  0.00  0.00    -0.282 N 
ATOM     17  C   UNL     1      -1.293  -0.775   0.010  0.00  0.00    +0.234 C 
ATOM     18  O   UNL     1      -1.177  -1.898  -0.864  0.00  0.00    -0.479 OA
ATOM     19  H   UNL     1      -0.770  -3.724   3.529  0.00  0.00    +0.155 HD
ENDROOT
BRANCH  17  20
ATOM     20  C   UNL     1       0.002  -0.004   0.002  0.00  0.00    -0.002 A 
ATOM     21  C   UNL     1      -0.014   1.372  -0.128  0.00  0.00    +0.009 A 
ATOM     22  C   UNL     1       1.173   2.080  -0.135  0.00  0.00    +0.022 A 
ATOM     23  C   UNL     1       2.378   1.412  -0.013  0.00  0.00    +0.059 A 
ATOM     24  C   UNL     1       2.394   0.034   0.116  0.00  0.00    +0.060 A 
ATOM     25  C   UNL     1       1.205  -0.673   0.124  0.00  0.00    +0.029 A 
ATOM     26 CL   UNL     1       3.905  -0.807   0.270  0.00  0.00    -0.082 Cl
ATOM     27 CL   UNL     1       3.869   2.301  -0.022  0.00  0.00    -0.082 Cl
ENDBRANCH  17  20
BRANCH  10  28
ATOM     28  C   UNL     1      -1.615   0.873   2.702  0.00  0.00    -0.018 A 
ATOM     29  C   UNL     1      -0.451   0.703   3.428  0.00  0.00    +0.009 A 
ATOM     30  C   UNL     1       0.302   1.802   3.794  0.00  0.00    +0.046 A 
ATOM     31  C   UNL     1      -0.116   3.077   3.441  0.00  0.00    +0.120 A 
ATOM     32  C   UNL     1      -1.287   3.244   2.717  0.00  0.00    +0.046 A 
ATOM     33  C   UNL     1      -2.034   2.142   2.349  0.00  0.00    +0.009 A 
BRANCH  31  34
ATOM     34  O   UNL     1       0.621   4.160   3.804  0.00  0.00    -0.495 OA
ATOM     35  C   UNL     1       1.815   3.912   4.548  0.00  0.00    +0.277 C 
ENDBRANCH  31  34
ENDBRANCH  10  28
TORSDOF 3
