REMARK  Name = ZINC34747177
REMARK  5 active torsions:
REMARK  status: ('A' for Active; 'I' for Inactive)
REMARK    1  A    between atoms: C_2  and  C_3
REMARK    2  A    between atoms: C_3  and  N_4
REMARK    3  A    between atoms: N_23  and  C_24
REMARK    4  A    between atoms: C_24  and  C_25
REMARK    5  A    between atoms: N_27  and  C_28
REMARK                            x       y       z     vdW  Elec       q    Type
REMARK                         _______ _______ _______ _____ _____    ______ ____
ROOT
ATOM      1  N   UNL     1       0.316  -1.711   2.151  0.00  0.00    +0.384 N 
ATOM      2  C   UNL     1       0.246  -2.425   3.433  0.00  0.00    -0.059 C 
ATOM      3  C   UNL     1       1.512  -3.270   3.615  0.00  0.00    +0.089 C 
ATOM      4  N   UNL     1       1.663  -4.143   2.441  0.00  0.00    -0.304 N 
ATOM      5  C   UNL     1       1.581  -3.530   1.106  0.00  0.00    +0.089 C 
ATOM      6  C   UNL     1       0.312  -2.673   1.042  0.00  0.00    -0.059 C 
ATOM      7  C   UNL     1       1.874  -5.492   2.586  0.00  0.00    +0.202 A 
ATOM      8  N   UNL     1       0.843  -6.307   2.654  0.00  0.00    -0.208 NA
ATOM      9  C   UNL     1       1.019  -7.616   2.795  0.00  0.00    +0.117 A 
ATOM     10  C   UNL     1       2.296  -8.193   2.877  0.00  0.00    +0.076 A 
ATOM     11  C   UNL     1       2.332  -9.649   3.032  0.00  0.00    -0.023 A 
ATOM     12  C   UNL     1       1.146 -10.288   3.079  0.00  0.00    -0.004 A 
ATOM     13  S   UNL     1      -0.073  -9.010   2.923  0.00  0.00    -0.073 S 
ATOM     14  C   UNL     1       0.913 -11.761   3.231  0.00  0.00    +0.043 C 
ATOM     15  C   UNL     1       2.236 -12.491   2.956  0.00  0.00    +0.005 C 
ATOM     16  C   UNL     1       3.352 -11.800   3.744  0.00  0.00    +0.005 C 
ATOM     17  C   UNL     1       3.641 -10.426   3.138  0.00  0.00    +0.037 C 
ATOM     18  C   UNL     1       3.398  -7.283   2.800  0.00  0.00    +0.264 A 
ATOM     19  O   UNL     1       4.544  -7.693   2.862  0.00  0.00    -0.267 OA
ATOM     20  N   UNL     1       3.150  -5.968   2.652  0.00  0.00    -0.271 N 
ATOM     21  H   UNL     1       1.164  -1.165   2.119  0.00  0.00    -0.081 HD
ENDROOT
BRANCH   1  22
ATOM     22  C   UNL     1      -0.844  -0.818   2.027  0.00  0.00    -0.052 C 
BRANCH  22  24
ATOM     23  C   UNL     1      -0.818   1.512   2.758  0.00  0.00    +0.002 C 
ATOM     24  C   UNL     1      -0.775   0.246   3.092  0.00  0.00    -0.053 C 
ENDBRANCH  22  24
ENDBRANCH   1  22
BRANCH  20  25
ATOM     25  C   UNL     1       4.273  -5.031   2.567  0.00  0.00    +0.223 C 
BRANCH  25  26
ATOM     26  C   UNL     1       4.699  -4.630   3.956  0.00  0.00    +0.233 C 
ATOM     27  O   UNL     1       4.121  -5.082   4.922  0.00  0.00    -0.274 OA
ATOM     28  N   UNL     1       5.721  -3.768   4.125  0.00  0.00    -0.311 N 
ATOM     29  H   UNL     1       6.183  -3.406   3.353  0.00  0.00    +0.149 HD
BRANCH  28  30
ATOM     30  C   UNL     1       6.135  -3.378   5.475  0.00  0.00    +0.073 C 
ATOM     31  C   UNL     1       5.267  -2.214   5.958  0.00  0.00    +0.022 C 
ATOM     32  C   UNL     1       5.699  -1.807   7.368  0.00  0.00    +0.002 C 
ATOM     33  C   UNL     1       7.167  -1.374   7.347  0.00  0.00    +0.000 C 
ATOM     34  C   UNL     1       8.034  -2.538   6.864  0.00  0.00    +0.002 C 
ATOM     35  C   UNL     1       7.602  -2.945   5.454  0.00  0.00    +0.022 C 
ENDBRANCH  28  30
ENDBRANCH  25  26
ENDBRANCH  20  25
TORSDOF 5
