REMARK  Name = ZINC11814909
REMARK  10 active torsions:
REMARK  status: ('A' for Active; 'I' for Inactive)
REMARK    1  A    between atoms: C_1  and  C_2
REMARK    2  A    between atoms: C_2  and  C_3
REMARK    3  A    between atoms: C_3  and  C_5
REMARK    4  A    between atoms: C_3  and  C_6
REMARK    5  A    between atoms: C_11  and  C_14
REMARK    6  A    between atoms: C_14  and  C_27
REMARK    7  A    between atoms: N_17  and  C_21
REMARK    8  A    between atoms: C_21  and  C_22
REMARK    9  A    between atoms: C_22  and  N_71
REMARK   10  A    between atoms: C_27  and  C_28
REMARK                            x       y       z     vdW  Elec       q    Type
REMARK                         _______ _______ _______ _____ _____    ______ ____
ROOT
ATOM      1  C   UNL     1      -0.460   3.287   0.254  0.00  0.00    +0.119 C 
ATOM      2  C   UNL     1       0.026   4.629   0.763  0.00  0.00    +0.247 C 
ATOM      3  O   UNL     1      -0.643   5.617   0.979  0.00  0.00    -0.273 OA
ATOM      4  N   UNL     1       1.358   4.498   0.921  0.00  0.00    -0.226 N 
ATOM      5  C   UNL     1       1.776   3.271   0.590  0.00  0.00    +0.309 C 
ATOM      6  O   UNL     1       2.936   2.914   0.650  0.00  0.00    -0.252 OA
ATOM      7  N   UNL     1       0.768   2.477   0.184  0.00  0.00    -0.284 N 
ATOM      8  H   UNL     1       0.838   1.553  -0.102  0.00  0.00    +0.151 HD
ENDROOT
BRANCH   1  14
ATOM      9  C   UNL     1      -3.774   3.231   4.582  0.00  0.00    +0.218 C 
ATOM     10  O   UNL     1      -3.299   3.065   5.685  0.00  0.00    -0.275 OA
ATOM     11  N   UNL     1      -3.155   2.723   3.498  0.00  0.00    -0.301 N 
ATOM     12  C   UNL     1      -1.854   2.053   3.624  0.00  0.00    +0.108 C 
ATOM     13  C   UNL     1      -0.868   2.703   2.649  0.00  0.00    +0.025 C 
ATOM     14  C   UNL     1      -1.457   2.670   1.237  0.00  0.00    +0.025 C 
ATOM     15  C   UNL     1      -2.762   3.468   1.208  0.00  0.00    +0.025 C 
ATOM     16  C   UNL     1      -3.770   2.827   2.167  0.00  0.00    +0.108 C 
BRANCH   9  17
ATOM     17  C   UNL     1      -5.056   4.006   4.423  0.00  0.00    +0.072 C 
ATOM     18  C   UNL     1      -6.236   3.034   4.360  0.00  0.00    +0.017 C 
BRANCH  17  20
ATOM     19  C   UNL     1      -6.470   5.823   5.395  0.00  0.00    +0.004 C 
ATOM     20  C   UNL     1      -5.234   4.948   5.616  0.00  0.00    +0.009 C 
ENDBRANCH  17  20
ENDBRANCH   9  17
ENDBRANCH   1  14
BRANCH   4  21
ATOM     21  C   UNL     1       2.240   5.568   1.396  0.00  0.00    +0.099 C 
BRANCH  21  22
ATOM     22  C   UNL     1       2.750   6.376   0.201  0.00  0.00    -0.059 C 
BRANCH  22  27
ATOM     23  C   UNL     1       4.702   6.907   1.557  0.00  0.00    -0.079 C 
ATOM     24  C   UNL     1       5.786   8.013   1.520  0.00  0.00    -0.020 C 
ATOM     25  C   UNL     1       5.731   8.502   0.054  0.00  0.00    -0.020 C 
ATOM     26  C   UNL     1       4.334   8.099  -0.452  0.00  0.00    -0.079 C 
ATOM     27  N   UNL     1       3.659   7.461   0.679  0.00  0.00    +0.381 N 
ATOM     28  H   UNL     1       3.108   8.159   1.193  0.00  0.00    -0.082 HD
ENDBRANCH  22  27
ENDBRANCH  21  22
ENDBRANCH   4  21
BRANCH   1  29
ATOM     29  C   UNL     1      -1.089   3.431  -1.134  0.00  0.00    +0.070 C 
BRANCH  29  30
ATOM     30  C   UNL     1      -0.065   3.977  -2.095  0.00  0.00    -0.045 A 
ATOM     31  C   UNL     1       0.060   5.342  -2.270  0.00  0.00    +0.004 A 
ATOM     32  C   UNL     1       1.002   5.843  -3.149  0.00  0.00    +0.000 A 
ATOM     33  C   UNL     1       1.813   4.978  -3.860  0.00  0.00    +0.000 A 
ATOM     34  C   UNL     1       1.685   3.612  -3.688  0.00  0.00    +0.000 A 
ATOM     35  C   UNL     1       0.746   3.112  -2.806  0.00  0.00    +0.004 A 
ENDBRANCH  29  30
ENDBRANCH   1  29
TORSDOF 8
