REMARK  Name = ZINC08991921
REMARK  10 active torsions:
REMARK  status: ('A' for Active; 'I' for Inactive)
REMARK    1  A    between atoms: C_1  and  C_2
REMARK    2  A    between atoms: C_6  and  C_28
REMARK    3  A    between atoms: C_7  and  C_11
REMARK    4  A    between atoms: C_11  and  C_12
REMARK    5  A    between atoms: N_14  and  C_15
REMARK    6  A    between atoms: C_15  and  C_16
REMARK    7  A    between atoms: C_16  and  C_17
REMARK    8  A    between atoms: C_19  and  C_22
REMARK    9  A    between atoms: C_31  and  C_35
REMARK   10  A    between atoms: C_32  and  C_34
REMARK                            x       y       z     vdW  Elec       q    Type
REMARK                         _______ _______ _______ _____ _____    ______ ____
ROOT
ATOM      1  C   UNL     1      -3.064   0.723   0.585  0.00  0.00    +0.044 C 
ATOM      2  C   UNL     1      -2.553   2.138   0.492  0.00  0.00    -0.036 A 
ATOM      3  C   UNL     1      -3.437   3.176   0.443  0.00  0.00    +0.051 A 
ATOM      4  C   UNL     1      -2.982   4.490   0.357  0.00  0.00    +0.143 A 
ATOM      5  C   UNL     1      -1.602   4.752   0.327  0.00  0.00    +0.064 A 
ATOM      6  C   UNL     1      -1.143   6.138   0.229  0.00  0.00    -0.026 A 
ATOM      7  C   UNL     1      -2.078   7.123   0.185  0.00  0.00    +0.049 A 
ATOM      8  C   UNL     1      -3.447   6.789   0.227  0.00  0.00    +0.341 A 
ATOM      9  O   UNL     1      -4.277   7.680   0.186  0.00  0.00    -0.245 OA
ATOM     10  O   UNL     1      -3.860   5.516   0.309  0.00  0.00    -0.422 OA
ATOM     11  C   UNL     1       0.327   6.464   0.187  0.00  0.00    +0.045 C 
ATOM     12  C   UNL     1      -0.687   3.687   0.373  0.00  0.00    +0.147 A 
ATOM     13  C   UNL     1      -1.176   2.377   0.456  0.00  0.00    +0.027 A 
ATOM     14  C   UNL     1       0.014   1.516   0.490  0.00  0.00    -0.002 A 
ATOM     15  C   UNL     1       1.070   2.338   0.419  0.00  0.00    +0.106 A 
ATOM     16  O   UNL     1       0.657   3.615   0.350  0.00  0.00    -0.459 OA
ATOM     17  C   UNL     1       2.510   1.894   0.417  0.00  0.00    +0.086 C 
ATOM     18  C   UNL     1       0.041   0.012   0.580  0.00  0.00    +0.048 C 
ENDROOT
BRANCH   7  19
ATOM     19  C   UNL     1      -1.654   8.566   0.092  0.00  0.00    +0.138 C 
BRANCH  19  20
ATOM     20  C   UNL     1      -1.489   9.132   1.479  0.00  0.00    +0.218 C 
ATOM     21  O   UNL     1      -1.697   8.432   2.448  0.00  0.00    -0.275 OA
ATOM     22  N   UNL     1      -1.112  10.415   1.643  0.00  0.00    -0.315 N 
ATOM     23  H   UNL     1      -0.946  10.975   0.868  0.00  0.00    +0.149 HD
BRANCH  22  24
ATOM     24  C   UNL     1      -0.952  10.965   2.992  0.00  0.00    +0.113 C 
BRANCH  24  25
ATOM     25  C   UNL     1      -0.521  12.430   2.897  0.00  0.00    +0.117 C 
BRANCH  25  26
ATOM     26  C   UNL     1      -0.357  12.996   4.284  0.00  0.00    +0.229 A 
ATOM     27  N   UNL     1       0.739  12.990   5.002  0.00  0.00    -0.191 NA
ATOM     28  C   UNL     1       0.415  13.601   6.164  0.00  0.00    +0.202 A 
ATOM     29  N   UNL     1      -0.846  13.938   6.084  0.00  0.00    -0.056 NA
ATOM     30  O   UNL     1      -1.300  13.602   5.011  0.00  0.00    -0.338 OA
BRANCH  28  31
ATOM     31  C   UNL     1       1.321  13.844   7.314  0.00  0.00    +0.022 A 
ATOM     32  C   UNL     1       2.647  13.421   7.261  0.00  0.00    +0.012 A 
ATOM     33  C   UNL     1       3.487  13.654   8.332  0.00  0.00    +0.001 A 
ATOM     34  C   UNL     1       3.010  14.295   9.461  0.00  0.00    +0.000 A 
ATOM     35  C   UNL     1       1.693  14.712   9.521  0.00  0.00    +0.001 A 
ATOM     36  C   UNL     1       0.846  14.489   8.454  0.00  0.00    +0.012 A 
ENDBRANCH  28  31
ENDBRANCH  25  26
ENDBRANCH  24  25
ENDBRANCH  22  24
ENDBRANCH  19  20
ENDBRANCH   7  19
TORSDOF 6
