REMARK  Name = ZINC38595806
REMARK  10 active torsions:
REMARK  status: ('A' for Active; 'I' for Inactive)
REMARK    1  A    between atoms: C_1  and  C_2
REMARK    2  A    between atoms: C_3  and  C_11
REMARK    3  A    between atoms: C_7  and  N_8
REMARK    4  A    between atoms: N_13  and  C_14
REMARK    5  A    between atoms: C_14  and  C_16
REMARK    6  A    between atoms: C_14  and  C_17
REMARK    7  A    between atoms: C_17  and  C_19
REMARK    8  A    between atoms: C_17  and  N_24
REMARK    9  A    between atoms: N_27  and  C_30
REMARK   10  A    between atoms: C_30  and  C_31
REMARK                            x       y       z     vdW  Elec       q    Type
REMARK                         _______ _______ _______ _____ _____    ______ ____
ROOT
ATOM      1  C   UNL     1      -2.188  -0.580  -5.379  0.00  0.00    +0.113 C 
ENDROOT
BRANCH   1   2
ATOM      2  N   UNL     1      -2.850   0.122  -6.487  0.00  0.00    -0.297 NA
ATOM      3  C   UNL     1      -3.883   1.040  -5.987  0.00  0.00    +0.066 C 
ATOM      4  C   UNL     1      -4.504   1.794  -7.165  0.00  0.00    -0.063 C 
ATOM      5  N   UNL     1      -5.093   0.832  -8.106  0.00  0.00    +0.384 N 
ATOM      6  C   UNL     1      -4.045  -0.062  -8.615  0.00  0.00    -0.063 C 
ATOM      7  C   UNL     1      -3.420  -0.831  -7.450  0.00  0.00    +0.066 C 
ATOM      8  H   UNL     1      -5.799   0.287  -7.633  0.00  0.00    -0.081 HD
BRANCH   5   9
ATOM      9  C   UNL     1      -5.706   1.557  -9.227  0.00  0.00    -0.043 C 
BRANCH   9  10
ATOM     10  C   UNL     1      -6.416   0.580 -10.129  0.00  0.00    -0.064 A 
ATOM     11  C   UNL     1      -5.737  -0.012 -11.177  0.00  0.00    +0.002 A 
ATOM     12  C   UNL     1      -6.388  -0.908 -12.004  0.00  0.00    +0.000 A 
ATOM     13  C   UNL     1      -7.718  -1.212 -11.783  0.00  0.00    +0.000 A 
ATOM     14  C   UNL     1      -8.397  -0.621 -10.734  0.00  0.00    +0.000 A 
ATOM     15  C   UNL     1      -7.745   0.272  -9.904  0.00  0.00    +0.002 A 
ENDBRANCH   9  10
ENDBRANCH   5   9
ENDBRANCH   1   2
BRANCH   1  16
ATOM     16  C   UNL     1      -3.170  -1.515  -4.721  0.00  0.00    +0.009 A 
ATOM     17  C   UNL     1      -3.035  -2.834  -4.439  0.00  0.00    +0.013 A 
ATOM     18  C   UNL     1      -4.078  -3.498  -3.822  0.00  0.00    +0.008 A 
ATOM     19  C   UNL     1      -5.206  -2.811  -3.518  0.00  0.00    +0.045 A 
ATOM     20  S   UNL     1      -4.809  -1.172  -4.102  0.00  0.00    -0.100 S 
ENDBRANCH   1  16
BRANCH   1  21
ATOM     21  C   UNL     1      -1.689   0.440  -4.354  0.00  0.00    +0.092 C 
ATOM     22  C   UNL     1      -0.693   1.389  -5.023  0.00  0.00    +0.030 C 
BRANCH  21  25
ATOM     23  C   UNL     1      -0.960   0.315  -2.033  0.00  0.00    +0.245 C 
ATOM     24  O   UNL     1      -1.444   1.416  -1.852  0.00  0.00    -0.270 OA
ATOM     25  N   UNL     1      -1.030  -0.261  -3.249  0.00  0.00    -0.307 N 
ATOM     26  H   UNL     1      -0.644  -1.139  -3.393  0.00  0.00    +0.149 HD
BRANCH  23  29
ATOM     27  C   UNL     1      -1.048   1.442   0.631  0.00  0.00    +0.047 C 
ATOM     28  C   UNL     1      -0.331   0.142   0.372  0.00  0.00    -0.008 A 
ATOM     29  C   UNL     1      -0.295  -0.392  -0.917  0.00  0.00    +0.042 A 
ATOM     30  C   UNL     1       0.372  -1.596  -1.149  0.00  0.00    +0.013 A 
ATOM     31  C   UNL     1       0.990  -2.251  -0.104  0.00  0.00    +0.003 A 
ATOM     32  C   UNL     1       0.951  -1.716   1.171  0.00  0.00    +0.033 A 
ATOM     33  C   UNL     1       0.296  -0.520   1.407  0.00  0.00    +0.130 A 
BRANCH  33  34
ATOM     34  N   UNL     1       0.265   0.048   2.773  0.00  0.00    +0.057 N 
ATOM     35  O   UNL     1       0.695  -0.592   3.704  0.00  0.00    -0.126 OA
ATOM     36  O   UNL     1      -0.191   1.153   2.959  0.00  0.00    -0.126 OA
ENDBRANCH  33  34
ENDBRANCH  23  29
ENDBRANCH  21  25
ENDBRANCH   1  21
TORSDOF 8
