REMARK  Name = ZINC06077719
REMARK  13 active torsions:
REMARK  status: ('A' for Active; 'I' for Inactive)
REMARK    1  A    between atoms: C_1  and  C_2
REMARK    2  A    between atoms: C_2  and  C_3
REMARK    3  A    between atoms: C_3  and  C_4
REMARK    4  A    between atoms: C_3  and  C_5
REMARK    5  A    between atoms: C_3  and  N_6
REMARK    6  A    between atoms: C_7  and  C_11
REMARK    7  A    between atoms: C_11  and  C_13
REMARK    8  A    between atoms: C_11  and  N_71
REMARK    9  A    between atoms: C_17  and  C_25
REMARK   10  A    between atoms: C_26  and  C_27
REMARK   11  A    between atoms: C_26  and  N_71
REMARK   12  A    between atoms: C_33  and  C_34
REMARK   13  A    between atoms: C_33  and  N_71
REMARK                            x       y       z     vdW  Elec       q    Type
REMARK                         _______ _______ _______ _____ _____    ______ ____
ROOT
ATOM      1  C   UNL     1       2.459   0.279  -0.758  0.00  0.00    +0.040 C 
ENDROOT
BRANCH   1   2
ATOM      2  C   UNL     1       1.295   1.218  -0.938  0.00  0.00    +0.011 A 
ATOM      3  C   UNL     1       0.042   0.721  -1.081  0.00  0.00    +0.017 A 
ATOM      4  C   UNL     1      -1.067   1.660  -1.259  0.00  0.00    -0.001 A 
ATOM      5  C   UNL     1      -2.381   1.207  -1.416  0.00  0.00    +0.013 A 
ATOM      6  C   UNL     1      -3.394   2.109  -1.581  0.00  0.00    -0.050 A 
ATOM      7  C   UNL     1      -3.130   3.472  -1.593  0.00  0.00    +0.005 A 
ATOM      8  C   UNL     1      -1.845   3.942  -1.431  0.00  0.00    +0.026 A 
ATOM      9  C   UNL     1      -0.797   3.041  -1.267  0.00  0.00    +0.049 A 
ATOM     10  N   UNL     1       0.500   3.483  -1.116  0.00  0.00    -0.322 N 
ATOM     11  H   UNL     1       0.691   4.464  -1.125  0.00  0.00    +0.169 HD
ATOM     12  C   UNL     1       1.513   2.612  -0.957  0.00  0.00    +0.251 A 
ATOM     13  O   UNL     1       2.648   3.038  -0.828  0.00  0.00    -0.268 OA
ATOM     14  C   UNL     1      -4.809   1.620  -1.751  0.00  0.00    +0.044 C 
ENDBRANCH   1   2
BRANCH   1  16
ATOM     15  N   UNL     1       3.535  -0.709  -2.849  0.00  0.00    -0.225 N 
ATOM     16  C   UNL     1       3.324   0.307  -1.992  0.00  0.00    +0.143 A 
ATOM     17  N   UNL     1       4.012   1.329  -2.442  0.00  0.00    -0.115 NA
ATOM     18  N   UNL     1       4.620   0.957  -3.515  0.00  0.00    -0.023 NA
ATOM     19  N   UNL     1       4.332  -0.273  -3.765  0.00  0.00    -0.043 NA
BRANCH  15  20
ATOM     20  C   UNL     1       2.968  -2.056  -2.758  0.00  0.00    +0.061 C 
ATOM     21  C   UNL     1       3.438  -2.721  -1.463  0.00  0.00    +0.036 C 
ATOM     22  C   UNL     1       1.440  -1.967  -2.759  0.00  0.00    +0.036 C 
BRANCH  20  24
ATOM     23  C   UNL     1       2.838  -4.294  -3.861  0.00  0.00    +0.006 C 
ATOM     24  C   UNL     1       3.431  -2.887  -3.956  0.00  0.00    +0.026 C 
ENDBRANCH  20  24
ENDBRANCH  15  20
ENDBRANCH   1  16
BRANCH   1  25
ATOM     25  N   UNL     1       3.256   0.727   0.403  0.00  0.00    +0.395 N 
ATOM     26  H   UNL     1       3.409   1.740   0.332  0.00  0.00    -0.079 HD
BRANCH  25  27
ATOM     27  C   UNL     1       2.529   0.439   1.657  0.00  0.00    -0.041 C 
BRANCH  27  28
ATOM     28  C   UNL     1       2.104  -1.006   1.700  0.00  0.00    -0.064 A 
ATOM     29  C   UNL     1       0.886  -1.385   1.166  0.00  0.00    +0.002 A 
ATOM     30  C   UNL     1       0.499  -2.711   1.201  0.00  0.00    +0.000 A 
ATOM     31  C   UNL     1       1.323  -3.658   1.780  0.00  0.00    +0.000 A 
ATOM     32  C   UNL     1       2.538  -3.278   2.320  0.00  0.00    +0.000 A 
ATOM     33  C   UNL     1       2.929  -1.953   2.280  0.00  0.00    +0.002 A 
ENDBRANCH  27  28
ENDBRANCH  25  27
BRANCH  25  34
ATOM     34  C   UNL     1       4.567   0.044   0.411  0.00  0.00    -0.040 C 
BRANCH  34  35
ATOM     35  C   UNL     1       5.499   0.796   1.326  0.00  0.00    -0.046 A 
ATOM     36  C   UNL     1       6.183   1.912   0.868  0.00  0.00    +0.005 A 
ATOM     37  C   UNL     1       7.026   2.575   1.747  0.00  0.00    +0.020 A 
ATOM     38  C   UNL     1       7.164   2.099   3.037  0.00  0.00    +0.111 A 
ATOM     39  N   UNL     1       6.501   1.031   3.436  0.00  0.00    -0.263 NA
ATOM     40  C   UNL     1       5.687   0.378   2.630  0.00  0.00    +0.112 A 
ENDBRANCH  34  35
ENDBRANCH  25  34
ENDBRANCH   1  25
TORSDOF 9
