REMARK  Name = ZINC35401526
REMARK  9 active torsions:
REMARK  status: ('A' for Active; 'I' for Inactive)
REMARK    1  A    between atoms: C_1  and  C_2
REMARK    2  A    between atoms: C_7  and  N_12
REMARK    3  A    between atoms: C_9  and  C_11
REMARK    4  A    between atoms: N_12  and  C_13
REMARK    5  A    between atoms: C_13  and  C_14
REMARK    6  A    between atoms: C_17  and  C_32
REMARK    7  A    between atoms: C_20  and  C_22
REMARK    8  A    between atoms: C_35  and  O_38
REMARK    9  A    between atoms: O_38  and  C_39
REMARK                            x       y       z     vdW  Elec       q    Type
REMARK                         _______ _______ _______ _____ _____    ______ ____
ROOT
ATOM      1  C   UNL     1      -2.010  -4.535   1.367  0.00  0.00    +0.218 C 
ATOM      2  O   UNL     1      -2.942  -3.763   1.288  0.00  0.00    -0.276 OA
ATOM      3  N   UNL     1      -2.239  -5.860   1.464  0.00  0.00    -0.187 N 
ATOM      4  C   UNL     1      -3.563  -6.501   1.480  0.00  0.00    +0.137 C 
ATOM      5  C   UNL     1      -3.237  -8.002   1.604  0.00  0.00    +0.087 C 
ATOM      6  C   UNL     1      -1.726  -8.045   1.646  0.00  0.00    +0.069 C 
ATOM      7  N   UNL     1      -1.260  -6.847   1.559  0.00  0.00    -0.181 NA
ENDROOT
BRANCH   6   8
ATOM      8  C   UNL     1      -0.912  -9.268   1.762  0.00  0.00    -0.002 A 
ATOM      9  C   UNL     1      -1.545 -10.523   1.838  0.00  0.00    +0.010 A 
ATOM     10  C   UNL     1      -0.817 -11.664   1.945  0.00  0.00    +0.009 A 
ATOM     11  C   UNL     1       0.589 -11.601   1.981  0.00  0.00    -0.018 A 
ATOM     12  C   UNL     1       1.363 -12.769   2.091  0.00  0.00    +0.008 A 
ATOM     13  C   UNL     1       2.720 -12.678   2.123  0.00  0.00    +0.001 A 
ATOM     14  C   UNL     1       3.359 -11.441   2.049  0.00  0.00    +0.001 A 
ATOM     15  C   UNL     1       2.643 -10.289   1.942  0.00  0.00    +0.008 A 
ATOM     16  C   UNL     1       1.238 -10.343   1.906  0.00  0.00    -0.017 A 
ATOM     17  C   UNL     1       0.470  -9.175   1.790  0.00  0.00    +0.018 A 
ENDBRANCH   6   8
BRANCH   4  18
ATOM     18  C   UNL     1      -4.367  -6.029   2.664  0.00  0.00    -0.024 A 
ATOM     19  C   UNL     1      -3.744  -5.821   3.881  0.00  0.00    +0.009 A 
ATOM     20  C   UNL     1      -4.479  -5.389   4.969  0.00  0.00    +0.046 A 
ATOM     21  C   UNL     1      -5.841  -5.164   4.839  0.00  0.00    +0.120 A 
ATOM     22  C   UNL     1      -6.463  -5.373   3.616  0.00  0.00    +0.046 A 
ATOM     23  C   UNL     1      -5.723  -5.800   2.531  0.00  0.00    +0.009 A 
BRANCH  21  24
ATOM     24  O   UNL     1      -6.566  -4.739   5.907  0.00  0.00    -0.495 OA
ATOM     25  C   UNL     1      -7.964  -4.528   5.700  0.00  0.00    +0.277 C 
ENDBRANCH  21  24
ENDBRANCH   4  18
BRANCH   1  26
ATOM     26  C   UNL     1      -0.596  -4.014   1.356  0.00  0.00    +0.017 C 
BRANCH  26  27
ATOM     27  N   UNL     1      -0.615  -2.549   1.244  0.00  0.00    +0.387 N 
ATOM     28  H   UNL     1      -1.112  -2.158   2.030  0.00  0.00    -0.085 HD
ATOM     29  H   UNL     1      -1.078  -2.284   0.387  0.00  0.00    -0.085 HD
BRANCH  27  35
ATOM     30  C   UNL     1      -0.019   1.526   0.010  0.00  0.00    +0.008 C 
ATOM     31  C   UNL     1       0.002  -0.004   0.002  0.00  0.00    -0.013 C 
ATOM     32  C   UNL     1       0.718  -0.497  -1.257  0.00  0.00    +0.003 C 
ATOM     33  C   UNL     1       0.739  -2.027  -1.265  0.00  0.00    -0.001 C 
ATOM     34  C   UNL     1       1.479  -2.534  -0.026  0.00  0.00    -0.015 C 
ATOM     35  C   UNL     1       0.763  -2.041   1.233  0.00  0.00    -0.068 C 
ATOM     36  C   UNL     1       0.742  -0.511   1.242  0.00  0.00    -0.025 C 
ATOM     37  C   UNL     1       0.026  -0.018   2.500  0.00  0.00    +0.006 C 
ENDBRANCH  27  35
ENDBRANCH  26  27
ENDBRANCH   1  26
TORSDOF 6
