REMARK  Name = ZINC37769951
REMARK  8 active torsions:
REMARK  status: ('A' for Active; 'I' for Inactive)
REMARK    1  A    between atoms: C_1  and  O_2
REMARK    2  A    between atoms: O_2  and  C_3
REMARK    3  A    between atoms: C_3  and  C_5
REMARK    4  A    between atoms: C_10  and  N_11
REMARK    5  A    between atoms: C_12  and  C_14
REMARK    6  A    between atoms: C_14  and  C_15
REMARK    7  A    between atoms: C_15  and  N_16
REMARK    8  A    between atoms: N_16  and  C_17
REMARK                            x       y       z     vdW  Elec       q    Type
REMARK                         _______ _______ _______ _____ _____    ______ ____
ROOT
ATOM      1  C   UNL     1      -1.651  -2.857   1.245  0.00  0.00    +0.082 A 
ATOM      2  C   UNL     1      -0.447  -3.562   1.158  0.00  0.00    +0.032 A 
ATOM      3  C   UNL     1      -0.107  -4.203  -0.014  0.00  0.00    +0.020 A 
ATOM      4  C   UNL     1      -0.955  -4.152  -1.110  0.00  0.00    +0.032 A 
ATOM      5  C   UNL     1      -2.148  -3.460  -1.040  0.00  0.00    +0.041 A 
ATOM      6  C   UNL     1      -2.509  -2.813   0.136  0.00  0.00    +0.062 A 
ATOM      7 BR   UNL     1      -3.295  -3.399  -2.542  0.00  0.00    -0.048 Br
ATOM      8 BR   UNL     1       1.522  -5.155  -0.128  0.00  0.00    -0.050 Br
ENDROOT
BRANCH   6   9
ATOM      9  N   UNL     1      -3.715  -2.119   0.211  0.00  0.00    -0.284 N 
ATOM     10  C   UNL     1      -4.883  -2.784   0.109  0.00  0.00    +0.215 C 
ATOM     11  O   UNL     1      -4.886  -3.993   0.015  0.00  0.00    -0.276 OA
ATOM     12  H   UNL     1      -3.713  -1.157   0.336  0.00  0.00    +0.155 HD
BRANCH  10  13
ATOM     13  C   UNL     1      -6.184  -2.025   0.112  0.00  0.00    +0.077 C 
BRANCH  13  14
ATOM     14  C   UNL     1      -7.349  -3.009  -0.014  0.00  0.00    -0.073 C 
BRANCH  14  15
ATOM     15  N   UNL     1      -8.618  -2.269  -0.011  0.00  0.00    +0.381 N 
ATOM     16  H   UNL     1      -8.705  -1.754   0.852  0.00  0.00    -0.086 HD
ATOM     17  H   UNL     1      -8.634  -1.627  -0.789  0.00  0.00    -0.086 HD
BRANCH  15  18
ATOM     18  C   UNL     1      -9.736  -3.214  -0.132  0.00  0.00    -0.072 C 
ATOM     19  C   UNL     1     -10.612  -3.116  -1.383  0.00  0.00    -0.017 C 
ATOM     20  C   UNL     1     -11.154  -2.648  -0.031  0.00  0.00    -0.017 C 
ENDBRANCH  15  18
ENDBRANCH  14  15
ENDBRANCH  13  14
ENDBRANCH  10  13
ENDBRANCH   6   9
BRANCH   1  21
ATOM     21  C   UNL     1      -2.020  -2.170   2.495  0.00  0.00    +0.341 C 
ATOM     22  O   UNL     1      -3.114  -1.653   2.604  0.00  0.00    -0.245 OA
BRANCH  21  24
ATOM     23  C   UNL     1      -1.568  -1.434   4.700  0.00  0.00    +0.280 C 
ATOM     24  O   UNL     1      -1.144  -2.116   3.518  0.00  0.00    -0.464 OA
ENDBRANCH  21  24
ENDBRANCH   1  21
TORSDOF 7
