REMARK  Name = ZINC31154909
REMARK  15 active torsions:
REMARK  status: ('A' for Active; 'I' for Inactive)
REMARK    1  A    between atoms: C_1  and  C_2
REMARK    2  A    between atoms: C_9  and  O_11
REMARK    3  A    between atoms: O_11  and  C_12
REMARK    4  A    between atoms: C_12  and  C_14
REMARK    5  A    between atoms: C_15  and  C_35
REMARK    6  A    between atoms: C_15  and  O_36
REMARK    7  A    between atoms: C_17  and  O_26
REMARK    8  A    between atoms: C_19  and  C_21
REMARK    9  A    between atoms: C_21  and  C_23
REMARK   10  A    between atoms: O_26  and  C_27
REMARK   11  A    between atoms: C_27  and  C_29
REMARK   12  A    between atoms: C_29  and  C_33
REMARK   13  A    between atoms: C_30  and  C_31
REMARK   14  A    between atoms: C_31  and  O_32
REMARK   15  A    between atoms: C_33  and  O_34
REMARK                            x       y       z     vdW  Elec       q    Type
REMARK                         _______ _______ _______ _____ _____    ______ ____
ROOT
ATOM      1  C   UNL     1       1.373   1.637   1.096  0.00  0.00    +0.042 C 
ATOM      2  C   UNL     1       0.453   2.046   2.217  0.00  0.00    -0.036 C 
ATOM      3  C   UNL     1      -0.139   1.104   2.886  0.00  0.00    -0.020 C 
ATOM      4  C   UNL     1      -1.090   1.375   4.009  0.00  0.00    +0.029 C 
ATOM      5  C   UNL     1      -0.861   2.787   4.555  0.00  0.00    +0.032 C 
ATOM      6  C   UNL     1      -0.923   3.770   3.386  0.00  0.00    +0.056 C 
ATOM      7  C   UNL     1       0.291   3.512   2.486  0.00  0.00    +0.202 C 
ATOM      8  C   UNL     1      -1.934   3.096   5.597  0.00  0.00    +0.070 C 
ATOM      9  C   UNL     1      -1.810   2.090   6.745  0.00  0.00    +0.080 C 
ATOM     10  C   UNL     1      -1.986   0.666   6.217  0.00  0.00    +0.188 C 
ATOM     11  C   UNL     1      -0.932   0.369   5.145  0.00  0.00    +0.074 C 
ATOM     12  C   UNL     1      -3.319   2.978   4.957  0.00  0.00    +0.042 C 
ENDROOT
BRANCH  11  13
ATOM     13  C   UNL     1       0.445   0.493   5.743  0.00  0.00    +0.041 C 
ATOM     14  C   UNL     1       0.843   1.652   6.263  0.00  0.00    +0.020 C 
BRANCH  13  15
ATOM     15  C   UNL     1       1.350  -0.665   5.752  0.00  0.00    +0.382 C 
ATOM     16  O   UNL     1       2.424  -0.593   6.316  0.00  0.00    -0.241 OA
ATOM     17  O   UNL     1       0.988  -1.808   5.136  0.00  0.00    -0.241 OA
ENDBRANCH  13  15
ENDBRANCH  11  13
BRANCH   8  18
ATOM     18  O   UNL     1      -1.749   4.422   6.096  0.00  0.00    -0.388 OA
ATOM     19  H   UNL     1      -2.432   4.823   6.859  0.00  0.00    +0.210 HD
ENDBRANCH   8  18
BRANCH   7  20
ATOM     20  O   UNL     1       0.104   4.210   1.226  0.00  0.00    -0.457 OA
BRANCH  20  21
ATOM     21  C   UNL     1       1.209   4.651   0.604  0.00  0.00    +0.305 C 
ATOM     22  O   UNL     1       2.296   4.460   1.095  0.00  0.00    -0.251 OA
ATOM     23  C   UNL     1       1.093   5.385  -0.708  0.00  0.00    +0.136 C 
ENDBRANCH  20  21
ENDBRANCH   7  20
BRANCH  10  24
ATOM     24  O   UNL     1      -1.839  -0.276   7.312  0.00  0.00    -0.457 OA
BRANCH  24  25
ATOM     25  C   UNL     1      -2.956  -0.607   7.989  0.00  0.00    +0.337 C 
ATOM     26  O   UNL     1      -4.025  -0.121   7.673  0.00  0.00    -0.245 OA
BRANCH  25  27
ATOM     27  C   UNL     1      -2.883  -1.555   9.110  0.00  0.00    +0.060 C 
ATOM     28  C   UNL     1      -3.986  -1.881   9.779  0.00  0.00    +0.013 C 
BRANCH  28  29
ATOM     29  C   UNL     1      -3.920  -2.896  10.891  0.00  0.00    +0.183 C 
BRANCH  29  30
ATOM     30  O   UNL     1      -4.691  -2.435  12.003  0.00  0.00    -0.391 OA
ATOM     31  H   UNL     1      -4.762  -3.046  12.914  0.00  0.00    +0.210 HD
ENDBRANCH  29  30
ENDBRANCH  28  29
BRANCH  27  32
ATOM     32  C   UNL     1      -1.558  -2.156   9.502  0.00  0.00    +0.198 C 
BRANCH  32  33
ATOM     33  O   UNL     1      -0.971  -2.797   8.367  0.00  0.00    -0.390 OA
ATOM     34  H   UNL     1       0.005  -3.296   8.461  0.00  0.00    +0.210 HD
ENDBRANCH  32  33
ENDBRANCH  27  32
ENDBRANCH  25  27
ENDBRANCH  24  25
ENDBRANCH  10  24
TORSDOF 12
