REMARK  Name = ZINC16001430
REMARK  5 active torsions:
REMARK  status: ('A' for Active; 'I' for Inactive)
REMARK    1  A    between atoms: C_1  and  C_2
REMARK    2  A    between atoms: C_13  and  C_34
REMARK    3  A    between atoms: C_15  and  C_27
REMARK    4  A    between atoms: C_27  and  C_29
REMARK    5  A    between atoms: C_34  and  C_36
REMARK                            x       y       z     vdW  Elec       q    Type
REMARK                         _______ _______ _______ _____ _____    ______ ____
ROOT
ATOM      1  C   UNL     1       2.317   9.590   6.049  0.00  0.00    +0.044 C 
ATOM      2  C   UNL     1       2.369   8.602   4.911  0.00  0.00    -0.050 A 
ATOM      3  C   UNL     1       1.506   7.519   4.900  0.00  0.00    +0.005 A 
ATOM      4  C   UNL     1       1.538   6.606   3.862  0.00  0.00    +0.024 A 
ATOM      5  C   UNL     1       2.437   6.772   2.827  0.00  0.00    +0.038 A 
ATOM      6  C   UNL     1       3.322   7.873   2.838  0.00  0.00    -0.004 A 
ATOM      7  C   UNL     1       3.277   8.783   3.886  0.00  0.00    +0.013 A 
ATOM      8  C   UNL     1       4.283   8.023   1.720  0.00  0.00    +0.007 C 
ATOM      9  C   UNL     1       3.961   7.453   0.544  0.00  0.00    -0.003 C 
ATOM     10  C   UNL     1       2.655   6.720   0.499  0.00  0.00    +0.117 C 
ATOM     11  N   UNL     1       2.526   5.923   1.750  0.00  0.00    -0.311 N 
ATOM     12  C   UNL     1       1.414   5.007   1.474  0.00  0.00    +0.157 C 
ATOM     13  C   UNL     1       1.677   4.549   0.011  0.00  0.00    +0.110 C 
ATOM     14  C   UNL     1       2.530   5.678  -0.602  0.00  0.00    +0.108 C 
ATOM     15  C   UNL     1       3.850   5.176  -1.077  0.00  0.00    -0.008 A 
ATOM     16  C   UNL     1       4.894   4.563  -0.418  0.00  0.00    +0.006 A 
ATOM     17  C   UNL     1       6.005   4.215  -1.178  0.00  0.00    +0.000 A 
ATOM     18  C   UNL     1       6.059   4.473  -2.533  0.00  0.00    +0.002 A 
ATOM     19  C   UNL     1       5.014   5.090  -3.203  0.00  0.00    +0.023 A 
ATOM     20  C   UNL     1       3.893   5.444  -2.452  0.00  0.00    +0.038 A 
ATOM     21  N   UNL     1       2.723   6.062  -2.859  0.00  0.00    -0.284 N 
ATOM     22  C   UNL     1       1.862   6.240  -1.832  0.00  0.00    +0.231 C 
ATOM     23  O   UNL     1       0.764   6.753  -1.889  0.00  0.00    -0.274 OA
ATOM     24  H   UNL     1       2.543   6.336  -3.772  0.00  0.00    +0.155 HD
ENDROOT
BRANCH  13  25
ATOM     25  C   UNL     1       2.438   3.248  -0.004  0.00  0.00    +0.176 C 
ATOM     26  O   UNL     1       3.087   2.914   0.966  0.00  0.00    -0.291 OA
BRANCH  25  27
ATOM     27  C   UNL     1       2.395   2.418  -1.146  0.00  0.00    +0.055 A 
ATOM     28  C   UNL     1       3.017   1.193  -1.363  0.00  0.00    +0.019 A 
ATOM     29  C   UNL     1       2.805   0.594  -2.577  0.00  0.00    +0.008 A 
ATOM     30  C   UNL     1       2.013   1.212  -3.494  0.00  0.00    +0.046 A 
ATOM     31  S   UNL     1       1.531   2.668  -2.686  0.00  0.00    -0.094 S 
ENDBRANCH  25  27
ENDBRANCH  13  25
BRANCH  12  32
ATOM     32  C   UNL     1       0.095   5.729   1.575  0.00  0.00    +0.184 C 
ATOM     33  O   UNL     1       0.067   6.941   1.599  0.00  0.00    -0.290 OA
BRANCH  32  34
ATOM     34  C   UNL     1      -1.160   4.962   1.645  0.00  0.00    +0.019 A 
ATOM     35  C   UNL     1      -1.132   3.564   1.612  0.00  0.00    +0.011 A 
ATOM     36  C   UNL     1      -2.311   2.853   1.684  0.00  0.00    +0.001 A 
ATOM     37  C   UNL     1      -3.521   3.519   1.777  0.00  0.00    +0.000 A 
ATOM     38  C   UNL     1      -3.557   4.902   1.804  0.00  0.00    +0.001 A 
ATOM     39  C   UNL     1      -2.386   5.628   1.739  0.00  0.00    +0.011 A 
ENDBRANCH  32  34
ENDBRANCH  12  32
TORSDOF 4
