REMARK  Name = ZINC13689847
REMARK  6 active torsions:
REMARK  status: ('A' for Active; 'I' for Inactive)
REMARK    1  A    between atoms: C_1  and  C_2
REMARK    2  A    between atoms: C_7  and  N_8
REMARK    3  A    between atoms: C_13  and  C_38
REMARK    4  A    between atoms: C_38  and  C_39
REMARK    5  A    between atoms: C_39  and  C_40
REMARK    6  A    between atoms: C_39  and  C_41
REMARK                            x       y       z     vdW  Elec       q    Type
REMARK                         _______ _______ _______ _____ _____    ______ ____
ROOT
ATOM      1  N   UNL     1      -0.185  -0.024   2.417  0.00  0.00    -0.210 N 
ATOM      2  C   UNL     1      -1.348   0.141   3.058  0.00  0.00    +0.232 C 
ATOM      3  O   UNL     1      -2.424  -0.267   2.674  0.00  0.00    -0.274 OA
ATOM      4  C   UNL     1      -1.113   0.914   4.335  0.00  0.00    +0.107 C 
ATOM      5  C   UNL     1      -1.781   2.300   4.224  0.00  0.00    +0.068 C 
ATOM      6  N   UNL     1      -0.763   3.164   3.569  0.00  0.00    -0.297 NA
ATOM      7  C   UNL     1       0.516   2.726   4.158  0.00  0.00    +0.118 C 
ATOM      8  C   UNL     1       0.417   1.188   4.312  0.00  0.00    +0.121 C 
ATOM      9  C   UNL     1       0.871   0.514   3.036  0.00  0.00    +0.233 C 
ATOM     10  O   UNL     1       2.014   0.472   2.635  0.00  0.00    -0.274 OA
ATOM     11  C   UNL     1       1.682   3.121   3.300  0.00  0.00    +0.005 A 
ATOM     12  C   UNL     1       2.037   2.839   1.999  0.00  0.00    +0.008 A 
ATOM     13  C   UNL     1       3.204   3.363   1.471  0.00  0.00    +0.000 A 
ATOM     14  C   UNL     1       4.012   4.169   2.252  0.00  0.00    +0.002 A 
ATOM     15  C   UNL     1       3.661   4.453   3.556  0.00  0.00    +0.026 A 
ATOM     16  C   UNL     1       2.488   3.929   4.093  0.00  0.00    +0.057 A 
ATOM     17  N   UNL     1       1.931   4.075   5.375  0.00  0.00    -0.262 N 
ATOM     18  C   UNL     1       0.759   3.388   5.491  0.00  0.00    +0.143 A 
ATOM     19  N   UNL     1       0.054   3.368   6.586  0.00  0.00    -0.231 NA
ATOM     20  C   UNL     1       0.434   4.034   7.702  0.00  0.00    +0.078 A 
ATOM     21  C   UNL     1      -0.328   4.007   8.871  0.00  0.00    +0.028 A 
ATOM     22  C   UNL     1       0.100   4.701   9.981  0.00  0.00    +0.002 A 
ATOM     23  C   UNL     1       1.283   5.428   9.952  0.00  0.00    +0.001 A 
ATOM     24  C   UNL     1       2.053   5.470   8.810  0.00  0.00    +0.015 A 
ATOM     25  C   UNL     1       1.637   4.775   7.676  0.00  0.00    +0.065 A 
ATOM     26  C   UNL     1       2.413   4.782   6.430  0.00  0.00    +0.266 A 
ATOM     27  O   UNL     1       3.458   5.401   6.346  0.00  0.00    -0.267 OA
ATOM     28  H   UNL     1      -0.765   3.030   2.569  0.00  0.00    +0.123 HD
ENDROOT
BRANCH   1  35
ATOM     29  C   UNL     1       0.126  -2.853   2.488  0.00  0.00    +0.045 C 
ATOM     30  C   UNL     1       0.071  -2.091   1.189  0.00  0.00    -0.029 A 
ATOM     31  C   UNL     1       0.167  -2.765  -0.013  0.00  0.00    +0.005 A 
ATOM     32  C   UNL     1       0.117  -2.066  -1.205  0.00  0.00    +0.000 A 
ATOM     33  C   UNL     1      -0.030  -0.691  -1.198  0.00  0.00    +0.002 A 
ATOM     34  C   UNL     1      -0.127  -0.012   0.000  0.00  0.00    +0.024 A 
ATOM     35  C   UNL     1      -0.082  -0.711   1.199  0.00  0.00    +0.047 A 
ENDBRANCH   1  35
BRANCH   5  36
ATOM     36  C   UNL     1      -3.043   2.215   3.363  0.00  0.00    +0.022 C 
BRANCH  36  37
ATOM     37  C   UNL     1      -3.756   3.569   3.368  0.00  0.00    -0.016 C 
ATOM     38  C   UNL     1      -2.871   4.614   2.687  0.00  0.00    +0.007 C 
ATOM     39  C   UNL     1      -5.081   3.450   2.612  0.00  0.00    +0.007 C 
ENDBRANCH  36  37
ENDBRANCH   5  36
TORSDOF 3
