REMARK  Name = ZINC09012059
REMARK  4 active torsions:
REMARK  status: ('A' for Active; 'I' for Inactive)
REMARK    1  A    between atoms: C_4  and  C_7
REMARK    2  A    between atoms: C_10  and  C_28
REMARK    3  A    between atoms: N_17  and  S_18
REMARK    4  A    between atoms: S_18  and  C_21
REMARK                            x       y       z     vdW  Elec       q    Type
REMARK                         _______ _______ _______ _____ _____    ______ ____
ROOT
ATOM      1  C   UNL     1       3.711  -0.707  -0.038  0.00  0.00    +0.152 C 
ATOM      2  C   UNL     1       4.055  -1.093   1.390  0.00  0.00    +0.030 C 
ATOM      3  C   UNL     1       4.233  -2.400   1.653  0.00  0.00    +0.073 C 
ATOM      4  N   UNL     1       4.114  -3.349   0.692  0.00  0.00    -0.213 NA
ATOM      5  C   UNL     1       3.819  -3.101  -0.565  0.00  0.00    +0.239 C 
ATOM      6  N   UNL     1       3.603  -1.811  -0.997  0.00  0.00    -0.207 N 
ATOM      7  N   UNL     1       3.313  -1.888  -2.362  0.00  0.00    -0.231 N 
ATOM      8  C   UNL     1       3.364  -3.216  -2.692  0.00  0.00    +0.220 C 
ATOM      9  N   UNL     1       3.664  -3.912  -1.628  0.00  0.00    -0.181 NA
ATOM     10  N   UNL     1       3.140  -3.731  -3.938  0.00  0.00    -0.186 N 
ATOM     11  H   UNL     1       2.925  -3.139  -4.676  0.00  0.00    +0.177 HD
ATOM     12  H   UNL     1       3.115  -1.148  -2.957  0.00  0.00    +0.173 HD
ENDROOT
BRANCH   3  13
ATOM     13  C   UNL     1       4.571  -2.816   3.037  0.00  0.00    +0.000 A 
ATOM     14  C   UNL     1       4.695  -1.860   4.044  0.00  0.00    +0.011 A 
ATOM     15  C   UNL     1       5.009  -2.252   5.329  0.00  0.00    +0.020 A 
ATOM     16  C   UNL     1       5.202  -3.592   5.619  0.00  0.00    +0.041 A 
ATOM     17  C   UNL     1       5.080  -4.545   4.623  0.00  0.00    +0.020 A 
ATOM     18  C   UNL     1       4.761  -4.164   3.336  0.00  0.00    +0.011 A 
ATOM     19 CL   UNL     1       5.597  -4.078   7.238  0.00  0.00    -0.084 Cl
ENDBRANCH   3  13
BRANCH   1  23
ATOM     20  C   UNL     1      -0.017   1.378   0.010  0.00  0.00    +0.000 A 
ATOM     21  C   UNL     1       1.171   2.086   0.002  0.00  0.00    +0.000 A 
ATOM     22  C   UNL     1       2.377   1.411  -0.013  0.00  0.00    +0.006 A 
ATOM     23  C   UNL     1       2.396   0.029  -0.020  0.00  0.00    -0.021 A 
ATOM     24  C   UNL     1       1.208  -0.679  -0.012  0.00  0.00    +0.006 A 
ATOM     25  C   UNL     1       0.002  -0.004   0.002  0.00  0.00    +0.000 A 
ENDBRANCH   1  23
BRANCH  10  26
ATOM     26  S   UNL     1       3.236  -5.365  -4.187  0.00  0.00    +0.074 S 
ATOM     27  O   UNL     1       2.930  -5.586  -5.557  0.00  0.00    -0.150 OA
ATOM     28  O   UNL     1       4.457  -5.794  -3.601  0.00  0.00    -0.150 OA
BRANCH  26  29
ATOM     29  C   UNL     1       1.940  -6.112  -3.256  0.00  0.00    +0.109 A 
ATOM     30  C   UNL     1       2.164  -6.499  -1.948  0.00  0.00    +0.030 A 
ATOM     31  C   UNL     1       1.148  -7.085  -1.216  0.00  0.00    +0.022 A 
ATOM     32  C   UNL     1      -0.094  -7.283  -1.794  0.00  0.00    +0.041 A 
ATOM     33  C   UNL     1      -0.317  -6.894  -3.102  0.00  0.00    +0.022 A 
ATOM     34  C   UNL     1       0.698  -6.304  -3.831  0.00  0.00    +0.030 A 
ATOM     35 CL   UNL     1      -1.370  -8.019  -0.876  0.00  0.00    -0.084 Cl
ENDBRANCH  26  29
ENDBRANCH  10  26
TORSDOF 4
