REMARK  Name = ZINC09236453
REMARK  5 active torsions:
REMARK  status: ('A' for Active; 'I' for Inactive)
REMARK    1  A    between atoms: C_1  and  C_2
REMARK    2  A    between atoms: C_8  and  C_26
REMARK    3  A    between atoms: C_10  and  C_13
REMARK    4  A    between atoms: N_15  and  C_16
REMARK    5  A    between atoms: C_21  and  C_22
REMARK                            x       y       z     vdW  Elec       q    Type
REMARK                         _______ _______ _______ _____ _____    ______ ____
ROOT
ATOM      1  C   UNL     1      -1.147  -0.924   0.033  0.00  0.00    +0.090 C 
ATOM      2  C   UNL     1       0.048  -0.006   0.015  0.00  0.00    +0.148 A 
ATOM      3  N   UNL     1       1.301  -0.369  -0.007  0.00  0.00    -0.132 NA
ATOM      4  N   UNL     1       2.063   0.670  -0.013  0.00  0.00    -0.121 NA
ATOM      5  C   UNL     1       1.329   1.747   0.009  0.00  0.00    +0.209 A 
ATOM      6  N   UNL     1       0.020   1.359   0.019  0.00  0.00    -0.225 N 
ATOM      7  N   UNL     1      -1.073   2.166   0.023  0.00  0.00    -0.272 N 
ATOM      8  C   UNL     1      -0.806   3.515   0.523  0.00  0.00    +0.140 C 
ATOM      9  C   UNL     1       0.260   4.205  -0.337  0.00  0.00    +0.166 C 
ATOM     10  S   UNL     1       1.862   3.430   0.032  0.00  0.00    -0.069 S 
ATOM     11  H   UNL     1      -1.502   2.197  -0.890  0.00  0.00    +0.167 HD
ENDROOT
BRANCH   8  12
ATOM     12  C   UNL     1      -2.079   4.322   0.483  0.00  0.00    -0.024 A 
ATOM     13  C   UNL     1      -2.928   4.219  -0.603  0.00  0.00    +0.005 A 
ATOM     14  C   UNL     1      -4.097   4.956  -0.638  0.00  0.00    +0.000 A 
ATOM     15  C   UNL     1      -4.413   5.802   0.408  0.00  0.00    +0.000 A 
ATOM     16  C   UNL     1      -3.561   5.908   1.492  0.00  0.00    +0.000 A 
ATOM     17  C   UNL     1      -2.394   5.168   1.529  0.00  0.00    +0.005 A 
ENDBRANCH   8  12
BRANCH   9  18
ATOM     18  C   UNL     1       0.314   5.674  -0.001  0.00  0.00    +0.233 C 
ATOM     19  O   UNL     1       0.097   6.045   1.133  0.00  0.00    -0.274 OA
ATOM     20  N   UNL     1       0.603   6.574  -0.961  0.00  0.00    -0.284 N 
ATOM     21  H   UNL     1       0.841   6.274  -1.852  0.00  0.00    +0.155 HD
BRANCH  20  22
ATOM     22  C   UNL     1       0.561   7.943  -0.672  0.00  0.00    +0.045 A 
ATOM     23  C   UNL     1       0.938   8.401   0.584  0.00  0.00    +0.024 A 
ATOM     24  C   UNL     1       0.895   9.752   0.866  0.00  0.00    +0.002 A 
ATOM     25  C   UNL     1       0.478  10.649  -0.101  0.00  0.00    +0.001 A 
ATOM     26  C   UNL     1       0.103  10.196  -1.352  0.00  0.00    +0.014 A 
ATOM     27  C   UNL     1       0.148   8.846  -1.642  0.00  0.00    +0.076 A 
BRANCH  27  28
ATOM     28  C   UNL     1      -0.255   8.354  -3.008  0.00  0.00    +0.419 C 
ATOM     29  F   UNL     1      -0.629   9.442  -3.804  0.00  0.00    -0.166 F 
ATOM     30  F   UNL     1       0.824   7.691  -3.602  0.00  0.00    -0.166 F 
ATOM     31  F   UNL     1      -1.334   7.473  -2.887  0.00  0.00    -0.166 F 
ENDBRANCH  27  28
ENDBRANCH  20  22
ENDBRANCH   9  18
TORSDOF 4
