REMARK  Name = ZINC63491765
REMARK  11 active torsions:
REMARK  status: ('A' for Active; 'I' for Inactive)
REMARK    1  A    between atoms: C_1  and  C_2
REMARK    2  A    between atoms: C_2  and  O_3
REMARK    3  A    between atoms: O_3  and  C_4
REMARK    4  A    between atoms: C_8  and  C_13
REMARK    5  A    between atoms: C_9  and  O_10
REMARK    6  A    between atoms: O_10  and  C_11
REMARK    7  A    between atoms: C_11  and  C_12
REMARK    8  A    between atoms: C_13  and  C_14
REMARK    9  A    between atoms: C_29  and  C_31
REMARK   10  A    between atoms: C_34  and  S_37
REMARK   11  A    between atoms: S_37  and  C_38
REMARK                            x       y       z     vdW  Elec       q    Type
REMARK                         _______ _______ _______ _____ _____    ______ ____
ROOT
ATOM      1  C   UNL     1       4.230  -3.075  -4.236  0.00  0.00    +0.221 C 
ATOM      2  O   UNL     1       4.588  -2.792  -3.112  0.00  0.00    -0.275 OA
ATOM      3  N   UNL     1       4.832  -4.081  -4.902  0.00  0.00    -0.292 N 
ATOM      4  C   UNL     1       4.327  -4.483  -6.218  0.00  0.00    +0.113 C 
ATOM      5  C   UNL     1       3.948  -5.975  -6.188  0.00  0.00    +0.052 C 
ATOM      6  C   UNL     1       5.082  -6.695  -5.500  0.00  0.00    -0.035 C 
ATOM      7  C   UNL     1       5.800  -7.751  -5.862  0.00  0.00    -0.001 A 
ATOM      8  C   UNL     1       5.684  -8.668  -7.007  0.00  0.00    +0.010 A 
ATOM      9  C   UNL     1       6.619  -9.652  -7.084  0.00  0.00    +0.001 A 
ATOM     10  C   UNL     1       7.645  -9.813  -6.148  0.00  0.00    +0.002 A 
ATOM     11  C   UNL     1       7.822  -9.022  -5.060  0.00  0.00    +0.026 A 
ATOM     12  C   UNL     1       6.896  -7.956  -4.866  0.00  0.00    +0.043 A 
ATOM     13  N   UNL     1       6.815  -7.074  -3.914  0.00  0.00    -0.375 N 
ATOM     14  C   UNL     1       5.633  -6.245  -4.152  0.00  0.00    +0.131 C 
ATOM     15  C   UNL     1       5.992  -4.759  -4.302  0.00  0.00    +0.133 C 
ATOM     16  H   UNL     1       7.434  -6.981  -3.173  0.00  0.00    +0.160 HD
ENDROOT
BRANCH  15  17
ATOM     17  C   UNL     1       6.289  -4.163  -2.950  0.00  0.00    -0.025 A 
ATOM     18  C   UNL     1       5.571  -4.575  -1.842  0.00  0.00    +0.006 A 
ATOM     19  C   UNL     1       5.840  -4.031  -0.602  0.00  0.00    +0.015 A 
ATOM     20  C   UNL     1       6.834  -3.069  -0.468  0.00  0.00    +0.008 A 
ATOM     21  C   UNL     1       7.554  -2.658  -1.583  0.00  0.00    +0.015 A 
ATOM     22  C   UNL     1       7.283  -3.210  -2.820  0.00  0.00    +0.006 A 
BRANCH  20  23
ATOM     23  S   UNL     1       7.181  -2.372   1.113  0.00  0.00    -0.129 S 
ATOM     24  C   UNL     1       8.521  -1.194   0.789  0.00  0.00    +0.090 C 
ENDBRANCH  20  23
ENDBRANCH  15  17
BRANCH   1  25
ATOM     25  C   UNL     1       3.113  -2.302  -4.888  0.00  0.00    +0.135 C 
BRANCH  25  30
ATOM     26  C   UNL     1       2.793   0.966  -3.004  0.00  0.00    +0.162 A 
ATOM     27  C   UNL     1       1.699   0.706  -2.194  0.00  0.00    +0.049 A 
ATOM     28  C   UNL     1       1.067  -0.522  -2.259  0.00  0.00    +0.004 A 
ATOM     29  C   UNL     1       1.525  -1.493  -3.130  0.00  0.00    +0.008 A 
ATOM     30  C   UNL     1       2.616  -1.241  -3.940  0.00  0.00    +0.007 A 
ATOM     31  C   UNL     1       3.250  -0.010  -3.885  0.00  0.00    +0.165 A 
BRANCH  26  32
ATOM     32  O   UNL     1       3.415   2.173  -2.942  0.00  0.00    -0.489 OA
BRANCH  32  34
ATOM     33  C   UNL     1       3.714   4.414  -2.086  0.00  0.00    +0.048 C 
ATOM     34  C   UNL     1       2.891   3.126  -2.014  0.00  0.00    +0.226 C 
ENDBRANCH  32  34
ENDBRANCH  26  32
BRANCH  31  35
ATOM     35  O   UNL     1       4.320   0.243  -4.685  0.00  0.00    -0.488 OA
BRANCH  35  36
ATOM     36  C   UNL     1       5.611  -0.085  -4.166  0.00  0.00    +0.226 C 
ATOM     37  C   UNL     1       6.681   0.267  -5.201  0.00  0.00    +0.048 C 
ENDBRANCH  35  36
ENDBRANCH  31  35
ENDBRANCH  25  30
ENDBRANCH   1  25
TORSDOF 8
