REMARK  Name = ZINC02247724
REMARK  4 active torsions:
REMARK  status: ('A' for Active; 'I' for Inactive)
REMARK    1  A    between atoms: C_1  and  S_2
REMARK    2  A    between atoms: S_2  and  C_3
REMARK    3  A    between atoms: C_6  and  C_29
REMARK    4  A    between atoms: C_17  and  C_19
REMARK                            x       y       z     vdW  Elec       q    Type
REMARK                         _______ _______ _______ _____ _____    ______ ____
ROOT
ATOM      1  C   UNL     1      -2.070   0.217  -0.059  0.00  0.00    +0.210 A 
ATOM      2  N   UNL     1      -2.372  -1.063  -0.054  0.00  0.00    -0.141 NA
ATOM      3  N   UNL     1      -3.763  -1.148  -0.017  0.00  0.00    -0.220 N 
ATOM      4  C   UNL     1      -4.624  -2.325   0.011  0.00  0.00    +0.172 C 
ATOM      5  C   UNL     1      -6.052  -1.932  -0.276  0.00  0.00    +0.025 C 
ATOM      6  C   UNL     1      -6.461  -0.662  -0.251  0.00  0.00    +0.050 C 
ATOM      7  C   UNL     1      -7.888  -0.374  -0.526  0.00  0.00    +0.038 A 
ATOM      8  C   UNL     1      -8.323   0.907  -0.843  0.00  0.00    +0.013 A 
ATOM      9  C   UNL     1      -9.664   1.129  -1.092  0.00  0.00    +0.001 A 
ATOM     10  C   UNL     1     -10.569   0.085  -1.026  0.00  0.00    +0.004 A 
ATOM     11  C   UNL     1     -10.145  -1.194  -0.711  0.00  0.00    +0.046 A 
ATOM     12  C   UNL     1      -8.806  -1.431  -0.460  0.00  0.00    +0.131 A 
ATOM     13  O   UNL     1      -8.350  -2.671  -0.150  0.00  0.00    -0.479 OA
ATOM     14  C   UNL     1      -7.046  -3.019  -0.615  0.00  0.00    +0.235 C 
ATOM     15  N   UNL     1      -5.587   0.398   0.019  0.00  0.00    -0.283 N 
ATOM     16  C   UNL     1      -4.228   0.125  -0.007  0.00  0.00    +0.220 A 
ATOM     17  N   UNL     1      -3.204   0.934  -0.023  0.00  0.00    -0.187 NA
ATOM     18  H   UNL     1      -5.919   1.288   0.215  0.00  0.00    +0.155 HD
ENDROOT
BRANCH  14  19
ATOM     19  C   UNL     1      -7.086  -3.207  -2.110  0.00  0.00    +0.015 A 
ATOM     20  C   UNL     1      -8.008  -2.512  -2.870  0.00  0.00    +0.009 A 
ATOM     21  C   UNL     1      -8.044  -2.684  -4.241  0.00  0.00    +0.000 A 
ATOM     22  C   UNL     1      -7.159  -3.552  -4.853  0.00  0.00    +0.001 A 
ATOM     23  C   UNL     1      -6.237  -4.248  -4.094  0.00  0.00    +0.020 A 
ATOM     24  C   UNL     1      -6.196  -4.071  -2.722  0.00  0.00    +0.048 A 
ATOM     25 CL   UNL     1      -5.034  -4.940  -1.769  0.00  0.00    -0.083 Cl
ENDBRANCH  14  19
BRANCH   4  26
ATOM     26  C   UNL     1      -4.550  -2.966   1.373  0.00  0.00    -0.019 A 
ATOM     27  C   UNL     1      -4.928  -2.252   2.494  0.00  0.00    +0.009 A 
ATOM     28  C   UNL     1      -4.861  -2.839   3.743  0.00  0.00    +0.039 A 
ATOM     29  C   UNL     1      -4.414  -4.143   3.871  0.00  0.00    +0.123 A 
ATOM     30  C   UNL     1      -4.035  -4.858   2.748  0.00  0.00    +0.039 A 
ATOM     31  C   UNL     1      -4.108  -4.270   1.499  0.00  0.00    +0.009 A 
ATOM     32  F   UNL     1      -4.347  -4.718   5.092  0.00  0.00    -0.205 F 
ENDBRANCH   4  26
BRANCH   1  34
ATOM     33  C   UNL     1      -0.700   2.680  -0.080  0.00  0.00    +0.093 C 
ATOM     34  S   UNL     1      -0.440   0.885  -0.098  0.00  0.00    -0.088 S 
ENDBRANCH   1  34
TORSDOF 3
