REMARK  Name = ZINC08837858
REMARK  11 active torsions:
REMARK  status: ('A' for Active; 'I' for Inactive)
REMARK    1  A    between atoms: C_1  and  C_2
REMARK    2  A    between atoms: C_2  and  C_3
REMARK    3  A    between atoms: C_3  and  C_4
REMARK    4  A    between atoms: C_4  and  C_5
REMARK    5  A    between atoms: C_5  and  C_6
REMARK    6  A    between atoms: C_18  and  C_35
REMARK    7  A    between atoms: C_18  and  C_36
REMARK    8  A    between atoms: C_20  and  O_34
REMARK    9  A    between atoms: C_24  and  C_26
REMARK   10  A    between atoms: C_31  and  O_32
REMARK   11  A    between atoms: O_32  and  C_33
REMARK                            x       y       z     vdW  Elec       q    Type
REMARK                         _______ _______ _______ _____ _____    ______ ____
ROOT
ATOM      1  C   UNL     1      -1.039   5.628  -0.663  0.00  0.00    +0.220 C 
ATOM      2  O   UNL     1      -1.702   4.894  -1.365  0.00  0.00    -0.275 OA
ATOM      3  N   UNL     1       0.027   5.142   0.003  0.00  0.00    -0.261 N 
ATOM      4  C   UNL     1       0.253   3.778  -0.052  0.00  0.00    +0.062 A 
ATOM      5  C   UNL     1      -0.843   2.925  -0.117  0.00  0.00    +0.025 A 
ATOM      6  C   UNL     1      -0.669   1.557  -0.158  0.00  0.00    +0.002 A 
ATOM      7  C   UNL     1       0.609   1.028  -0.123  0.00  0.00    +0.002 A 
ATOM      8  C   UNL     1       1.702   1.857  -0.065  0.00  0.00    +0.029 A 
ATOM      9  C   UNL     1       1.552   3.257  -0.034  0.00  0.00    +0.085 A 
ATOM     10  N   UNL     1       2.667   3.992  -0.004  0.00  0.00    -0.254 NA
ATOM     11  C   UNL     1       3.065   5.190  -0.016  0.00  0.00    +0.028 C 
ATOM     12  C   UNL     1       4.572   5.368  -0.108  0.00  0.00    +0.057 C 
ATOM     13  C   UNL     1       5.022   6.596   0.674  0.00  0.00    -0.027 C 
ATOM     14  C   UNL     1       4.229   7.807   0.173  0.00  0.00    +0.038 C 
ATOM     15  C   UNL     1       2.773   7.634   0.586  0.00  0.00    +0.126 C 
ATOM     16  C   UNL     1       2.157   6.374   0.004  0.00  0.00    +0.087 C 
ATOM     17  C   UNL     1       0.852   6.079   0.723  0.00  0.00    +0.126 C 
ATOM     18  C   UNL     1       4.750   6.384   2.165  0.00  0.00    +0.011 C 
ATOM     19  C   UNL     1       6.518   6.827   0.452  0.00  0.00    +0.011 C 
ENDROOT
BRANCH  17  20
ATOM     20  C   UNL     1       1.162   5.511   2.084  0.00  0.00    +0.016 A 
ATOM     21  C   UNL     1       1.087   4.148   2.297  0.00  0.00    +0.009 A 
ATOM     22  C   UNL     1       1.377   3.626   3.544  0.00  0.00    +0.001 A 
ATOM     23  C   UNL     1       1.732   4.466   4.583  0.00  0.00    +0.004 A 
ATOM     24  C   UNL     1       1.803   5.830   4.376  0.00  0.00    +0.046 A 
ATOM     25  C   UNL     1       1.518   6.356   3.124  0.00  0.00    +0.125 A 
BRANCH  25  26
ATOM     26  O   UNL     1       1.588   7.698   2.918  0.00  0.00    -0.495 OA
ATOM     27  C   UNL     1       1.961   8.508   4.035  0.00  0.00    +0.277 C 
ENDBRANCH  25  26
ENDBRANCH  17  20
BRANCH  15  28
ATOM     28  O   UNL     1       2.026   8.766   0.136  0.00  0.00    -0.391 OA
ATOM     29  H   UNL     1       2.358   9.613   0.465  0.00  0.00    +0.210 HD
ENDBRANCH  15  28
BRANCH   1  30
ATOM     30  C   UNL     1      -1.408   7.084  -0.536  0.00  0.00    +0.096 C 
BRANCH  30  31
ATOM     31  C   UNL     1      -2.715   7.347  -1.286  0.00  0.00    +0.009 C 
BRANCH  31  32
ATOM     32  C   UNL     1      -3.089   8.825  -1.157  0.00  0.00    +0.000 C 
BRANCH  32  34
ATOM     33  C   UNL     1      -4.770  10.566  -1.778  0.00  0.00    +0.004 C 
ATOM     34  C   UNL     1      -4.396   9.088  -1.907  0.00  0.00    -0.003 C 
ENDBRANCH  32  34
ENDBRANCH  31  32
ENDBRANCH  30  31
ENDBRANCH   1  30
TORSDOF 7
