REMARK  Name = ZINC23470050
REMARK  9 active torsions:
REMARK  status: ('A' for Active; 'I' for Inactive)
REMARK    1  A    between atoms: C_1  and  C_2
REMARK    2  A    between atoms: C_5  and  S_13
REMARK    3  A    between atoms: N_6  and  C_7
REMARK    4  A    between atoms: S_13  and  C_14
REMARK    5  A    between atoms: C_14  and  C_16
REMARK    6  A    between atoms: C_14  and  C_17
REMARK    7  A    between atoms: N_19  and  C_20
REMARK    8  A    between atoms: C_20  and  C_22
REMARK    9  A    between atoms: C_20  and  C_23
REMARK                            x       y       z     vdW  Elec       q    Type
REMARK                         _______ _______ _______ _____ _____    ______ ____
ROOT
ATOM      1  C   UNL     1       0.073  -4.897   0.313  0.00  0.00    +0.137 C 
ATOM      2  C   UNL     1       1.377  -4.830  -0.486  0.00  0.00    +0.029 C 
ENDROOT
BRANCH   1   3
ATOM      3  C   UNL     1      -0.029  -6.237   0.996  0.00  0.00    +0.227 C 
ATOM      4  O   UNL     1       0.257  -6.342   2.170  0.00  0.00    -0.275 OA
ATOM      5  N   UNL     1      -0.437  -7.318   0.302  0.00  0.00    -0.308 N 
ATOM      6  H   UNL     1      -0.666  -7.234  -0.637  0.00  0.00    +0.149 HD
BRANCH   5   7
ATOM      7  C   UNL     1      -0.536  -8.620   0.967  0.00  0.00    +0.102 C 
ATOM      8  C   UNL     1       0.831  -9.307   0.948  0.00  0.00    +0.033 C 
BRANCH   7   9
ATOM      9  C   UNL     1      -1.540  -9.479   0.241  0.00  0.00    -0.009 A 
ATOM     10  C   UNL     1      -1.806  -9.251  -1.096  0.00  0.00    +0.008 A 
ATOM     11  C   UNL     1      -2.726 -10.039  -1.762  0.00  0.00    +0.020 A 
ATOM     12  C   UNL     1      -3.382 -11.055  -1.091  0.00  0.00    +0.042 A 
ATOM     13  C   UNL     1      -3.116 -11.283   0.248  0.00  0.00    +0.040 A 
ATOM     14  C   UNL     1      -2.191 -10.498   0.912  0.00  0.00    +0.047 A 
ATOM     15 CL   UNL     1      -1.853 -10.787   2.590  0.00  0.00    -0.083 Cl
ATOM     16 CL   UNL     1      -4.538 -12.043  -1.927  0.00  0.00    -0.083 Cl
ENDBRANCH   7   9
ENDBRANCH   5   7
ENDBRANCH   1   3
BRANCH   1  17
ATOM     17  S   UNL     1       0.059  -3.580   1.560  0.00  0.00    -0.074 S 
BRANCH  17  22
ATOM     18  C   UNL     1      -0.018   1.503   0.010  0.00  0.00    +0.088 C 
ATOM     19  C   UNL     1       0.002  -0.004   0.002  0.00  0.00    +0.131 A 
ATOM     20  N   UNL     1       0.008  -0.770  -1.052  0.00  0.00    -0.134 NA
ATOM     21  N   UNL     1       0.027  -2.006  -0.699  0.00  0.00    -0.122 NA
ATOM     22  C   UNL     1       0.034  -2.095   0.611  0.00  0.00    +0.193 A 
ATOM     23  N   UNL     1       0.024  -0.820   1.099  0.00  0.00    -0.303 N 
BRANCH  23  24
ATOM     24  C   UNL     1       0.031  -0.411   2.506  0.00  0.00    +0.091 C 
ATOM     25  C   UNL     1       1.294  -0.944   3.186  0.00  0.00    +0.025 C 
ATOM     26  C   UNL     1       1.301  -0.517   4.655  0.00  0.00    +0.002 C 
ATOM     27  C   UNL     1       0.066  -1.085   5.357  0.00  0.00    +0.000 C 
ATOM     28  C   UNL     1      -1.197  -0.552   4.677  0.00  0.00    +0.002 C 
ATOM     29  C   UNL     1      -1.204  -0.979   3.208  0.00  0.00    +0.025 C 
ENDBRANCH  23  24
ENDBRANCH  17  22
ENDBRANCH   1  17
TORSDOF 6
