REMARK  Name = ZINC63557688
REMARK  12 active torsions:
REMARK  status: ('A' for Active; 'I' for Inactive)
REMARK    1  A    between atoms: C_1  and  C_2
REMARK    2  A    between atoms: C_2  and  C_3
REMARK    3  A    between atoms: C_2  and  C_4
REMARK    4  A    between atoms: C_2  and  C_5
REMARK    5  A    between atoms: C_5  and  C_6
REMARK    6  A    between atoms: C_10  and  N_13
REMARK    7  A    between atoms: C_14  and  C_16
REMARK    8  A    between atoms: N_21  and  C_23
REMARK    9  A    between atoms: C_23  and  C_24
REMARK   10  A    between atoms: C_24  and  C_25
REMARK   11  A    between atoms: C_28  and  O_34
REMARK   12  A    between atoms: O_34  and  C_35
REMARK                            x       y       z     vdW  Elec       q    Type
REMARK                         _______ _______ _______ _____ _____    ______ ____
ROOT
ATOM      1  C   UNL     1       6.964   3.632  -2.396  0.00  0.00    +0.101 C 
ATOM      2  C   UNL     1       6.614   5.008  -1.783  0.00  0.00    +0.110 C 
ATOM      3  C   UNL     1       7.792   5.885  -2.143  0.00  0.00    +0.216 C 
ATOM      4  O   UNL     1       8.049   6.951  -1.624  0.00  0.00    -0.276 OA
ATOM      5  N   UNL     1       8.513   5.312  -3.122  0.00  0.00    -0.300 N 
ATOM      6  C   UNL     1       7.929   4.030  -3.535  0.00  0.00    +0.121 C 
ENDROOT
BRANCH   1   8
ATOM      7  N   UNL     1       4.740   2.588  -2.110  0.00  0.00    -0.290 N 
ATOM      8  C   UNL     1       5.734   2.956  -2.943  0.00  0.00    +0.220 C 
ATOM      9  O   UNL     1       5.637   2.743  -4.133  0.00  0.00    -0.275 OA
ATOM     10  H   UNL     1       4.817   2.758  -1.159  0.00  0.00    +0.151 HD
BRANCH   7  14
ATOM     11  C   UNL     1       2.074  -0.074  -1.393  0.00  0.00    +0.130 C 
ATOM     12  N   UNL     1       2.647  -0.337  -2.751  0.00  0.00    -0.241 NA
ATOM     13  N   UNL     1       3.818   0.503  -2.969  0.00  0.00    -0.227 NA
ATOM     14  C   UNL     1       3.544   1.931  -2.642  0.00  0.00    +0.216 C 
ATOM     15  S   UNL     1       2.247   1.763  -1.342  0.00  0.00    -0.102 S 
ATOM     16  H   UNL     1       2.876  -1.313  -2.863  0.00  0.00    +0.142 HD
ATOM     17  H   UNL     1       4.160   0.408  -3.913  0.00  0.00    +0.143 HD
BRANCH  11  18
ATOM     18  C   UNL     1       0.606  -0.499  -1.314  0.00  0.00    +0.037 C 
BRANCH  18  20
ATOM     19  C   UNL     1       0.011   1.386   0.215  0.00  0.00    +0.010 C 
ATOM     20  C   UNL     1       0.044  -0.136   0.062  0.00  0.00    -0.035 C 
ATOM     21  C   UNL     1       0.933  -0.739   1.151  0.00  0.00    +0.010 C 
ATOM     22  C   UNL     1      -1.375  -0.693   0.196  0.00  0.00    +0.010 C 
ENDBRANCH  18  20
ENDBRANCH  11  18
ENDBRANCH   7  14
ENDBRANCH   1   8
BRANCH   5  23
ATOM     23  C   UNL     1       9.727   5.892  -3.702  0.00  0.00    +0.112 C 
BRANCH  23  24
ATOM     24  C   UNL     1      10.948   5.410  -2.916  0.00  0.00    +0.052 C 
BRANCH  24  25
ATOM     25  C   UNL     1      12.197   6.006  -3.513  0.00  0.00    -0.040 C 
ATOM     26  C   UNL     1      12.836   7.127  -3.108  0.00  0.00    +0.002 A 
ATOM     27  C   UNL     1      12.572   8.091  -2.034  0.00  0.00    +0.055 A 
ATOM     28  C   UNL     1      13.406   9.145  -1.863  0.00  0.00    +0.121 A 
ATOM     29  C   UNL     1      14.528   9.354  -2.683  0.00  0.00    +0.047 A 
ATOM     30  C   UNL     1      14.853   8.524  -3.697  0.00  0.00    +0.029 A 
ATOM     31  C   UNL     1      14.019   7.349  -3.971  0.00  0.00    +0.043 A 
ATOM     32  N   UNL     1      14.107   6.404  -4.873  0.00  0.00    -0.380 N 
ATOM     33  C   UNL     1      12.993   5.469  -4.681  0.00  0.00    +0.144 C 
ATOM     34  H   UNL     1      14.796   6.331  -5.552  0.00  0.00    +0.160 HD
BRANCH  28  35
ATOM     35  O   UNL     1      13.148  10.030  -0.864  0.00  0.00    -0.495 OA
ATOM     36  C   UNL     1      14.053  11.127  -0.720  0.00  0.00    +0.277 C 
ENDBRANCH  28  35
ENDBRANCH  24  25
ENDBRANCH  23  24
ENDBRANCH   5  23
TORSDOF 8
