REMARK  Name = ZINC59316548
REMARK  10 active torsions:
REMARK  status: ('A' for Active; 'I' for Inactive)
REMARK    1  A    between atoms: C_1  and  C_2
REMARK    2  A    between atoms: C_5  and  C_8
REMARK    3  A    between atoms: C_8  and  C_32
REMARK    4  A    between atoms: N_11  and  C_15
REMARK    5  A    between atoms: C_15  and  C_16
REMARK    6  A    between atoms: N_18  and  C_19
REMARK    7  A    between atoms: C_24  and  C_25
REMARK    8  A    between atoms: N_27  and  C_28
REMARK    9  A    between atoms: C_28  and  C_29
REMARK   10  A    between atoms: C_28  and  C_30
REMARK                            x       y       z     vdW  Elec       q    Type
REMARK                         _______ _______ _______ _____ _____    ______ ____
ROOT
ATOM      1  C   UNL     1       2.497  -7.599   1.642  0.00  0.00    +0.235 C 
ATOM      2  O   UNL     1       1.429  -7.998   1.229  0.00  0.00    -0.274 OA
ATOM      3  N   UNL     1       3.300  -8.423   2.344  0.00  0.00    -0.283 N 
ATOM      4  H   UNL     1       4.187  -8.130   2.605  0.00  0.00    +0.155 HD
ENDROOT
BRANCH   3   5
ATOM      5  C   UNL     1       2.855  -9.696   2.694  0.00  0.00    +0.047 A 
ATOM      6  C   UNL     1       1.496  -9.952   2.811  0.00  0.00    +0.044 A 
ATOM      7  C   UNL     1       1.057 -11.215   3.158  0.00  0.00    +0.043 A 
ATOM      8  C   UNL     1       1.968 -12.235   3.393  0.00  0.00    +0.021 A 
ATOM      9  C   UNL     1       3.321 -11.997   3.282  0.00  0.00    +0.016 A 
ATOM     10  C   UNL     1       3.779 -10.726   2.925  0.00  0.00    +0.058 A 
ATOM     11 CL   UNL     1      -0.644 -11.529   3.303  0.00  0.00    -0.083 Cl
BRANCH  10  12
ATOM     12  C   UNL     1       5.225 -10.468   2.799  0.00  0.00    +0.246 C 
ATOM     13  O   UNL     1       5.624  -9.340   2.583  0.00  0.00    -0.270 OA
ATOM     14  N   UNL     1       6.104 -11.482   2.923  0.00  0.00    -0.309 N 
ATOM     15  H   UNL     1       5.785 -12.382   3.096  0.00  0.00    +0.149 HD
BRANCH  14  16
ATOM     16  C   UNL     1       7.541 -11.225   2.798  0.00  0.00    +0.067 C 
ATOM     17  C   UNL     1       8.319 -12.301   3.558  0.00  0.00    +0.027 C 
ATOM     18  C   UNL     1       7.937 -11.257   1.320  0.00  0.00    +0.027 C 
ENDBRANCH  14  16
ENDBRANCH  10  12
ENDBRANCH   3   5
BRANCH   1  19
ATOM     19  C   UNL     1       2.927  -6.180   1.370  0.00  0.00    +0.214 C 
BRANCH  19  23
ATOM     20  C   UNL     1       0.057  -4.282  -0.028  0.00  0.00    +0.135 C 
ATOM     21  C   UNL     1       0.864  -4.812   1.140  0.00  0.00    +0.251 C 
ATOM     22  O   UNL     1       0.634  -4.655   2.320  0.00  0.00    -0.272 OA
ATOM     23  N   UNL     1       1.889  -5.495   0.595  0.00  0.00    -0.215 N 
ATOM     24  C   UNL     1       1.843  -5.471  -0.742  0.00  0.00    +0.310 C 
ATOM     25  O   UNL     1       2.661  -6.017  -1.457  0.00  0.00    -0.252 OA
ATOM     26  N   UNL     1       0.791  -4.774  -1.207  0.00  0.00    -0.281 N 
ATOM     27  C   UNL     1      -1.365  -4.845  -0.005  0.00  0.00    +0.047 C 
ATOM     28  H   UNL     1       0.560  -4.625  -2.137  0.00  0.00    +0.152 HD
BRANCH  20  33
ATOM     29  C   UNL     1      -0.054   1.496   0.032  0.00  0.00    +0.044 C 
ATOM     30  C   UNL     1      -0.025  -0.011   0.016  0.00  0.00    -0.050 A 
ATOM     31  C   UNL     1      -0.006  -0.689  -1.188  0.00  0.00    +0.004 A 
ATOM     32  C   UNL     1       0.021  -2.071  -1.202  0.00  0.00    +0.006 A 
ATOM     33  C   UNL     1       0.029  -2.775  -0.013  0.00  0.00    -0.015 A 
ATOM     34  C   UNL     1       0.011  -2.096   1.192  0.00  0.00    +0.006 A 
ATOM     35  C   UNL     1      -0.011  -0.714   1.206  0.00  0.00    +0.004 A 
ENDBRANCH  20  33
ENDBRANCH  19  23
ENDBRANCH   1  19
TORSDOF 6
