REMARK  Name = ZINC20564594
REMARK  5 active torsions:
REMARK  status: ('A' for Active; 'I' for Inactive)
REMARK    1  A    between atoms: C_1  and  C_2
REMARK    2  A    between atoms: C_4  and  C_35
REMARK    3  A    between atoms: N_5  and  C_28
REMARK    4  A    between atoms: C_15  and  C_18
REMARK    5  A    between atoms: N_20  and  C_21
REMARK                            x       y       z     vdW  Elec       q    Type
REMARK                         _______ _______ _______ _____ _____    ______ ____
ROOT
ATOM      1  C   UNL     1      -7.696  -1.849  -1.660  0.00  0.00    +0.068 C 
ATOM      2  C   UNL     1      -6.600  -0.963  -1.124  0.00  0.00    +0.072 A 
ATOM      3  C   UNL     1      -6.035  -1.220   0.144  0.00  0.00    +0.049 A 
ATOM      4  C   UNL     1      -6.208  -2.144   1.150  0.00  0.00    +0.051 A 
ATOM      5  N   UNL     1      -5.342  -1.849   2.135  0.00  0.00    -0.236 N 
ATOM      6  N   UNL     1      -4.587  -0.722   1.784  0.00  0.00    -0.163 NA
ATOM      7  C   UNL     1      -4.962  -0.311   0.595  0.00  0.00    +0.137 A 
ATOM      8  C   UNL     1      -4.602   0.773  -0.319  0.00  0.00    +0.172 A 
ATOM      9  N   UNL     1      -5.244   0.856  -1.468  0.00  0.00    -0.132 NA
ATOM     10  N   UNL     1      -6.166   0.048  -1.831  0.00  0.00    -0.152 NA
ATOM     11  N   UNL     1      -3.611   1.684   0.011  0.00  0.00    -0.311 N 
ATOM     12  C   UNL     1      -3.908   2.344   1.289  0.00  0.00    +0.106 C 
ATOM     13  C   UNL     1      -2.874   3.442   1.549  0.00  0.00    +0.020 C 
ATOM     14  C   UNL     1      -1.475   2.821   1.588  0.00  0.00    +0.016 C 
ATOM     15  C   UNL     1      -1.210   2.098   0.264  0.00  0.00    +0.092 C 
ATOM     16  C   UNL     1      -2.292   1.039   0.041  0.00  0.00    +0.119 C 
ATOM     17  C   UNL     1      -7.194  -3.284   1.148  0.00  0.00    +0.066 C 
ENDROOT
BRANCH   5  18
ATOM     18  C   UNL     1      -5.213  -2.562   3.335  0.00  0.00    +0.066 A 
ATOM     19  C   UNL     1      -5.065  -1.881   4.536  0.00  0.00    +0.029 A 
ATOM     20  C   UNL     1      -4.944  -2.586   5.717  0.00  0.00    +0.022 A 
ATOM     21  C   UNL     1      -4.960  -3.970   5.703  0.00  0.00    +0.041 A 
ATOM     22  C   UNL     1      -5.102  -4.651   4.507  0.00  0.00    +0.022 A 
ATOM     23  C   UNL     1      -5.229  -3.950   3.323  0.00  0.00    +0.029 A 
ATOM     24 CL   UNL     1      -4.802  -4.853   7.189  0.00  0.00    -0.084 Cl
ENDBRANCH   5  18
BRANCH  15  25
ATOM     25  C   UNL     1       0.141   1.433   0.316  0.00  0.00    +0.218 C 
ATOM     26  O   UNL     1       0.231   0.231   0.184  0.00  0.00    -0.275 OA
ATOM     27  N   UNL     1       1.251   2.175   0.504  0.00  0.00    -0.312 N 
ATOM     28  H   UNL     1       1.169   3.265   0.624  0.00  0.00    +0.149 HD
BRANCH  27  29
ATOM     29  C   UNL     1       2.565   1.529   0.548  0.00  0.00    +0.073 C 
ATOM     30  C   UNL     1       2.812   0.997   1.975  0.00  0.00    +0.022 C 
ATOM     31  C   UNL     1       3.868  -0.074   1.908  0.00  0.00    +0.002 C 
ATOM     32  C   UNL     1       5.281   0.476   2.179  0.00  0.00    +0.000 C 
ATOM     33  C   UNL     1       5.538   1.829   1.488  0.00  0.00    +0.000 C 
ATOM     34  C   UNL     1       4.989   1.873   0.088  0.00  0.00    +0.002 C 
ATOM     35  C   UNL     1       3.576   2.490   0.134  0.00  0.00    +0.022 C 
ENDBRANCH  27  29
ENDBRANCH  15  25
TORSDOF 3
