REMARK  Name = ZINC64029255
REMARK  8 active torsions:
REMARK  status: ('A' for Active; 'I' for Inactive)
REMARK    1  A    between atoms: C_1  and  C_2
REMARK    2  A    between atoms: C_6  and  N_12
REMARK    3  A    between atoms: C_9  and  C_11
REMARK    4  A    between atoms: C_13  and  C_15
REMARK    5  A    between atoms: C_15  and  N_16
REMARK    6  A    between atoms: C_19  and  C_22
REMARK    7  A    between atoms: N_24  and  C_25
REMARK    8  A    between atoms: C_25  and  C_26
REMARK                            x       y       z     vdW  Elec       q    Type
REMARK                         _______ _______ _______ _____ _____    ______ ____
ROOT
ATOM      1  N   UNL     1      -3.401  -2.952  -0.543  0.00  0.00    -0.288 N 
ATOM      2  C   UNL     1      -4.418  -3.827  -0.415  0.00  0.00    +0.199 C 
ATOM      3  O   UNL     1      -5.151  -3.768   0.550  0.00  0.00    -0.278 OA
ATOM      4  H   UNL     1      -2.815  -2.999  -1.315  0.00  0.00    +0.151 HD
ENDROOT
BRANCH   1   9
ATOM      5  C   UNL     1      -0.019   1.526   0.010  0.00  0.00    +0.030 C 
ATOM      6  C   UNL     1       0.002  -0.004   0.002  0.00  0.00    +0.099 C 
ATOM      7  C   UNL     1      -1.409  -0.528   0.019  0.00  0.00    -0.011 C 
ATOM      8  C   UNL     1      -1.717  -1.674   0.651  0.00  0.00    +0.065 C 
ATOM      9  C   UNL     1      -3.181  -1.929   0.482  0.00  0.00    +0.243 C 
ATOM     10  O   UNL     1      -3.752  -0.670   0.063  0.00  0.00    -0.347 OA
ATOM     11  C   UNL     1      -2.663   0.023  -0.586  0.00  0.00    +0.146 C 
ATOM     12  C   UNL     1      -2.687  -0.251  -2.091  0.00  0.00    +0.043 C 
ATOM     13  C   UNL     1      -0.670  -2.429   1.357  0.00  0.00    +0.258 C 
ATOM     14  O   UNL     1      -0.872  -3.538   1.815  0.00  0.00    -0.269 OA
ATOM     15  N   UNL     1       0.533  -1.813   1.465  0.00  0.00    -0.247 N 
ATOM     16  N   UNL     1       0.706  -0.493   1.194  0.00  0.00    -0.233 NA
ATOM     17  H   UNL     1       1.300  -2.335   1.746  0.00  0.00    +0.169 HD
ATOM     18  H   UNL     1       0.487   0.072   2.001  0.00  0.00    +0.145 HD
ENDBRANCH   1   9
BRANCH   2  19
ATOM     19  C   UNL     1      -4.645  -4.879  -1.470  0.00  0.00    +0.019 C 
BRANCH  19  20
ATOM     20  N   UNL     1      -5.804  -5.701  -1.100  0.00  0.00    +0.385 N 
ATOM     21  C   UNL     1      -5.508  -6.436   0.136  0.00  0.00    -0.077 C 
ATOM     22  C   UNL     1      -6.741  -7.231   0.570  0.00  0.00    -0.006 C 
ATOM     23  C   UNL     1      -7.118  -8.221  -0.536  0.00  0.00    +0.071 C 
ATOM     24  C   UNL     1      -7.353  -7.450  -1.839  0.00  0.00    -0.006 C 
ATOM     25  C   UNL     1      -6.097  -6.647  -2.183  0.00  0.00    -0.077 C 
ATOM     26  H   UNL     1      -6.604  -5.105  -0.950  0.00  0.00    -0.081 HD
BRANCH  23  27
ATOM     27  C   UNL     1      -8.378  -8.952  -0.149  0.00  0.00    +0.216 C 
ATOM     28  O   UNL     1      -8.921  -8.707   0.907  0.00  0.00    -0.276 OA
ATOM     29  N   UNL     1      -8.900  -9.879  -0.977  0.00  0.00    -0.307 N 
ATOM     30  H   UNL     1      -8.465 -10.075  -1.822  0.00  0.00    +0.149 HD
BRANCH  29  31
ATOM     31  C   UNL     1     -10.124 -10.590  -0.601  0.00  0.00    +0.217 C 
BRANCH  31  32
ATOM     32  C   UNL     1     -10.500 -11.579  -1.707  0.00  0.00    +0.405 C 
ATOM     33  F   UNL     1      -9.461 -12.499  -1.882  0.00  0.00    -0.169 F 
ATOM     34  F   UNL     1     -11.669 -12.258  -1.348  0.00  0.00    -0.169 F 
ATOM     35  F   UNL     1     -10.713 -10.883  -2.902  0.00  0.00    -0.169 F 
ENDBRANCH  31  32
ENDBRANCH  29  31
ENDBRANCH  23  27
ENDBRANCH  19  20
ENDBRANCH   2  19
TORSDOF 6
