REMARK  Name = ZINC02990928
REMARK  13 active torsions:
REMARK  status: ('A' for Active; 'I' for Inactive)
REMARK    1  A    between atoms: C_1  and  C_2
REMARK    2  A    between atoms: C_5  and  N_8
REMARK    3  A    between atoms: C_12  and  C_15
REMARK    4  A    between atoms: N_17  and  C_18
REMARK    5  A    between atoms: C_18  and  C_20
REMARK    6  A    between atoms: C_18  and  C_24
REMARK    7  A    between atoms: C_20  and  C_21
REMARK    8  A    between atoms: C_21  and  S_22
REMARK    9  A    between atoms: S_22  and  C_23
REMARK   10  A    between atoms: C_24  and  O_26
REMARK   11  A    between atoms: O_26  and  C_27
REMARK   12  A    between atoms: C_31  and  C_33
REMARK   13  A    between atoms: C_31  and  C_34
REMARK                            x       y       z     vdW  Elec       q    Type
REMARK                         _______ _______ _______ _____ _____    ______ ____
ROOT
ATOM      1  N   UNL     1      -1.181  -2.065   0.125  0.00  0.00    -0.280 N 
ATOM      2  C   UNL     1      -0.031  -2.742  -0.081  0.00  0.00    +0.038 A 
ATOM      3  C   UNL     1       1.170  -2.064  -0.207  0.00  0.00    +0.038 A 
ATOM      4  C   UNL     1       1.215  -0.657  -0.116  0.00  0.00    +0.031 A 
ATOM      5  C   UNL     1       0.035   0.040   0.106  0.00  0.00    +0.102 A 
ATOM      6  C   UNL     1      -1.209  -0.726   0.224  0.00  0.00    +0.268 A 
ATOM      7  O   UNL     1      -2.265  -0.149   0.410  0.00  0.00    -0.266 OA
ATOM      8  C   UNL     1       2.421  -2.805  -0.446  0.00  0.00    +0.165 C 
ATOM      9  O   UNL     1       3.439  -2.227  -0.763  0.00  0.00    -0.292 OA
ATOM     10  C   UNL     1       2.395  -4.309  -0.282  0.00  0.00    +0.086 C 
ATOM     11  C   UNL     1       1.095  -4.814  -0.923  0.00  0.00    -0.023 C 
ATOM     12  C   UNL     1      -0.097  -4.246  -0.160  0.00  0.00    +0.061 C 
ATOM     13  C   UNL     1       1.033  -4.355  -2.381  0.00  0.00    +0.011 C 
ATOM     14  C   UNL     1       1.058  -6.343  -0.867  0.00  0.00    +0.011 C 
ENDROOT
BRANCH   1  19
ATOM     15  C   UNL     1      -6.038  -4.962   0.584  0.00  0.00    +0.044 C 
ATOM     16  C   UNL     1      -4.748  -4.193   0.462  0.00  0.00    -0.050 A 
ATOM     17  C   UNL     1      -4.516  -3.406  -0.651  0.00  0.00    +0.005 A 
ATOM     18  C   UNL     1      -3.335  -2.700  -0.766  0.00  0.00    +0.026 A 
ATOM     19  C   UNL     1      -2.380  -2.780   0.238  0.00  0.00    +0.050 A 
ATOM     20  C   UNL     1      -2.613  -3.575   1.353  0.00  0.00    +0.026 A 
ATOM     21  C   UNL     1      -3.798  -4.275   1.464  0.00  0.00    +0.005 A 
ENDBRANCH   1  19
BRANCH   5  22
ATOM     22  C   UNL     1       0.032   1.507   0.215  0.00  0.00    +0.250 C 
ATOM     23  O   UNL     1       1.083   2.119   0.213  0.00  0.00    -0.270 OA
ATOM     24  N   UNL     1      -1.135   2.174   0.310  0.00  0.00    -0.298 N 
ATOM     25  H   UNL     1      -1.970   1.684   0.378  0.00  0.00    +0.150 HD
BRANCH  24  26
ATOM     26  C   UNL     1      -1.144   3.639   0.313  0.00  0.00    +0.183 C 
BRANCH  26  27
ATOM     27  C   UNL     1      -1.139   4.144  -1.107  0.00  0.00    +0.327 C 
ATOM     28  O   UNL     1      -1.128   3.360  -2.026  0.00  0.00    -0.249 OA
BRANCH  27  29
ATOM     29  O   UNL     1      -1.145   5.464  -1.350  0.00  0.00    -0.467 OA
ATOM     30  C   UNL     1      -1.140   5.878  -2.741  0.00  0.00    +0.280 C 
ENDBRANCH  27  29
ENDBRANCH  26  27
BRANCH  26  31
ATOM     31  C   UNL     1      -2.401   4.140   1.028  0.00  0.00    +0.044 C 
BRANCH  31  32
ATOM     32  C   UNL     1      -2.346   3.733   2.502  0.00  0.00    +0.071 C 
BRANCH  32  33
ATOM     33  S   UNL     1      -3.836   4.327   3.349  0.00  0.00    -0.164 S 
ATOM     34  C   UNL     1      -3.618   3.770   5.061  0.00  0.00    +0.084 C 
ENDBRANCH  32  33
ENDBRANCH  31  32
ENDBRANCH  26  31
ENDBRANCH  24  26
ENDBRANCH   5  22
TORSDOF 8
