REMARK  Name = ZINC01811356
REMARK  15 active torsions:
REMARK  status: ('A' for Active; 'I' for Inactive)
REMARK    1  A    between atoms: C_1  and  C_2
REMARK    2  A    between atoms: C_2  and  C_3
REMARK    3  A    between atoms: C_2  and  C_4
REMARK    4  A    between atoms: C_2  and  C_5
REMARK    5  A    between atoms: C_7  and  C_16
REMARK    6  A    between atoms: C_9  and  C_12
REMARK    7  A    between atoms: C_10  and  O_11
REMARK    8  A    between atoms: C_12  and  C_13
REMARK    9  A    between atoms: C_12  and  C_14
REMARK   10  A    between atoms: C_12  and  C_15
REMARK   11  A    between atoms: C_16  and  C_18
REMARK   12  A    between atoms: C_16  and  N_71
REMARK   13  A    between atoms: C_21  and  N_24
REMARK   14  A    between atoms: N_24  and  C_25
REMARK   15  A    between atoms: N_24  and  C_26
REMARK                            x       y       z     vdW  Elec       q    Type
REMARK                         _______ _______ _______ _____ _____    ______ ____
ROOT
ATOM      1  C   UNL     1       2.911  -0.434   2.346  0.00  0.00    -0.007 C 
ENDROOT
BRANCH   1   7
ATOM      2  C   UNL     1       2.671  -0.481  -0.064  0.00  0.00    -0.049 C 
ATOM      3  C   UNL     1       1.801   0.002  -1.227  0.00  0.00    +0.141 C 
ATOM      4  O   UNL     1       0.469  -0.488  -1.055  0.00  0.00    -0.383 OA
ATOM      5  C   UNL     1      -0.143  -0.075   0.170  0.00  0.00    +0.141 C 
ATOM      6  C   UNL     1       0.708  -0.559   1.347  0.00  0.00    -0.049 C 
ATOM      7  N   UNL     1       2.073  -0.011   1.203  0.00  0.00    +0.390 N 
ATOM      8  H   UNL     1       2.021   1.014   1.188  0.00  0.00    -0.080 HD
ENDBRANCH   1   7
BRANCH   1  11
ATOM      9  C   UNL     1       6.659   0.017   2.319  0.00  0.00    -0.000 A 
ATOM     10  C   UNL     1       5.409  -0.559   2.440  0.00  0.00    +0.010 A 
ATOM     11  C   UNL     1       4.273   0.197   2.213  0.00  0.00    -0.056 A 
ATOM     12  C   UNL     1       4.386   1.529   1.859  0.00  0.00    +0.010 A 
ATOM     13  C   UNL     1       5.633   2.110   1.742  0.00  0.00    -0.000 A 
ATOM     14  C   UNL     1       6.774   1.354   1.969  0.00  0.00    +0.124 A 
BRANCH   9  16
ATOM     15  C   UNL     1       7.491  -2.237   2.932  0.00  0.00    +0.015 C 
ATOM     16  C   UNL     1       7.896  -0.808   2.566  0.00  0.00    -0.009 C 
ATOM     17  C   UNL     1       8.756  -0.829   1.301  0.00  0.00    +0.015 C 
ATOM     18  C   UNL     1       8.696  -0.194   3.716  0.00  0.00    +0.015 C 
ENDBRANCH   9  16
BRANCH  13  19
ATOM     19  C   UNL     1       5.755   3.564   1.363  0.00  0.00    -0.009 C 
ATOM     20  C   UNL     1       4.359   4.160   1.171  0.00  0.00    +0.015 C 
ATOM     21  C   UNL     1       6.485   4.321   2.474  0.00  0.00    +0.015 C 
ATOM     22  C   UNL     1       6.545   3.686   0.058  0.00  0.00    +0.015 C 
ENDBRANCH  13  19
BRANCH  14  23
ATOM     23  O   UNL     1       8.003   1.923   1.849  0.00  0.00    -0.506 OA
ATOM     24  H   UNL     1       8.379   1.862   0.961  0.00  0.00    +0.292 HD
ENDBRANCH  14  23
ENDBRANCH   1  11
BRANCH   1  25
ATOM     25  C   UNL     1       2.266   0.030   3.626  0.00  0.00    -0.057 A 
ATOM     26  C   UNL     1       1.655   1.270   3.681  0.00  0.00    +0.004 A 
ATOM     27  C   UNL     1       1.058   1.696   4.851  0.00  0.00    +0.023 A 
ATOM     28  C   UNL     1       1.080   0.882   5.977  0.00  0.00    +0.029 A 
ATOM     29  C   UNL     1       1.699  -0.360   5.920  0.00  0.00    +0.023 A 
ATOM     30  C   UNL     1       2.290  -0.782   4.745  0.00  0.00    +0.004 A 
BRANCH  28  31
ATOM     31  N   UNL     1       0.482   1.313   7.163  0.00  0.00    -0.336 N 
ATOM     32  C   UNL     1       0.401   0.408   8.312  0.00  0.00    +0.129 C 
ATOM     33  C   UNL     1      -0.063   2.669   7.259  0.00  0.00    +0.129 C 
ENDBRANCH  28  31
ENDBRANCH   1  25
TORSDOF 7
