REMARK  Name = ZINC09186251
REMARK  9 active torsions:
REMARK  status: ('A' for Active; 'I' for Inactive)
REMARK    1  A    between atoms: C_1  and  C_2
REMARK    2  A    between atoms: C_7  and  C_9
REMARK    3  A    between atoms: C_7  and  C_10
REMARK    4  A    between atoms: C_20  and  N_22
REMARK    5  A    between atoms: N_22  and  C_23
REMARK    6  A    between atoms: C_23  and  N_25
REMARK    7  A    between atoms: N_25  and  C_26
REMARK    8  A    between atoms: N_29  and  C_36
REMARK    9  A    between atoms: N_32  and  C_35
REMARK                            x       y       z     vdW  Elec       q    Type
REMARK                         _______ _______ _______ _____ _____    ______ ____
ROOT
ATOM      1  C   UNL     1       0.155   1.563  -0.502  0.00  0.00    +0.013 C 
ATOM      2  C   UNL     1       0.058   0.053  -0.243  0.00  0.00    -0.010 C 
ATOM      3  C   UNL     1       0.908  -0.755  -1.268  0.00  0.00    +0.031 C 
ATOM      4  C   UNL     1       0.286  -2.163  -1.072  0.00  0.00    +0.075 C 
ATOM      5  C   UNL     1       0.811  -2.728   0.240  0.00  0.00    +0.029 C 
ATOM      6  C   UNL     1       0.695  -1.797   1.429  0.00  0.00    -0.033 C 
ATOM      7  C   UNL     1       0.625  -0.313   1.142  0.00  0.00    +0.015 C 
ATOM      8  C   UNL     1       1.953  -2.032   2.306  0.00  0.00    +0.011 C 
ATOM      9  C   UNL     1      -0.506  -2.225   2.291  0.00  0.00    +0.011 C 
ATOM     10  N   UNL     1      -1.149  -1.895  -0.979  0.00  0.00    -0.322 N 
ATOM     11  C   UNL     1      -1.341  -0.564  -0.352  0.00  0.00    +0.104 C 
ATOM     12  C   UNL     1      -2.349   0.169  -1.228  0.00  0.00    +0.146 C 
ATOM     13  C   UNL     1      -3.665  -0.633  -1.215  0.00  0.00    +0.064 C 
ATOM     14  C   UNL     1      -3.468  -2.094  -1.496  0.00  0.00    -0.023 A 
ATOM     15  C   UNL     1      -2.218  -2.694  -1.376  0.00  0.00    +0.034 A 
ATOM     16  C   UNL     1      -2.052  -4.043  -1.643  0.00  0.00    +0.025 A 
ATOM     17  C   UNL     1      -3.137  -4.807  -2.030  0.00  0.00    +0.025 A 
ATOM     18  C   UNL     1      -4.387  -4.217  -2.149  0.00  0.00    +0.033 A 
ATOM     19  C   UNL     1      -4.550  -2.865  -1.883  0.00  0.00    +0.028 A 
ATOM     20  C   UNL     1      -2.683   1.526  -0.667  0.00  0.00    +0.240 C 
ATOM     21  O   UNL     1      -2.996   1.620   0.498  0.00  0.00    -0.274 OA
ATOM     22  N   UNL     1      -2.651   2.630  -1.426  0.00  0.00    -0.228 N 
ATOM     23  C   UNL     1      -2.243   2.601  -2.704  0.00  0.00    +0.317 C 
ATOM     24  O   UNL     1      -2.234   3.632  -3.347  0.00  0.00    -0.252 OA
ATOM     25  N   UNL     1      -1.840   1.462  -3.287  0.00  0.00    -0.228 N 
ATOM     26  C   UNL     1      -1.866   0.285  -2.643  0.00  0.00    +0.240 C 
ATOM     27  O   UNL     1      -1.493  -0.705  -3.232  0.00  0.00    -0.274 OA
ATOM     28  C   UNL     1      -1.354   1.503  -4.668  0.00  0.00    +0.143 C 
ATOM     29  C   UNL     1      -3.079   3.906  -0.847  0.00  0.00    +0.143 C 
ENDROOT
BRANCH  18  30
ATOM     30  N   UNL     1      -5.490  -4.989  -2.539  0.00  0.00    -0.297 N 
ATOM     31  H   UNL     1      -6.131  -4.633  -3.173  0.00  0.00    +0.154 HD
BRANCH  30  32
ATOM     32  C   UNL     1      -5.660  -6.226  -2.032  0.00  0.00    +0.134 C 
ATOM     33  S   UNL     1      -4.610  -6.801  -0.808  0.00  0.00    -0.019 S 
BRANCH  32  34
ATOM     34  N   UNL     1      -6.655  -7.011  -2.489  0.00  0.00    -0.329 N 
ATOM     35  C   UNL     1      -6.840  -8.356  -1.938  0.00  0.00    +0.127 C 
ATOM     36  H   UNL     1      -7.250  -6.685  -3.183  0.00  0.00    +0.147 HD
ENDBRANCH  32  34
ENDBRANCH  30  32
ENDBRANCH  18  30
TORSDOF 3
