REMARK  Name = ZINC61693176
REMARK  5 active torsions:
REMARK  status: ('A' for Active; 'I' for Inactive)
REMARK    1  A    between atoms: C_4  and  S_9
REMARK    2  A    between atoms: C_5  and  N_7
REMARK    3  A    between atoms: N_7  and  N_8
REMARK    4  A    between atoms: S_9  and  N_12
REMARK    5  A    between atoms: N_12  and  C_13
REMARK                            x       y       z     vdW  Elec       q    Type
REMARK                         _______ _______ _______ _____ _____    ______ ____
ROOT
ATOM      1  S   UNL     1       3.695  -0.856   0.015  0.00  0.00    +0.074 S 
ATOM      2  O   UNL     1       3.546  -1.856  -0.983  0.00  0.00    -0.150 OA
ATOM      3  O   UNL     1       4.674   0.170  -0.074  0.00  0.00    -0.150 OA
ENDROOT
BRANCH   1   7
ATOM      4  C   UNL     1      -0.319   1.214   0.385  0.00  0.00    +0.002 A 
ATOM      5  C   UNL     1       0.835   1.958   0.218  0.00  0.00    +0.002 A 
ATOM      6  C   UNL     1       2.059   1.326   0.106  0.00  0.00    +0.031 A 
ATOM      7  C   UNL     1       2.134  -0.052   0.160  0.00  0.00    +0.130 A 
ATOM      8  C   UNL     1       0.978  -0.803   0.327  0.00  0.00    +0.068 A 
ATOM      9  C   UNL     1      -0.251  -0.165   0.440  0.00  0.00    +0.026 A 
BRANCH   8  10
ATOM     10  N   UNL     1       1.050  -2.197   0.382  0.00  0.00    -0.281 N 
ATOM     11  H   UNL     1       1.914  -2.638   0.377  0.00  0.00    +0.166 HD
BRANCH  10  12
ATOM     12  N   UNL     1      -0.095  -2.938   0.443  0.00  0.00    -0.256 NA
ATOM     13  H   UNL     1       0.115  -3.920   0.549  0.00  0.00    +0.140 HD
ATOM     14  H   UNL     1      -0.696  -2.615   1.186  0.00  0.00    +0.140 HD
ENDBRANCH  10  12
ENDBRANCH   8  10
ENDBRANCH   1   7
BRANCH   1  15
ATOM     15  N   UNL     1       3.971  -1.650   1.442  0.00  0.00    -0.215 N 
ATOM     16  H   UNL     1       3.981  -2.620   1.464  0.00  0.00    +0.174 HD
BRANCH  15  17
ATOM     17  C   UNL     1       4.189  -0.923   2.616  0.00  0.00    +0.067 A 
ATOM     18  C   UNL     1       3.572   0.308   2.796  0.00  0.00    +0.041 A 
ATOM     19  C   UNL     1       3.790   1.025   3.958  0.00  0.00    +0.020 A 
ATOM     20  C   UNL     1       4.622   0.517   4.940  0.00  0.00    +0.017 A 
ATOM     21  C   UNL     1       5.238  -0.708   4.763  0.00  0.00    +0.023 A 
ATOM     22  C   UNL     1       5.020  -1.432   3.607  0.00  0.00    +0.063 A 
ATOM     23 CL   UNL     1       5.788  -2.974   3.389  0.00  0.00    -0.082 Cl
ATOM     24 BR   UNL     1       2.950   2.701   4.205  0.00  0.00    -0.050 Br
ENDBRANCH  15  17
ENDBRANCH   1  15
TORSDOF 5
