REMARK  Name = ZINC08987673
REMARK  7 active torsions:
REMARK  status: ('A' for Active; 'I' for Inactive)
REMARK    1  A    between atoms: C_4  and  C_7
REMARK    2  A    between atoms: C_8  and  C_9
REMARK    3  A    between atoms: C_9  and  C_11
REMARK    4  A    between atoms: N_15  and  C_27
REMARK    5  A    between atoms: C_16  and  C_18
REMARK    6  A    between atoms: C_22  and  N_24
REMARK    7  A    between atoms: C_31  and  C_33
REMARK                            x       y       z     vdW  Elec       q    Type
REMARK                         _______ _______ _______ _____ _____    ______ ____
ROOT
ATOM      1  C   UNL     1      -2.399  -2.910   0.009  0.00  0.00    +0.076 C 
ATOM      2  C   UNL     1      -2.537  -4.256  -0.003  0.00  0.00    +0.250 C 
ATOM      3  C   UNL     1      -3.973  -4.598   0.015  0.00  0.00    +0.292 C 
ATOM      4  O   UNL     1      -4.421  -5.727   0.012  0.00  0.00    -0.266 OA
ATOM      5  N   UNL     1      -4.713  -3.474   0.028  0.00  0.00    -0.253 N 
ATOM      6  C   UNL     1      -3.794  -2.329   0.026  0.00  0.00    +0.150 C 
ATOM      7  O   UNL     1      -1.519  -5.148  -0.024  0.00  0.00    -0.282 OA
ENDROOT
BRANCH   6   8
ATOM      8  C   UNL     1      -4.019  -1.486  -1.203  0.00  0.00    -0.020 A 
ATOM      9  C   UNL     1      -4.301  -2.091  -2.414  0.00  0.00    +0.006 A 
ATOM     10  C   UNL     1      -4.507  -1.318  -3.541  0.00  0.00    +0.003 A 
ATOM     11  C   UNL     1      -4.432   0.060  -3.457  0.00  0.00    +0.033 A 
ATOM     12  C   UNL     1      -4.152   0.665  -2.246  0.00  0.00    +0.127 A 
ATOM     13  C   UNL     1      -3.950  -0.108  -1.118  0.00  0.00    +0.038 A 
BRANCH  12  14
ATOM     14  N   UNL     1      -4.072   2.140  -2.156  0.00  0.00    +0.056 N 
ATOM     15  O   UNL     1      -4.254   2.821  -3.149  0.00  0.00    -0.126 OA
ATOM     16  O   UNL     1      -3.825   2.673  -1.089  0.00  0.00    -0.126 OA
ENDBRANCH  12  14
ENDBRANCH   6   8
BRANCH   5  17
ATOM     17  C   UNL     1      -6.109  -3.408   0.041  0.00  0.00    +0.038 A 
ATOM     18  C   UNL     1      -6.747  -2.173   0.059  0.00  0.00    +0.023 A 
ATOM     19  C   UNL     1      -8.127  -2.102   0.068  0.00  0.00    +0.003 A 
ATOM     20  C   UNL     1      -8.882  -3.257   0.068  0.00  0.00    +0.015 A 
ATOM     21  C   UNL     1      -8.252  -4.503   0.055  0.00  0.00    +0.065 A 
ATOM     22  C   UNL     1      -6.858  -4.575   0.041  0.00  0.00    +0.038 A 
BRANCH  21  23
ATOM     23  C   UNL     1      -9.057  -5.742   0.055  0.00  0.00    +0.387 C 
ATOM     24  O   UNL     1      -8.507  -6.824   0.043  0.00  0.00    -0.241 OA
ATOM     25  O   UNL     1     -10.402  -5.670   0.068  0.00  0.00    -0.241 OA
ENDBRANCH  21  23
ENDBRANCH   5  17
BRANCH   1  26
ATOM     26  C   UNL     1      -1.138  -2.159   0.001  0.00  0.00    +0.188 C 
ATOM     27  O   UNL     1      -0.075  -2.754  -0.012  0.00  0.00    -0.287 OA
BRANCH  26  29
ATOM     28  C   UNL     1       0.002  -0.004   0.002  0.00  0.00    +0.011 C 
ATOM     29  C   UNL     1      -1.158  -0.695   0.009  0.00  0.00    +0.052 C 
BRANCH  28  33
ATOM     30  C   UNL     1      -0.055   4.237   0.025  0.00  0.00    +0.000 A 
ATOM     31  C   UNL     1       1.155   3.565   0.010  0.00  0.00    +0.001 A 
ATOM     32  C   UNL     1       1.182   2.186   0.003  0.00  0.00    +0.008 A 
ATOM     33  C   UNL     1      -0.018   1.467   0.010  0.00  0.00    -0.025 A 
ATOM     34  C   UNL     1      -1.237   2.154   0.020  0.00  0.00    +0.008 A 
ATOM     35  C   UNL     1      -1.247   3.532   0.034  0.00  0.00    +0.001 A 
ENDBRANCH  28  33
ENDBRANCH  26  29
ENDBRANCH   1  26
TORSDOF 7
