REMARK  Name = ZINC15675770
REMARK  4 active torsions:
REMARK  status: ('A' for Active; 'I' for Inactive)
REMARK    1  A    between atoms: C_3  and  C_33
REMARK    2  A    between atoms: C_6  and  C_7
REMARK    3  A    between atoms: C_9  and  C_12
REMARK    4  A    between atoms: N_25  and  C_26
REMARK                            x       y       z     vdW  Elec       q    Type
REMARK                         _______ _______ _______ _____ _____    ______ ____
ROOT
ATOM      1  C   UNL     1      -3.905  -4.603  -0.515  0.00  0.00    +0.172 C 
ATOM      2  C   UNL     1      -4.931  -4.693  -1.652  0.00  0.00    +0.087 C 
ATOM      3  C   UNL     1      -5.907  -3.554  -1.516  0.00  0.00    +0.040 A 
ATOM      4  C   UNL     1      -6.094  -2.827  -0.394  0.00  0.00    +0.054 A 
ATOM      5  N   UNL     1      -7.034  -1.913  -0.642  0.00  0.00    -0.348 N 
ATOM      6  C   UNL     1      -7.439  -2.041  -1.879  0.00  0.00    +0.171 A 
ATOM      7  N   UNL     1      -6.757  -3.056  -2.458  0.00  0.00    -0.349 N 
ATOM      8  H   UNL     1      -6.853  -3.369  -3.371  0.00  0.00    +0.166 HD
ATOM      9  C   UNL     1      -5.331  -3.056   0.889  0.00  0.00    +0.165 C 
ATOM     10  N   UNL     1      -4.608  -4.334   0.749  0.00  0.00    -0.267 N 
ATOM     11  C   UNL     1      -4.593  -5.234   1.752  0.00  0.00    +0.307 C 
ATOM     12  O   UNL     1      -4.076  -6.322   1.585  0.00  0.00    -0.252 OA
ATOM     13  N   UNL     1      -5.152  -4.929   2.940  0.00  0.00    -0.269 N 
ATOM     14  H   UNL     1      -5.631  -4.093   3.050  0.00  0.00    +0.156 HD
ATOM     15  H   UNL     1      -7.365  -1.259  -0.007  0.00  0.00    +0.166 HD
ENDROOT
BRANCH  13  16
ATOM     16  C   UNL     1      -5.040  -5.819   4.015  0.00  0.00    +0.035 A 
ATOM     17  C   UNL     1      -3.898  -6.595   4.160  0.00  0.00    +0.025 A 
ATOM     18  C   UNL     1      -3.790  -7.472   5.221  0.00  0.00    +0.022 A 
ATOM     19  C   UNL     1      -4.820  -7.577   6.140  0.00  0.00    +0.041 A 
ATOM     20  C   UNL     1      -5.959  -6.806   5.998  0.00  0.00    +0.022 A 
ATOM     21  C   UNL     1      -6.069  -5.923   4.941  0.00  0.00    +0.025 A 
ATOM     22 CL   UNL     1      -4.681  -8.681   7.473  0.00  0.00    -0.084 Cl
ENDBRANCH  13  16
BRANCH   1  25
ATOM     23  C   UNL     1      -1.127  -2.425  -1.357  0.00  0.00    +0.202 A 
ATOM     24  N   UNL     1      -1.705  -3.629  -1.202  0.00  0.00    -0.190 NA
ATOM     25  C   UNL     1      -2.935  -3.485  -0.799  0.00  0.00    +0.249 A 
ATOM     26  O   UNL     1      -3.192  -2.176  -0.679  0.00  0.00    -0.336 OA
ATOM     27  N   UNL     1      -1.998  -1.498  -1.043  0.00  0.00    -0.056 NA
BRANCH  23  33
ATOM     28  C   UNL     1       0.752  -0.883  -1.919  0.00  0.00    +0.012 A 
ATOM     29  C   UNL     1       2.050  -0.666  -2.334  0.00  0.00    +0.013 A 
ATOM     30  C   UNL     1       2.871  -1.738  -2.636  0.00  0.00    +0.055 A 
ATOM     31  C   UNL     1       2.396  -3.032  -2.524  0.00  0.00    +0.013 A 
ATOM     32  C   UNL     1       1.099  -3.261  -2.110  0.00  0.00    +0.012 A 
ATOM     33  C   UNL     1       0.268  -2.185  -1.804  0.00  0.00    +0.022 A 
BRANCH  30  34
ATOM     34  C   UNL     1       4.287  -1.494  -3.090  0.00  0.00    +0.417 C 
ATOM     35  F   UNL     1       5.134  -1.460  -1.977  0.00  0.00    -0.166 F 
ATOM     36  F   UNL     1       4.686  -2.526  -3.947  0.00  0.00    -0.166 F 
ATOM     37  F   UNL     1       4.356  -0.272  -3.767  0.00  0.00    -0.166 F 
ENDBRANCH  30  34
ENDBRANCH  23  33
ENDBRANCH   1  25
TORSDOF 4
