REMARK  Name = ZINC22203821
REMARK  9 active torsions:
REMARK  status: ('A' for Active; 'I' for Inactive)
REMARK    1  A    between atoms: C_1  and  C_2
REMARK    2  A    between atoms: C_2  and  C_3
REMARK    3  A    between atoms: C_2  and  C_4
REMARK    4  A    between atoms: C_2  and  C_5
REMARK    5  A    between atoms: C_5  and  C_7
REMARK    6  A    between atoms: C_5  and  N_17
REMARK    7  A    between atoms: C_8  and  C_9
REMARK    8  A    between atoms: N_22  and  C_29
REMARK    9  A    between atoms: C_32  and  O_35
REMARK                            x       y       z     vdW  Elec       q    Type
REMARK                         _______ _______ _______ _____ _____    ______ ____
ROOT
ATOM      1  N   UNL     1       1.398   1.541   2.590  0.00  0.00    -0.368 N 
ATOM      2  C   UNL     1       1.664   2.794   3.040  0.00  0.00    +0.098 C 
ATOM      3  N   UNL     1       0.798   3.680   3.465  0.00  0.00    -0.285 N 
ATOM      4  C   UNL     1       1.380   4.824   3.842  0.00  0.00    +0.143 C 
ATOM      5  S   UNL     1       0.523   6.178   4.444  0.00  0.00    -0.018 S 
ATOM      6  N   UNL     1       2.719   4.785   3.693  0.00  0.00    -0.269 N 
ATOM      7  C   UNL     1       3.021   3.449   3.161  0.00  0.00    +0.094 C 
ATOM      8  C   UNL     1       3.683   3.558   1.792  0.00  0.00    +0.034 C 
ATOM      9  C   UNL     1       5.040   4.253   1.932  0.00  0.00    +0.003 C 
ATOM     10  C   UNL     1       5.927   3.447   2.885  0.00  0.00    +0.000 C 
ATOM     11  C   UNL     1       5.261   3.369   4.260  0.00  0.00    +0.003 C 
ATOM     12  C   UNL     1       3.904   2.671   4.129  0.00  0.00    +0.034 C 
ATOM     13  H   UNL     1      -0.275   3.438   3.480  0.00  0.00    +0.155 HD
ATOM     14  H   UNL     1       2.220   0.889   2.260  0.00  0.00    +0.161 HD
ENDROOT
BRANCH   6  15
ATOM     15  C   UNL     1       3.634   5.803   3.990  0.00  0.00    +0.037 A 
ATOM     16  C   UNL     1       4.992   5.598   3.788  0.00  0.00    +0.027 A 
ATOM     17  C   UNL     1       5.892   6.605   4.077  0.00  0.00    +0.047 A 
ATOM     18  C   UNL     1       5.441   7.817   4.578  0.00  0.00    +0.117 A 
ATOM     19  C   UNL     1       4.085   8.020   4.785  0.00  0.00    +0.047 A 
ATOM     20  C   UNL     1       3.182   7.017   4.492  0.00  0.00    +0.027 A 
BRANCH  18  21
ATOM     21  O   UNL     1       6.329   8.806   4.866  0.00  0.00    -0.507 OA
ATOM     22  H   UNL     1       5.971   9.767   5.264  0.00  0.00    +0.292 HD
ENDBRANCH  18  21
ENDBRANCH   6  15
BRANCH   1  23
ATOM     23  C   UNL     1       0.016   1.057   2.545  0.00  0.00    +0.109 C 
BRANCH  23  25
ATOM     24  C   UNL     1       0.142   0.934   0.052  0.00  0.00    +0.013 C 
ATOM     25  C   UNL     1      -0.639   1.507   1.237  0.00  0.00    -0.014 C 
ATOM     26  C   UNL     1      -0.630   3.035   1.162  0.00  0.00    +0.013 C 
ATOM     27  C   UNL     1      -2.082   1.002   1.189  0.00  0.00    +0.013 C 
ENDBRANCH  23  25
BRANCH  23  28
ATOM     28  C   UNL     1       0.008  -0.448   2.618  0.00  0.00    -0.002 C 
ATOM     29  C   UNL     1      -0.619  -1.060   3.613  0.00  0.00    +0.007 C 
BRANCH  29  30
ATOM     30  C   UNL     1      -0.627  -2.536   3.686  0.00  0.00    -0.007 A 
ATOM     31  C   UNL     1       0.020  -3.289   2.704  0.00  0.00    +0.011 A 
ATOM     32  C   UNL     1       0.014  -4.666   2.780  0.00  0.00    +0.020 A 
ATOM     33  C   UNL     1      -0.641  -5.303   3.821  0.00  0.00    +0.042 A 
ATOM     34  C   UNL     1      -1.290  -4.563   4.794  0.00  0.00    +0.040 A 
ATOM     35  C   UNL     1      -1.286  -3.183   4.733  0.00  0.00    +0.049 A 
ATOM     36 CL   UNL     1      -2.100  -2.256   5.954  0.00  0.00    -0.083 Cl
ATOM     37 CL   UNL     1      -0.649  -7.037   3.905  0.00  0.00    -0.083 Cl
ENDBRANCH  29  30
ENDBRANCH  23  28
ENDBRANCH   1  23
TORSDOF 6
