REMARK  Name = ZINC51064041
REMARK  9 active torsions:
REMARK  status: ('A' for Active; 'I' for Inactive)
REMARK    1  A    between atoms: C_1  and  C_2
REMARK    2  A    between atoms: C_2  and  N_3
REMARK    3  A    between atoms: C_4  and  N_30
REMARK    4  A    between atoms: C_5  and  C_12
REMARK    5  A    between atoms: C_12  and  C_14
REMARK    6  A    between atoms: C_14  and  N_15
REMARK    7  A    between atoms: C_19  and  C_22
REMARK    8  A    between atoms: C_22  and  C_23
REMARK    9  A    between atoms: C_26  and  C_29
REMARK                            x       y       z     vdW  Elec       q    Type
REMARK                         _______ _______ _______ _____ _____    ______ ____
ROOT
ATOM      1  C   UNL     1      -0.266  -1.345  -4.576  0.00  0.00    +0.155 C 
ATOM      2  O   UNL     1      -1.444  -1.053  -4.556  0.00  0.00    -0.294 OA
ENDROOT
BRANCH   1   5
ATOM      3  N   UNL     1       0.787  -0.489  -1.149  0.00  0.00    -0.282 N 
ATOM      4  C   UNL     1      -0.029  -0.686  -2.226  0.00  0.00    +0.116 A 
ATOM      5  C   UNL     1       0.535  -1.127  -3.435  0.00  0.00    +0.118 A 
ATOM      6  C   UNL     1       1.986  -1.352  -3.473  0.00  0.00    +0.266 A 
ATOM      7  O   UNL     1       2.529  -1.732  -4.494  0.00  0.00    -0.267 OA
ATOM      8  N   UNL     1       2.704  -1.127  -2.354  0.00  0.00    -0.274 N 
ATOM      9  H   UNL     1       3.664  -1.272  -2.363  0.00  0.00    +0.173 HD
ATOM     10  C   UNL     1       2.110  -0.702  -1.227  0.00  0.00    +0.331 A 
ATOM     11  O   UNL     1       2.794  -0.507  -0.242  0.00  0.00    -0.246 OA
BRANCH   4  12
ATOM     12  N   UNL     1      -1.368  -0.461  -2.129  0.00  0.00    -0.344 N 
ATOM     13  H   UNL     1      -1.761  -0.234  -1.272  0.00  0.00    +0.144 HD
ATOM     14  H   UNL     1      -1.929  -0.527  -2.918  0.00  0.00    +0.144 HD
ENDBRANCH   4  12
BRANCH   3  16
ATOM     15  C   UNL     1       0.202   1.500   0.149  0.00  0.00    +0.027 C 
ATOM     16  C   UNL     1       0.208  -0.030   0.116  0.00  0.00    +0.125 C 
ENDBRANCH   3  16
ENDBRANCH   1   5
BRANCH   1  17
ATOM     17  C   UNL     1       0.341  -1.942  -5.820  0.00  0.00    +0.002 C 
BRANCH  17  18
ATOM     18  N   UNL     1      -0.692  -2.067  -6.857  0.00  0.00    +0.385 N 
ATOM     19  C   UNL     1      -1.712  -3.025  -6.416  0.00  0.00    -0.078 C 
ATOM     20  C   UNL     1      -2.832  -3.099  -7.456  0.00  0.00    -0.018 C 
ATOM     21  C   UNL     1      -2.247  -3.555  -8.796  0.00  0.00    +0.000 C 
ATOM     22  C   UNL     1      -1.133  -2.590  -9.210  0.00  0.00    -0.023 C 
ATOM     23  C   UNL     1      -0.076  -2.535  -8.105  0.00  0.00    -0.074 C 
ATOM     24  H   UNL     1      -1.122  -1.168  -7.012  0.00  0.00    -0.081 HD
BRANCH  22  25
ATOM     25  C   UNL     1      -0.489  -3.080 -10.509  0.00  0.00    +0.037 C 
BRANCH  25  26
ATOM     26  C   UNL     1      -1.501  -3.022 -11.624  0.00  0.00    -0.047 A 
ATOM     27  C   UNL     1      -2.312  -4.112 -11.879  0.00  0.00    +0.004 A 
ATOM     28  C   UNL     1      -3.241  -4.058 -12.902  0.00  0.00    +0.003 A 
ATOM     29  C   UNL     1      -3.359  -2.914 -13.669  0.00  0.00    -0.050 A 
ATOM     30  C   UNL     1      -2.548  -1.824 -13.413  0.00  0.00    +0.003 A 
ATOM     31  C   UNL     1      -1.623  -1.876 -12.388  0.00  0.00    +0.004 A 
ATOM     32  C   UNL     1      -4.370  -2.856 -14.785  0.00  0.00    +0.044 C 
ENDBRANCH  25  26
ENDBRANCH  22  25
ENDBRANCH  17  18
ENDBRANCH   1  17
TORSDOF 7
