REMARK  Name = ZINC48806381
REMARK  6 active torsions:
REMARK  status: ('A' for Active; 'I' for Inactive)
REMARK    1  A    between atoms: C_1  and  C_2
REMARK    2  A    between atoms: C_7  and  C_8
REMARK    3  A    between atoms: C_8  and  C_10
REMARK    4  A    between atoms: C_8  and  N_11
REMARK    5  A    between atoms: C_12  and  C_14
REMARK    6  A    between atoms: N_16  and  C_17
REMARK                            x       y       z     vdW  Elec       q    Type
REMARK                         _______ _______ _______ _____ _____    ______ ____
ROOT
ATOM      1  C   UNL     1       1.814  -1.075   5.682  0.00  0.00    +0.303 C 
ATOM      2  O   UNL     1       1.795  -2.284   5.574  0.00  0.00    -0.265 OA
ATOM      3  N   UNL     1       2.385  -0.504   6.761  0.00  0.00    -0.278 N 
ATOM      4  H   UNL     1       2.461   0.462   6.816  0.00  0.00    +0.155 HD
ENDROOT
BRANCH   3   5
ATOM      5  C   UNL     1       2.869  -1.303   7.802  0.00  0.00    +0.038 A 
ATOM      6  C   UNL     1       2.772  -0.865   9.117  0.00  0.00    +0.027 A 
ATOM      7  C   UNL     1       3.251  -1.653  10.146  0.00  0.00    +0.051 A 
ATOM      8  C   UNL     1       3.828  -2.880   9.870  0.00  0.00    +0.167 A 
ATOM      9  C   UNL     1       3.925  -3.323   8.551  0.00  0.00    +0.169 A 
ATOM     10  C   UNL     1       3.442  -2.537   7.521  0.00  0.00    +0.073 A 
ATOM     11  O   UNL     1       4.527  -4.554   8.554  0.00  0.00    -0.447 OA
ATOM     12  C   UNL     1       5.219  -4.595   9.810  0.00  0.00    +0.254 C 
ATOM     13  O   UNL     1       4.372  -3.837  10.687  0.00  0.00    -0.448 OA
ATOM     14  C   UNL     1       6.611  -3.964   9.699  0.00  0.00    +0.093 C 
ATOM     15  C   UNL     1       7.483  -4.809  10.663  0.00  0.00    +0.008 C 
ATOM     16  C   UNL     1       6.919  -6.241  10.475  0.00  0.00    +0.008 C 
ATOM     17  C   UNL     1       5.397  -6.030  10.306  0.00  0.00    +0.093 C 
ENDBRANCH   3   5
BRANCH   1  19
ATOM     18  N   UNL     1       0.634  -0.792   3.541  0.00  0.00    -0.301 N 
ATOM     19  C   UNL     1       1.205  -0.221   4.620  0.00  0.00    +0.300 C 
ATOM     20  O   UNL     1       1.224   0.988   4.727  0.00  0.00    -0.265 OA
ATOM     21  H   UNL     1       0.619  -1.758   3.455  0.00  0.00    +0.150 HD
BRANCH  18  22
ATOM     22  C   UNL     1       0.037   0.046   2.498  0.00  0.00    +0.101 C 
ATOM     23  C   UNL     1      -1.400   0.399   2.889  0.00  0.00    +0.033 C 
BRANCH  22  30
ATOM     24  C   UNL     1       0.007   1.495  -0.001  0.00  0.00    +0.044 C 
ATOM     25  C   UNL     1       0.018  -0.012  -0.004  0.00  0.00    -0.046 A 
ATOM     26  C   UNL     1       0.019  -0.701  -1.203  0.00  0.00    +0.004 A 
ATOM     27  C   UNL     1       0.028  -2.083  -1.206  0.00  0.00    +0.000 A 
ATOM     28  C   UNL     1       0.037  -2.776  -0.009  0.00  0.00    +0.000 A 
ATOM     29  C   UNL     1       0.037  -2.087   1.189  0.00  0.00    +0.006 A 
ATOM     30  C   UNL     1       0.032  -0.705   1.192  0.00  0.00    -0.025 A 
ENDBRANCH  22  30
ENDBRANCH  18  22
ENDBRANCH   1  19
TORSDOF 4
