REMARK  Name = ZINC15188091
REMARK  8 active torsions:
REMARK  status: ('A' for Active; 'I' for Inactive)
REMARK    1  A    between atoms: C_3  and  N_38
REMARK    2  A    between atoms: C_6  and  C_7
REMARK    3  A    between atoms: C_18  and  C_23
REMARK    4  A    between atoms: C_23  and  O_25
REMARK    5  A    between atoms: O_25  and  C_26
REMARK    6  A    between atoms: C_26  and  C_27
REMARK    7  A    between atoms: C_27  and  C_29
REMARK    8  A    between atoms: C_32  and  N_35
REMARK                            x       y       z     vdW  Elec       q    Type
REMARK                         _______ _______ _______ _____ _____    ______ ____
ROOT
ATOM      1  C   UNL     1       6.135   3.481  -0.078  0.00  0.00    +0.105 C 
ATOM      2  C   UNL     1       6.097   2.215  -0.914  0.00  0.00    +0.029 C 
ATOM      3  C   UNL     1       7.368   1.357  -0.948  0.00  0.00    +0.033 C 
ATOM      4  C   UNL     1       6.789  -0.041  -1.175  0.00  0.00    -0.030 C 
ATOM      5  C   UNL     1       5.545  -0.097  -0.714  0.00  0.00    -0.023 C 
ATOM      6  C   UNL     1       5.200   1.219  -0.119  0.00  0.00    +0.049 C 
ATOM      7  C   UNL     1       3.818   1.746  -0.133  0.00  0.00    -0.019 A 
ATOM      8  C   UNL     1       2.718   0.924  -0.173  0.00  0.00    +0.021 A 
ATOM      9  C   UNL     1       1.433   1.474  -0.167  0.00  0.00    +0.059 A 
ATOM     10  C   UNL     1       1.274   2.863  -0.122  0.00  0.00    +0.017 A 
ATOM     11  C   UNL     1       2.369   3.676  -0.079  0.00  0.00    +0.024 A 
ATOM     12  C   UNL     1       3.655   3.139  -0.092  0.00  0.00    +0.031 A 
ATOM     13  N   UNL     1       4.750   4.000  -0.076  0.00  0.00    -0.336 N 
ATOM     14  H   UNL     1       4.602   4.958  -0.064  0.00  0.00    +0.147 HD
ENDROOT
BRANCH   1  20
ATOM     15  C   UNL     1       5.631   2.874   2.298  0.00  0.00    +0.008 A 
ATOM     16  C   UNL     1       6.033   2.578   3.587  0.00  0.00    +0.033 A 
ATOM     17  C   UNL     1       7.377   2.580   3.909  0.00  0.00    +0.126 A 
ATOM     18  C   UNL     1       8.320   2.874   2.941  0.00  0.00    +0.033 A 
ATOM     19  C   UNL     1       7.918   3.165   1.651  0.00  0.00    +0.008 A 
ATOM     20  C   UNL     1       6.574   3.163   1.329  0.00  0.00    -0.027 A 
BRANCH  17  21
ATOM     21  N   UNL     1       7.808   2.268   5.290  0.00  0.00    +0.056 N 
ATOM     22  O   UNL     1       8.992   2.271   5.575  0.00  0.00    -0.126 OA
ATOM     23  O   UNL     1       6.977   2.010   6.143  0.00  0.00    -0.126 OA
ENDBRANCH  17  21
ENDBRANCH   1  20
BRANCH   9  24
ATOM     24  C   UNL     1       0.251   0.595  -0.213  0.00  0.00    +0.340 C 
ATOM     25  O   UNL     1       0.392  -0.611  -0.257  0.00  0.00    -0.245 OA
BRANCH  24  26
ATOM     26  O   UNL     1      -0.987   1.129  -0.213  0.00  0.00    -0.453 OA
BRANCH  26  27
ATOM     27  C   UNL     1      -2.104   0.203  -0.266  0.00  0.00    +0.311 C 
BRANCH  27  28
ATOM     28  C   UNL     1      -3.398   0.977  -0.258  0.00  0.00    +0.200 C 
ATOM     29  O   UNL     1      -3.380   2.188  -0.212  0.00  0.00    -0.288 OA
BRANCH  28  30
ATOM     30  C   UNL     1      -4.683   0.261  -0.306  0.00  0.00    +0.021 A 
ATOM     31  C   UNL     1      -4.708  -1.136  -0.365  0.00  0.00    +0.014 A 
ATOM     32  C   UNL     1      -5.916  -1.799  -0.406  0.00  0.00    +0.033 A 
ATOM     33  C   UNL     1      -7.102  -1.085  -0.397  0.00  0.00    +0.126 A 
ATOM     34  C   UNL     1      -7.086   0.297  -0.344  0.00  0.00    +0.033 A 
ATOM     35  C   UNL     1      -5.886   0.975  -0.298  0.00  0.00    +0.014 A 
BRANCH  33  36
ATOM     36  N   UNL     1      -8.395  -1.805  -0.446  0.00  0.00    +0.056 N 
ATOM     37  O   UNL     1      -9.440  -1.180  -0.439  0.00  0.00    -0.126 OA
ATOM     38  O   UNL     1      -8.413  -3.022  -0.493  0.00  0.00    -0.126 OA
ENDBRANCH  33  36
ENDBRANCH  28  30
ENDBRANCH  27  28
ENDBRANCH  26  27
ENDBRANCH  24  26
ENDBRANCH   9  24
TORSDOF 8
