REMARK  Name = ZINC01380933
REMARK  10 active torsions:
REMARK  status: ('A' for Active; 'I' for Inactive)
REMARK    1  A    between atoms: C_1  and  C_2
REMARK    2  A    between atoms: C_8  and  C_10
REMARK    3  A    between atoms: N_16  and  C_32
REMARK    4  A    between atoms: C_17  and  C_25
REMARK    5  A    between atoms: C_22  and  C_24
REMARK    6  A    between atoms: N_27  and  C_28
REMARK    7  A    between atoms: C_28  and  C_29
REMARK    8  A    between atoms: C_28  and  C_30
REMARK    9  A    between atoms: C_28  and  C_31
REMARK   10  A    between atoms: C_32  and  C_33
REMARK                            x       y       z     vdW  Elec       q    Type
REMARK                         _______ _______ _______ _____ _____    ______ ____
ROOT
ATOM      1  C   UNL     1      -3.646  -4.389  -0.006  0.00  0.00    +0.126 C 
ATOM      2  C   UNL     1      -5.135  -4.008  -0.073  0.00  0.00    +0.128 C 
ATOM      3  C   UNL     1      -6.008  -4.683   0.947  0.00  0.00    +0.224 C 
ATOM      4  O   UNL     1      -5.763  -4.772   2.131  0.00  0.00    -0.275 OA
ATOM      5  N   UNL     1      -7.114  -5.176   0.334  0.00  0.00    -0.282 N 
ATOM      6  C   UNL     1      -7.022  -5.005  -1.136  0.00  0.00    +0.199 C 
ATOM      7  C   UNL     1      -5.561  -4.748  -1.394  0.00  0.00    +0.128 C 
ATOM      8  C   UNL     1      -5.010  -3.969  -2.534  0.00  0.00    +0.009 C 
ATOM      9  C   UNL     1      -3.696  -4.224  -2.487  0.00  0.00    +0.007 C 
ATOM     10  C   UNL     1      -3.462  -5.201  -1.328  0.00  0.00    +0.098 C 
ATOM     11  O   UNL     1      -4.736  -5.943  -1.349  0.00  0.00    -0.355 OA
ATOM     12  C   UNL     1      -2.182  -6.034  -1.417  0.00  0.00    +0.047 C 
ENDROOT
BRANCH   1  20
ATOM     13  C   UNL     1      -0.018   1.503   0.010  0.00  0.00    +0.089 C 
ATOM     14  C   UNL     1       0.002  -0.004   0.002  0.00  0.00    +0.136 A 
ATOM     15  C   UNL     1      -1.076  -0.808   0.003  0.00  0.00    +0.091 A 
ATOM     16  C   UNL     1      -0.625  -2.147  -0.007  0.00  0.00    +0.168 A 
ATOM     17  N   UNL     1       0.683  -2.130  -0.013  0.00  0.00    -0.063 NA
ATOM     18  O   UNL     1       1.100  -0.776  -0.013  0.00  0.00    -0.358 OA
ATOM     19  N   UNL     1      -1.432  -3.285  -0.010  0.00  0.00    -0.267 N 
ATOM     20  C   UNL     1      -2.774  -3.159  -0.003  0.00  0.00    +0.225 C 
ATOM     21  O   UNL     1      -3.280  -2.057   0.006  0.00  0.00    -0.275 OA
ATOM     22  H   UNL     1      -1.027  -4.166  -0.017  0.00  0.00    +0.156 HD
ENDBRANCH   1  20
BRANCH   6  23
ATOM     23  C   UNL     1      -7.483  -6.254  -1.843  0.00  0.00    +0.237 C 
ATOM     24  O   UNL     1      -7.535  -7.306  -1.242  0.00  0.00    -0.274 OA
ATOM     25  N   UNL     1      -7.836  -6.201  -3.142  0.00  0.00    -0.309 N 
ATOM     26  H   UNL     1      -7.795  -5.360  -3.623  0.00  0.00    +0.149 HD
BRANCH  25  27
ATOM     27  C   UNL     1      -8.283  -7.415  -3.830  0.00  0.00    +0.026 C 
ATOM     28  C   UNL     1      -9.527  -7.969  -3.130  0.00  0.00    +0.031 C 
ATOM     29  C   UNL     1      -8.622  -7.083  -5.284  0.00  0.00    +0.031 C 
ATOM     30  C   UNL     1      -7.169  -8.463  -3.792  0.00  0.00    +0.031 C 
ENDBRANCH  25  27
ENDBRANCH   6  23
BRANCH   5  31
ATOM     31  C   UNL     1      -8.245  -5.794   1.031  0.00  0.00    +0.143 C 
BRANCH  31  32
ATOM     32  C   UNL     1      -9.260  -4.736   1.378  0.00  0.00    -0.030 A 
ATOM     33  C   UNL     1      -9.175  -4.066   2.584  0.00  0.00    +0.006 A 
ATOM     34  C   UNL     1     -10.106  -3.096   2.903  0.00  0.00    +0.020 A 
ATOM     35  C   UNL     1     -11.123  -2.795   2.015  0.00  0.00    +0.041 A 
ATOM     36  C   UNL     1     -11.208  -3.466   0.808  0.00  0.00    +0.020 A 
ATOM     37  C   UNL     1     -10.273  -4.432   0.488  0.00  0.00    +0.006 A 
ATOM     38 CL   UNL     1     -12.293  -1.576   2.415  0.00  0.00    -0.084 Cl
ENDBRANCH  31  32
ENDBRANCH   5  31
TORSDOF 5
