REMARK  Name = ZINC39487040
REMARK  11 active torsions:
REMARK  status: ('A' for Active; 'I' for Inactive)
REMARK    1  A    between atoms: C_1  and  C_2
REMARK    2  A    between atoms: C_2  and  C_3
REMARK    3  A    between atoms: C_2  and  S_4
REMARK    4  A    between atoms: S_4  and  N_7
REMARK    5  A    between atoms: C_10  and  C_13
REMARK    6  A    between atoms: C_10  and  C_29
REMARK    7  A    between atoms: C_13  and  N_14
REMARK    8  A    between atoms: N_17  and  C_22
REMARK    9  A    between atoms: C_19  and  C_20
REMARK   10  A    between atoms: C_19  and  C_21
REMARK   11  A    between atoms: C_27  and  O_28
REMARK                            x       y       z     vdW  Elec       q    Type
REMARK                         _______ _______ _______ _____ _____    ______ ____
ROOT
ATOM      1  N   UNL     1      -3.605  -0.972  -2.305  0.00  0.00    -0.181 NA
ATOM      2  C   UNL     1      -3.548   0.384  -1.743  0.00  0.00    +0.109 C 
ATOM      3  C   UNL     1      -2.424   1.159  -2.437  0.00  0.00    +0.026 C 
ATOM      4  C   UNL     1      -2.640   1.116  -3.952  0.00  0.00    -0.008 C 
ATOM      5  C   UNL     1      -2.595  -0.336  -4.434  0.00  0.00    +0.026 C 
ATOM      6  C   UNL     1      -3.715  -1.128  -3.762  0.00  0.00    +0.109 C 
ENDROOT
BRANCH   4   7
ATOM      7  C   UNL     1      -1.538   1.918  -4.647  0.00  0.00    -0.003 C 
ATOM      8  C   UNL     1      -1.612   1.684  -6.157  0.00  0.00    +0.004 C 
ATOM      9  C   UNL     1      -0.511   2.486  -6.852  0.00  0.00    +0.000 C 
ATOM     10  C   UNL     1       0.855   2.034  -6.332  0.00  0.00    +0.000 C 
ATOM     11  C   UNL     1       0.929   2.268  -4.822  0.00  0.00    +0.000 C 
ATOM     12  C   UNL     1      -0.172   1.465  -4.127  0.00  0.00    +0.004 C 
ENDBRANCH   4   7
BRANCH   1  13
ATOM     13  S   UNL     1      -3.540  -2.299  -1.317  0.00  0.00    +0.034 S 
ATOM     14  O   UNL     1      -2.877  -1.846  -0.145  0.00  0.00    -0.158 OA
ATOM     15  O   UNL     1      -2.972  -3.323  -2.122  0.00  0.00    -0.158 OA
BRANCH  13  17
ATOM     16  C   UNL     1      -6.041  -2.899  -2.249  0.00  0.00    +0.033 C 
ATOM     17  C   UNL     1      -5.272  -2.687  -0.943  0.00  0.00    +0.142 C 
ATOM     18  C   UNL     1      -5.339  -3.962  -0.100  0.00  0.00    +0.033 C 
ENDBRANCH  13  17
ENDBRANCH   1  13
BRANCH   4  19
ATOM     19  C   UNL     1      -4.003   1.723  -4.290  0.00  0.00    +0.117 C 
BRANCH  19  20
ATOM     20  N   UNL     1      -4.047   3.112  -3.826  0.00  0.00    -0.278 N 
ATOM     21  C   UNL     1      -4.108   3.501  -2.546  0.00  0.00    +0.310 C 
ATOM     22  O   UNL     1      -4.133   2.719  -1.615  0.00  0.00    -0.252 OA
ATOM     23  N   UNL     1      -4.139   4.830  -2.383  0.00  0.00    -0.250 N 
ATOM     24  C   UNL     1      -4.095   5.480  -3.702  0.00  0.00    +0.140 C 
ATOM     25  C   UNL     1      -4.026   4.300  -4.692  0.00  0.00    +0.049 C 
ATOM     26  C   UNL     1      -2.729   4.351  -5.502  0.00  0.00    +0.033 C 
ATOM     27  C   UNL     1      -5.242   4.310  -5.620  0.00  0.00    +0.033 C 
BRANCH  23  28
ATOM     28  C   UNL     1      -4.203   5.497  -1.152  0.00  0.00    +0.079 A 
ATOM     29  C   UNL     1      -3.035   5.854  -0.493  0.00  0.00    +0.027 A 
ATOM     30  C   UNL     1      -3.101   6.511   0.721  0.00  0.00    +0.002 A 
ATOM     31  C   UNL     1      -4.328   6.814   1.282  0.00  0.00    +0.004 A 
ATOM     32  C   UNL     1      -5.495   6.461   0.631  0.00  0.00    +0.047 A 
ATOM     33  C   UNL     1      -5.438   5.807  -0.589  0.00  0.00    +0.138 A 
BRANCH  33  34
ATOM     34  O   UNL     1      -6.586   5.464  -1.232  0.00  0.00    -0.505 OA
ATOM     35  H   UNL     1      -6.921   4.588  -0.998  0.00  0.00    +0.292 HD
ENDBRANCH  33  34
ENDBRANCH  23  28
ENDBRANCH  19  20
ENDBRANCH   4  19
TORSDOF 7
