REMARK  Name = ZINC39330418
REMARK  8 active torsions:
REMARK  status: ('A' for Active; 'I' for Inactive)
REMARK    1  A    between atoms: C_4  and  C_7
REMARK    2  A    between atoms: C_7  and  C_8
REMARK    3  A    between atoms: N_10  and  C_11
REMARK    4  A    between atoms: N_10  and  C_25
REMARK    5  A    between atoms: C_11  and  C_12
REMARK    6  A    between atoms: N_14  and  C_15
REMARK    7  A    between atoms: N_28  and  C_31
REMARK    8  A    between atoms: C_31  and  C_32
REMARK                            x       y       z     vdW  Elec       q    Type
REMARK                         _______ _______ _______ _____ _____    ______ ____
ROOT
ATOM      1  C   UNL     1       4.399  -1.143   0.943  0.00  0.00    +0.221 C 
ATOM      2  O   UNL     1       4.132  -1.179  -0.239  0.00  0.00    -0.275 OA
ATOM      3  N   UNL     1       5.407  -1.894   1.430  0.00  0.00    -0.289 N 
ENDROOT
BRANCH   3   4
ATOM      4  C   UNL     1       6.252  -2.667   0.516  0.00  0.00    +0.073 C 
ATOM      5  C   UNL     1       5.390  -3.677  -0.247  0.00  0.00    +0.004 C 
ATOM      6  C   UNL     1       6.265  -4.425  -1.256  0.00  0.00    -0.077 C 
ATOM      7  N   UNL     1       6.855  -3.470  -2.201  0.00  0.00    +0.382 N 
ATOM      8  C   UNL     1       7.739  -2.542  -1.485  0.00  0.00    -0.077 C 
ATOM      9  C   UNL     1       6.921  -1.722  -0.485  0.00  0.00    +0.004 C 
ATOM     10  H   UNL     1       6.119  -2.949  -2.655  0.00  0.00    -0.081 HD
BRANCH   7  11
ATOM     11  C   UNL     1       7.630  -4.199  -3.213  0.00  0.00    -0.043 C 
BRANCH  11  12
ATOM     12  C   UNL     1       8.134  -3.233  -4.253  0.00  0.00    -0.064 A 
ATOM     13  C   UNL     1       7.366  -2.954  -5.369  0.00  0.00    +0.002 A 
ATOM     14  C   UNL     1       7.829  -2.067  -6.322  0.00  0.00    +0.000 A 
ATOM     15  C   UNL     1       9.059  -1.458  -6.161  0.00  0.00    +0.000 A 
ATOM     16  C   UNL     1       9.827  -1.736  -5.045  0.00  0.00    +0.000 A 
ATOM     17  C   UNL     1       9.362  -2.619  -4.089  0.00  0.00    +0.002 A 
ENDBRANCH  11  12
ENDBRANCH   7  11
ENDBRANCH   3   4
BRANCH   1  18
ATOM     18  C   UNL     1       3.605  -0.256   1.868  0.00  0.00    +0.131 C 
BRANCH  18  22
ATOM     19  C   UNL     1       0.831   2.059  -0.410  0.00  0.00    +0.000 A 
ATOM     20  C   UNL     1       0.460   0.821   0.080  0.00  0.00    +0.000 A 
ATOM     21  C   UNL     1       1.357   0.072   0.817  0.00  0.00    +0.004 A 
ATOM     22  C   UNL     1       2.627   0.560   1.064  0.00  0.00    -0.039 A 
ATOM     23  C   UNL     1       2.998   1.798   0.573  0.00  0.00    +0.004 A 
ATOM     24  C   UNL     1       2.100   2.548  -0.163  0.00  0.00    +0.000 A 
ENDBRANCH  18  22
ENDBRANCH   1  18
BRANCH   3  25
ATOM     25  C   UNL     1       5.656  -1.939   2.873  0.00  0.00    +0.204 C 
BRANCH  25  26
ATOM     26  C   UNL     1       4.858  -3.061   3.486  0.00  0.00    +0.235 C 
ATOM     27  O   UNL     1       4.151  -3.754   2.787  0.00  0.00    -0.274 OA
ATOM     28  N   UNL     1       4.930  -3.293   4.812  0.00  0.00    -0.284 N 
ATOM     29  H   UNL     1       5.549  -2.785   5.360  0.00  0.00    +0.155 HD
BRANCH  28  30
ATOM     30  C   UNL     1       4.120  -4.257   5.392  0.00  0.00    +0.034 C 
ATOM     31  C   UNL     1       4.682  -5.292   6.109  0.00  0.00    +0.029 C 
ATOM     32  C   UNL     1       3.774  -6.236   6.600  0.00  0.00    -0.016 C 
ATOM     33  C   UNL     1       3.774  -7.024   7.694  0.00  0.00    +0.025 C 
ATOM     34  C   UNL     1       2.492  -7.581   7.869  0.00  0.00    +0.106 C 
ATOM     35  N   UNL     1       1.684  -7.273   6.892  0.00  0.00    -0.279 NA
ATOM     36  C   UNL     1       2.451  -6.523   5.908  0.00  0.00    +0.158 C 
ATOM     37  C   UNL     1       1.854  -5.209   5.503  0.00  0.00    +0.006 C 
ATOM     38  C   UNL     1       2.663  -4.175   5.251  0.00  0.00    +0.021 C 
ENDBRANCH  28  30
ENDBRANCH  25  26
ENDBRANCH   3  25
TORSDOF 8
