REMARK  Name = ZINC03021330
REMARK  10 active torsions:
REMARK  status: ('A' for Active; 'I' for Inactive)
REMARK    1  A    between atoms: C_1  and  C_2
REMARK    2  A    between atoms: C_5  and  C_8
REMARK    3  A    between atoms: C_8  and  N_9
REMARK    4  A    between atoms: C_10  and  C_12
REMARK    5  A    between atoms: C_14  and  S_26
REMARK    6  A    between atoms: C_17  and  S_18
REMARK    7  A    between atoms: S_18  and  C_19
REMARK    8  A    between atoms: S_26  and  N_29
REMARK    9  A    between atoms: C_31  and  C_38
REMARK   10  A    between atoms: C_34  and  C_37
REMARK                            x       y       z     vdW  Elec       q    Type
REMARK                         _______ _______ _______ _____ _____    ______ ____
ROOT
ATOM      1  C   UNL     1      -3.050   2.918   5.613  0.00  0.00    +0.052 A 
ATOM      2  C   UNL     1      -2.545   1.985   4.703  0.00  0.00    +0.042 A 
ATOM      3  C   UNL     1      -1.250   1.534   4.830  0.00  0.00    +0.106 A 
ATOM      4  C   UNL     1      -0.444   1.995   5.859  0.00  0.00    +0.029 A 
ATOM      5  C   UNL     1      -0.925   2.920   6.762  0.00  0.00    +0.018 A 
ATOM      6  C   UNL     1      -2.229   3.388   6.651  0.00  0.00    +0.025 A 
ENDROOT
BRANCH   1   8
ATOM      7  N   UNL     1      -5.218   2.952   4.484  0.00  0.00    -0.307 N 
ATOM      8  C   UNL     1      -4.435   3.406   5.483  0.00  0.00    +0.245 C 
ATOM      9  O   UNL     1      -4.870   4.218   6.277  0.00  0.00    -0.270 OA
ATOM     10  H   UNL     1      -4.871   2.305   3.851  0.00  0.00    +0.149 HD
BRANCH   7  11
ATOM     11  C   UNL     1      -6.594   3.437   4.355  0.00  0.00    +0.139 C 
BRANCH  11  16
ATOM     12  C   UNL     1      -9.107   0.916  -0.198  0.00  0.00    +0.044 C 
ATOM     13  C   UNL     1      -8.452   1.574   0.990  0.00  0.00    -0.050 A 
ATOM     14  C   UNL     1      -8.530   0.984   2.237  0.00  0.00    +0.003 A 
ATOM     15  C   UNL     1      -7.930   1.587   3.327  0.00  0.00    +0.005 A 
ATOM     16  C   UNL     1      -7.249   2.780   3.168  0.00  0.00    -0.030 A 
ATOM     17  C   UNL     1      -7.175   3.372   1.921  0.00  0.00    +0.005 A 
ATOM     18  C   UNL     1      -7.772   2.767   0.831  0.00  0.00    +0.003 A 
ENDBRANCH  11  16
ENDBRANCH   7  11
ENDBRANCH   1   8
BRANCH   3  19
ATOM     19  S   UNL     1      -0.616   0.357   3.681  0.00  0.00    +0.061 S 
ATOM     20  O   UNL     1      -1.737  -0.330   3.143  0.00  0.00    -0.153 OA
ATOM     21  O   UNL     1       0.449  -0.318   4.337  0.00  0.00    -0.153 OA
BRANCH  19  22
ATOM     22  N   UNL     1       0.062   1.208   2.433  0.00  0.00    -0.176 NA
ATOM     23  C   UNL     1       1.478   1.599   2.474  0.00  0.00    +0.112 C 
ATOM     24  C   UNL     1       2.163   1.107   1.195  0.00  0.00    +0.002 C 
ATOM     25  C   UNL     1       1.401   1.635  -0.022  0.00  0.00    +0.009 C 
ATOM     26  C   UNL     1      -0.031   1.096  -0.003  0.00  0.00    +0.002 C 
ATOM     27  C   UNL     1      -0.741   1.587   1.262  0.00  0.00    +0.112 C 
ATOM     28  C   UNL     1      -0.782   1.597  -1.238  0.00  0.00    +0.009 C 
ATOM     29  C   UNL     1       3.604   1.621   1.158  0.00  0.00    +0.009 C 
ENDBRANCH  19  22
ENDBRANCH   3  19
BRANCH   6  30
ATOM     30  S   UNL     1      -2.850   4.564   7.807  0.00  0.00    -0.089 S 
BRANCH  30  31
ATOM     31  C   UNL     1      -1.553   4.726   8.988  0.00  0.00    +0.013 A 
ATOM     32  C   UNL     1      -1.466   3.838  10.053  0.00  0.00    +0.018 A 
ATOM     33  C   UNL     1      -0.444   3.963  10.973  0.00  0.00    +0.039 A 
ATOM     34  C   UNL     1       0.486   4.981  10.844  0.00  0.00    +0.123 A 
ATOM     35  C   UNL     1       0.398   5.872   9.787  0.00  0.00    +0.039 A 
ATOM     36  C   UNL     1      -0.618   5.747   8.860  0.00  0.00    +0.018 A 
ATOM     37  F   UNL     1       1.481   5.106  11.749  0.00  0.00    -0.205 F 
ENDBRANCH  30  31
ENDBRANCH   6  30
TORSDOF 7
