REMARK  Name = ZINC13065223
REMARK  14 active torsions:
REMARK  status: ('A' for Active; 'I' for Inactive)
REMARK    1  A    between atoms: C_1  and  C_2
REMARK    2  A    between atoms: C_2  and  C_3
REMARK    3  A    between atoms: C_3  and  C_5
REMARK    4  A    between atoms: C_3  and  N_74
REMARK    5  A    between atoms: N_9  and  C_10
REMARK    6  A    between atoms: C_10  and  C_11
REMARK    7  A    between atoms: C_17  and  C_18
REMARK    8  A    between atoms: C_17  and  N_74
REMARK    9  A    between atoms: C_23  and  O_24
REMARK   10  A    between atoms: O_24  and  C_25
REMARK   11  A    between atoms: C_26  and  C_27
REMARK   12  A    between atoms: C_26  and  N_74
REMARK   13  A    between atoms: C_30  and  C_40
REMARK   14  A    between atoms: C_33  and  C_39
REMARK                            x       y       z     vdW  Elec       q    Type
REMARK                         _______ _______ _______ _____ _____    ______ ____
ROOT
ATOM      1  N   UNL     1      -0.657   3.206   0.819  0.00  0.00    +0.392 N 
ATOM      2  H   UNL     1      -0.037   3.932   0.443  0.00  0.00    -0.080 HD
ENDROOT
BRANCH   1   3
ATOM      3  C   UNL     1      -0.115   1.879   0.463  0.00  0.00    +0.003 C 
BRANCH   3   4
ATOM      4  C   UNL     1       1.360   1.859   0.773  0.00  0.00    +0.138 A 
ATOM      5  N   UNL     1       2.230   2.799   0.497  0.00  0.00    -0.115 NA
ATOM      6  N   UNL     1       3.383   2.412   0.921  0.00  0.00    -0.023 NA
ATOM      7  N   UNL     1       3.273   1.245   1.454  0.00  0.00    -0.044 NA
ATOM      8  N   UNL     1       2.040   0.870   1.382  0.00  0.00    -0.228 N 
BRANCH   8   9
ATOM      9  C   UNL     1       1.485  -0.395   1.871  0.00  0.00    +0.178 C 
BRANCH   9  10
ATOM     10  C   UNL     1       1.552  -1.445   0.760  0.00  0.00    +0.140 C 
ATOM     11  C   UNL     1       0.866  -2.746   1.228  0.00  0.00    +0.035 C 
ATOM     12  C   UNL     1       1.797  -3.840   0.639  0.00  0.00    +0.031 C 
ATOM     13  C   UNL     1       3.176  -3.143   0.749  0.00  0.00    +0.160 C 
ATOM     14  O   UNL     1       2.919  -1.757   0.469  0.00  0.00    -0.375 OA
ENDBRANCH   9  10
ENDBRANCH   8   9
ENDBRANCH   3   4
BRANCH   3  16
ATOM     15  C   UNL     1       0.454   2.680  -1.834  0.00  0.00    +0.002 C 
ATOM     16  C   UNL     1      -0.325   1.635  -1.033  0.00  0.00    -0.011 C 
ENDBRANCH   3  16
ENDBRANCH   1   3
BRANCH   1  17
ATOM     17  C   UNL     1      -0.724   3.347   2.289  0.00  0.00    -0.038 C 
BRANCH  17  18
ATOM     18  C   UNL     1       0.657   3.656   2.808  0.00  0.00    -0.022 A 
ATOM     19  C   UNL     1       1.351   2.707   3.533  0.00  0.00    +0.005 A 
ATOM     20  C   UNL     1       2.618   2.989   4.008  0.00  0.00    +0.000 A 
ATOM     21  C   UNL     1       3.194   4.221   3.759  0.00  0.00    +0.004 A 
ATOM     22  C   UNL     1       2.503   5.174   3.035  0.00  0.00    +0.046 A 
ATOM     23  C   UNL     1       1.234   4.891   2.553  0.00  0.00    +0.121 A 
BRANCH  23  24
ATOM     24  O   UNL     1       0.555   5.824   1.835  0.00  0.00    -0.495 OA
ATOM     25  C   UNL     1       1.250   7.033   1.520  0.00  0.00    +0.277 C 
ENDBRANCH  23  24
ENDBRANCH  17  18
ENDBRANCH   1  17
BRANCH   1  26
ATOM     26  C   UNL     1      -2.004   3.375   0.234  0.00  0.00    -0.036 C 
BRANCH  26  27
ATOM     27  C   UNL     1      -2.487   4.774   0.517  0.00  0.00    +0.001 A 
ATOM     28  C   UNL     1      -2.271   5.760  -0.389  0.00  0.00    +0.017 A 
ATOM     29  C   UNL     1      -2.752   7.108  -0.084  0.00  0.00    +0.002 A 
ATOM     30  C   UNL     1      -2.559   8.166  -0.979  0.00  0.00    -0.041 A 
ATOM     31  C   UNL     1      -3.021   9.412  -0.664  0.00  0.00    +0.004 A 
ATOM     32  C   UNL     1      -3.681   9.639   0.536  0.00  0.00    +0.005 A 
ATOM     33  C   UNL     1      -3.883   8.613   1.433  0.00  0.00    -0.026 A 
ATOM     34  C   UNL     1      -3.421   7.335   1.134  0.00  0.00    +0.052 A 
ATOM     35  N   UNL     1      -3.609   6.289   2.013  0.00  0.00    -0.322 N 
ATOM     36  H   UNL     1      -4.070   6.447   2.852  0.00  0.00    +0.169 HD
ATOM     37  C   UNL     1      -3.168   5.053   1.721  0.00  0.00    +0.251 A 
ATOM     38  O   UNL     1      -3.357   4.151   2.520  0.00  0.00    -0.268 OA
ATOM     39  C   UNL     1      -4.601   8.873   2.731  0.00  0.00    +0.046 C 
ATOM     40  C   UNL     1      -1.845   7.931  -2.285  0.00  0.00    +0.044 C 
ENDBRANCH  26  27
ENDBRANCH   1  26
TORSDOF 10
