REMARK  Name = ZINC36302500
REMARK  19 active torsions:
REMARK  status: ('A' for Active; 'I' for Inactive)
REMARK    1  A    between atoms: C_1  and  C_2
REMARK    2  A    between atoms: C_3  and  C_22
REMARK    3  A    between atoms: C_4  and  O_13
REMARK    4  A    between atoms: N_5  and  C_7
REMARK    5  A    between atoms: O_13  and  C_14
REMARK    6  A    between atoms: C_17  and  O_20
REMARK    7  A    between atoms: O_20  and  C_21
REMARK    8  A    between atoms: C_22  and  N_23
REMARK    9  A    between atoms: N_23  and  C_24
REMARK   10  A    between atoms: N_23  and  C_30
REMARK   11  A    between atoms: C_24  and  C_25
REMARK   12  A    between atoms: C_30  and  C_31
REMARK   13  A    between atoms: C_31  and  C_33
REMARK   14  A    between atoms: C_31  and  O_39
REMARK   15  A    between atoms: C_33  and  O_34
REMARK   16  A    between atoms: O_34  and  C_35
REMARK   17  A    between atoms: C_35  and  C_36
REMARK   18  A    between atoms: C_36  and  C_37
REMARK   19  A    between atoms: C_36  and  C_38
REMARK                            x       y       z     vdW  Elec       q    Type
REMARK                         _______ _______ _______ _____ _____    ______ ____
ROOT
ATOM      1  C   UNL     1       0.836   1.339   0.004  0.00  0.00    +0.068 C 
ATOM      2  C   UNL     1       0.503  -0.130   0.019  0.00  0.00    +0.065 A 
ATOM      3  C   UNL     1       0.060  -0.879  -1.075  0.00  0.00    +0.021 A 
ATOM      4  C   UNL     1      -0.130  -2.159  -0.656  0.00  0.00    +0.225 A 
ATOM      5  N   UNL     1       0.186  -2.207   0.666  0.00  0.00    -0.200 N 
ATOM      6  N   UNL     1       0.584  -0.922   1.058  0.00  0.00    -0.168 NA
ENDROOT
BRANCH   5   7
ATOM      7  C   UNL     1       0.129  -3.341   1.488  0.00  0.00    +0.069 A 
ATOM      8  C   UNL     1      -0.957  -4.203   1.409  0.00  0.00    +0.028 A 
ATOM      9  C   UNL     1      -1.010  -5.320   2.220  0.00  0.00    +0.002 A 
ATOM     10  C   UNL     1       0.016  -5.579   3.110  0.00  0.00    +0.000 A 
ATOM     11  C   UNL     1       1.098  -4.722   3.191  0.00  0.00    +0.002 A 
ATOM     12  C   UNL     1       1.160  -3.607   2.378  0.00  0.00    +0.028 A 
ENDBRANCH   5   7
BRANCH   4  13
ATOM     13  O   UNL     1      -0.557  -3.198  -1.418  0.00  0.00    -0.438 OA
BRANCH  13  14
ATOM     14  C   UNL     1      -1.897  -3.384  -1.550  0.00  0.00    +0.131 A 
ATOM     15  C   UNL     1      -2.782  -2.463  -1.006  0.00  0.00    +0.050 A 
ATOM     16  C   UNL     1      -4.144  -2.652  -1.141  0.00  0.00    +0.049 A 
ATOM     17  C   UNL     1      -4.627  -3.761  -1.819  0.00  0.00    +0.120 A 
ATOM     18  C   UNL     1      -3.742  -4.682  -2.362  0.00  0.00    +0.049 A 
ATOM     19  C   UNL     1      -2.381  -4.490  -2.233  0.00  0.00    +0.050 A 
BRANCH  17  20
ATOM     20  O   UNL     1      -5.967  -3.947  -1.950  0.00  0.00    -0.495 OA
ATOM     21  C   UNL     1      -6.394  -5.112  -2.660  0.00  0.00    +0.277 C 
ENDBRANCH  17  20
ENDBRANCH  13  14
ENDBRANCH   4  13
BRANCH   3  22
ATOM     22  C   UNL     1      -0.167  -0.360  -2.471  0.00  0.00    -0.035 C 
BRANCH  22  23
ATOM     23  N   UNL     1       1.108  -0.343  -3.201  0.00  0.00    +0.389 N 
ATOM     24  H   UNL     1       1.791   0.179  -2.673  0.00  0.00    -0.081 HD
BRANCH  23  25
ATOM     25  C   UNL     1       0.913   0.291  -4.512  0.00  0.00    -0.003 C 
BRANCH  25  26
ATOM     26  C   UNL     1       0.557   1.742  -4.320  0.00  0.00    +0.089 A 
ATOM     27  C   UNL     1       1.425   2.770  -4.307  0.00  0.00    +0.042 A 
ATOM     28  C   UNL     1       0.666   3.945  -4.100  0.00  0.00    +0.041 A 
ATOM     29  C   UNL     1      -0.621   3.564  -3.998  0.00  0.00    +0.195 A 
ATOM     30  O   UNL     1      -0.681   2.230  -4.138  0.00  0.00    -0.470 OA
ENDBRANCH  25  26
ENDBRANCH  23  25
BRANCH  23  31
ATOM     31  C   UNL     1       1.582  -1.721  -3.389  0.00  0.00    -0.044 C 
BRANCH  31  32
ATOM     32  C   UNL     1       2.968  -1.699  -4.038  0.00  0.00    +0.124 C 
BRANCH  32  33
ATOM     33  O   UNL     1       3.903  -1.096  -3.142  0.00  0.00    -0.391 OA
ATOM     34  H   UNL     1       3.991  -1.556  -2.296  0.00  0.00    +0.210 HD
ENDBRANCH  32  33
BRANCH  32  35
ATOM     35  C   UNL     1       3.408  -3.131  -4.348  0.00  0.00    +0.189 C 
BRANCH  35  36
ATOM     36  O   UNL     1       4.648  -3.105  -5.058  0.00  0.00    -0.377 OA
BRANCH  36  37
ATOM     37  C   UNL     1       5.151  -4.398  -5.397  0.00  0.00    +0.163 C 
BRANCH  37  38
ATOM     38  C   UNL     1       6.475  -4.250  -6.150  0.00  0.00    +0.009 C 
ATOM     39  C   UNL     1       7.075  -5.634  -6.405  0.00  0.00    +0.009 C 
ATOM     40  C   UNL     1       6.225  -3.549  -7.487  0.00  0.00    +0.009 C 
ENDBRANCH  37  38
ENDBRANCH  36  37
ENDBRANCH  35  36
ENDBRANCH  32  35
ENDBRANCH  31  32
ENDBRANCH  23  31
ENDBRANCH  22  23
ENDBRANCH   3  22
TORSDOF 15
