REMARK  Name = ZINC16035465
REMARK  9 active torsions:
REMARK  status: ('A' for Active; 'I' for Inactive)
REMARK    1  A    between atoms: C_1  and  C_2
REMARK    2  A    between atoms: C_2  and  O_3
REMARK    3  A    between atoms: O_3  and  C_4
REMARK    4  A    between atoms: C_9  and  N_10
REMARK    5  A    between atoms: N_12  and  C_32
REMARK    6  A    between atoms: C_15  and  C_18
REMARK    7  A    between atoms: C_18  and  C_19
REMARK    8  A    between atoms: N_21  and  C_22
REMARK    9  A    between atoms: C_24  and  N_29
REMARK                            x       y       z     vdW  Elec       q    Type
REMARK                         _______ _______ _______ _____ _____    ______ ____
ROOT
ATOM      1  N   UNL     1      -6.920  -5.088   2.525  0.00  0.00    -0.222 NA
ATOM      2  C   UNL     1      -6.723  -4.251   1.534  0.00  0.00    +0.164 C 
ATOM      3  N   UNL     1      -7.495  -4.071   0.405  0.00  0.00    -0.247 N 
ATOM      4  C   UNL     1      -7.187  -3.186  -0.528  0.00  0.00    +0.235 C 
ATOM      5  O   UNL     1      -7.869  -3.031  -1.519  0.00  0.00    -0.274 OA
ATOM      6  C   UNL     1      -5.925  -2.376  -0.281  0.00  0.00    +0.149 C 
ATOM      7  S   UNL     1      -5.392  -3.076   1.331  0.00  0.00    -0.077 S 
ENDROOT
BRANCH   1  13
ATOM      8  C   UNL     1      -6.636  -5.099   4.910  0.00  0.00    +0.146 A 
ATOM      9  C   UNL     1      -5.795  -5.078   6.008  0.00  0.00    +0.048 A 
ATOM     10  C   UNL     1      -4.425  -5.007   5.832  0.00  0.00    +0.004 A 
ATOM     11  C   UNL     1      -3.886  -4.963   4.559  0.00  0.00    +0.002 A 
ATOM     12  C   UNL     1      -4.712  -4.989   3.453  0.00  0.00    +0.031 A 
ATOM     13  C   UNL     1      -6.095  -5.061   3.619  0.00  0.00    +0.108 A 
BRANCH   8  14
ATOM     14  O   UNL     1      -7.984  -5.163   5.083  0.00  0.00    -0.490 OA
BRANCH  14  16
ATOM     15  C   UNL     1      -9.992  -5.269   6.422  0.00  0.00    +0.048 C 
ATOM     16  C   UNL     1      -8.464  -5.199   6.428  0.00  0.00    +0.226 C 
ENDBRANCH  14  16
ENDBRANCH   8  14
ENDBRANCH   1  13
BRANCH   3  17
ATOM     17  C   UNL     1      -8.698  -4.888   0.234  0.00  0.00    +0.083 C 
ATOM     18  C   UNL     1      -9.650  -4.683   1.430  0.00  0.00    +0.023 C 
ATOM     19  C   UNL     1     -10.260  -6.087   1.675  0.00  0.00    +0.002 C 
ATOM     20  C   UNL     1      -9.062  -7.032   1.407  0.00  0.00    +0.002 C 
ATOM     21  C   UNL     1      -8.324  -6.380   0.219  0.00  0.00    +0.023 C 
ENDBRANCH   3  17
BRANCH   6  22
ATOM     22  C   UNL     1      -6.239  -0.883  -0.160  0.00  0.00    +0.120 C 
BRANCH  22  23
ATOM     23  C   UNL     1      -4.953  -0.107  -0.040  0.00  0.00    +0.219 C 
ATOM     24  O   UNL     1      -3.889  -0.690  -0.050  0.00  0.00    -0.275 OA
ATOM     25  N   UNL     1      -4.984   1.235   0.079  0.00  0.00    -0.284 N 
ATOM     26  H   UNL     1      -5.834   1.694   0.172  0.00  0.00    +0.155 HD
BRANCH  25  27
ATOM     27  C   UNL     1      -3.791   1.967   0.069  0.00  0.00    +0.054 A 
ATOM     28  C   UNL     1      -2.662   1.448  -0.551  0.00  0.00    +0.057 A 
ATOM     29  C   UNL     1      -1.486   2.173  -0.560  0.00  0.00    +0.128 A 
ATOM     30  C   UNL     1      -1.431   3.411   0.053  0.00  0.00    +0.034 A 
ATOM     31  C   UNL     1      -2.554   3.933   0.668  0.00  0.00    +0.024 A 
ATOM     32  C   UNL     1      -3.734   3.213   0.680  0.00  0.00    +0.062 A 
ATOM     33 CL   UNL     1      -5.142   3.866   1.458  0.00  0.00    -0.082 Cl
BRANCH  29  34
ATOM     34  N   UNL     1      -0.283   1.621  -1.221  0.00  0.00    +0.056 N 
ATOM     35  O   UNL     1      -0.330   0.528  -1.756  0.00  0.00    -0.126 OA
ATOM     36  O   UNL     1       0.753   2.261  -1.233  0.00  0.00    -0.126 OA
ENDBRANCH  29  34
ENDBRANCH  25  27
ENDBRANCH  22  23
ENDBRANCH   6  22
TORSDOF 8
