REMARK  Name = ZINC40110556
REMARK  10 active torsions:
REMARK  status: ('A' for Active; 'I' for Inactive)
REMARK    1  A    between atoms: C_1  and  N_2
REMARK    2  A    between atoms: N_2  and  C_3
REMARK    3  A    between atoms: N_2  and  S_4
REMARK    4  A    between atoms: S_4  and  C_7
REMARK    5  A    between atoms: C_10  and  C_13
REMARK    6  A    between atoms: C_13  and  C_15
REMARK    7  A    between atoms: N_19  and  C_30
REMARK    8  A    between atoms: C_20  and  C_22
REMARK    9  A    between atoms: C_30  and  C_31
REMARK   10  A    between atoms: C_31  and  O_32
REMARK                            x       y       z     vdW  Elec       q    Type
REMARK                         _______ _______ _______ _____ _____    ______ ____
ROOT
ATOM      1  C   UNL     1       6.570  -2.788  -2.622  0.00  0.00    +0.076 C 
ATOM      2  C   UNL     1       7.884  -3.003  -2.865  0.00  0.00    +0.249 C 
ATOM      3  C   UNL     1       8.293  -4.274  -2.230  0.00  0.00    +0.288 C 
ATOM      4  O   UNL     1       9.412  -4.744  -2.267  0.00  0.00    -0.266 OA
ATOM      5  N   UNL     1       7.241  -4.833  -1.603  0.00  0.00    -0.281 N 
ATOM      6  C   UNL     1       6.083  -3.951  -1.790  0.00  0.00    +0.145 C 
ATOM      7  O   UNL     1       8.694  -2.186  -3.576  0.00  0.00    -0.282 OA
ENDROOT
BRANCH   6   8
ATOM      8  C   UNL     1       4.988  -4.686  -2.518  0.00  0.00    -0.021 A 
ATOM      9  C   UNL     1       5.308  -5.628  -3.479  0.00  0.00    +0.007 A 
ATOM     10  C   UNL     1       4.304  -6.303  -4.148  0.00  0.00    +0.022 A 
ATOM     11  C   UNL     1       2.978  -6.037  -3.856  0.00  0.00    +0.059 A 
ATOM     12  C   UNL     1       2.658  -5.094  -2.893  0.00  0.00    +0.060 A 
ATOM     13  C   UNL     1       3.664  -4.423  -2.221  0.00  0.00    +0.027 A 
ATOM     14 CL   UNL     1       0.995  -4.759  -2.526  0.00  0.00    -0.082 Cl
ATOM     15 CL   UNL     1       1.717  -6.883  -4.696  0.00  0.00    -0.082 Cl
ENDBRANCH   6   8
BRANCH   1  16
ATOM     16  C   UNL     1       5.774  -1.643  -3.074  0.00  0.00    +0.195 C 
ATOM     17  O   UNL     1       5.547  -1.490  -4.259  0.00  0.00    -0.287 OA
BRANCH  16  21
ATOM     18  C   UNL     1       4.260   1.141  -0.244  0.00  0.00    +0.105 A 
ATOM     19  C   UNL     1       4.069   1.361  -1.597  0.00  0.00    +0.029 A 
ATOM     20  C   UNL     1       4.558   0.461  -2.521  0.00  0.00    +0.013 A 
ATOM     21  C   UNL     1       5.247  -0.673  -2.089  0.00  0.00    +0.022 A 
ATOM     22  C   UNL     1       5.437  -0.889  -0.722  0.00  0.00    +0.013 A 
ATOM     23  C   UNL     1       4.948   0.021   0.191  0.00  0.00    +0.029 A 
BRANCH  18  24
ATOM     24  S   UNL     1       3.632   2.296   0.929  0.00  0.00    +0.060 S 
ATOM     25  O   UNL     1       3.473   1.587   2.151  0.00  0.00    -0.153 OA
ATOM     26  O   UNL     1       2.556   2.974   0.296  0.00  0.00    -0.153 OA
BRANCH  24  28
ATOM     27  C   UNL     1       4.873   4.630   0.357  0.00  0.00    +0.131 C 
ATOM     28  N   UNL     1       4.816   3.424   1.188  0.00  0.00    -0.183 NA
ATOM     29  C   UNL     1       5.807   3.217   2.247  0.00  0.00    +0.131 C 
ENDBRANCH  24  28
ENDBRANCH  18  24
ENDBRANCH  16  21
ENDBRANCH   1  16
BRANCH   5  30
ATOM     30  C   UNL     1       7.252  -6.096  -0.861  0.00  0.00    +0.137 C 
BRANCH  30  31
ATOM     31  C   UNL     1       7.595  -5.823   0.605  0.00  0.00    +0.175 C 
BRANCH  31  32
ATOM     32  O   UNL     1       6.556  -5.043   1.200  0.00  0.00    -0.393 OA
ATOM     33  H   UNL     1       6.707  -4.832   2.132  0.00  0.00    +0.209 HD
ENDBRANCH  31  32
ENDBRANCH  30  31
ENDBRANCH   5  30
TORSDOF 8
