REMARK  Name = ZINC00550849
REMARK  7 active torsions:
REMARK  status: ('A' for Active; 'I' for Inactive)
REMARK    1  A    between atoms: C_1  and  C_2
REMARK    2  A    between atoms: C_2  and  C_3
REMARK    3  A    between atoms: C_2  and  C_4
REMARK    4  A    between atoms: C_2  and  C_5
REMARK    5  A    between atoms: C_12  and  N_25
REMARK    6  A    between atoms: C_13  and  C_23
REMARK    7  A    between atoms: C_14  and  C_16
REMARK                            x       y       z     vdW  Elec       q    Type
REMARK                         _______ _______ _______ _____ _____    ______ ____
ROOT
ATOM      1  C   UNL     1       0.906  -0.410  -0.889  0.00  0.00    +0.076 A 
ATOM      2  C   UNL     1       1.333  -1.664  -1.306  0.00  0.00    +0.046 A 
ATOM      3  C   UNL     1       2.182  -1.492  -2.364  0.00  0.00    +0.222 A 
ATOM      4  N   UNL     1       2.277  -0.173  -2.598  0.00  0.00    -0.246 N 
ATOM      5  H   UNL     1       2.809   0.247  -3.291  0.00  0.00    +0.192 HD
ATOM      6  N   UNL     1       1.465   0.489  -1.664  0.00  0.00    -0.175 NA
ATOM      7  O   UNL     1       2.777  -2.531  -3.002  0.00  0.00    -0.423 OA
ATOM      8  C   UNL     1       2.735  -3.738  -2.402  0.00  0.00    +0.200 C 
ATOM      9  C   UNL     1       1.929  -4.032  -1.358  0.00  0.00    +0.094 C 
ATOM     10  C   UNL     1       0.982  -3.023  -0.757  0.00  0.00    +0.078 C 
ENDROOT
BRANCH  10  11
ATOM     11  C   UNL     1      -0.457  -3.376  -1.136  0.00  0.00    +0.024 C 
ATOM     12  C   UNL     1      -0.565  -3.504  -2.657  0.00  0.00    +0.009 C 
ATOM     13  C   UNL     1      -1.934  -4.107  -2.998  0.00  0.00    +0.005 C 
ATOM     14  C   UNL     1      -1.964  -5.553  -2.496  0.00  0.00    +0.027 C 
ATOM     15  C   UNL     1      -1.500  -5.615  -1.070  0.00  0.00    -0.031 C 
ATOM     16  C   UNL     1      -0.840  -4.672  -0.483  0.00  0.00    -0.027 C 
ENDBRANCH  10  11
BRANCH   1  18
ATOM     17  C   UNL     1      -1.469  -0.035  -0.284  0.00  0.00    +0.017 C 
ATOM     18  C   UNL     1      -0.039  -0.132   0.251  0.00  0.00    +0.007 C 
ATOM     19  C   UNL     1       0.345   1.189   0.921  0.00  0.00    +0.017 C 
ATOM     20  C   UNL     1       0.048  -1.266   1.274  0.00  0.00    +0.017 C 
ENDBRANCH   1  18
BRANCH   8  21
ATOM     21  N   UNL     1       3.559  -4.726  -2.881  0.00  0.00    -0.328 N 
ATOM     22  H   UNL     1       4.149  -4.545  -3.630  0.00  0.00    +0.145 HD
ATOM     23  H   UNL     1       3.552  -5.605  -2.470  0.00  0.00    +0.145 HD
ENDBRANCH   8  21
BRANCH   9  24
ATOM     24  C   UNL     1       1.976  -5.350  -0.801  0.00  0.00    +0.100 C 
ATOM     25  N   UNL     1       2.013  -6.396  -0.359  0.00  0.00    -0.191 NA
ENDBRANCH   9  24
TORSDOF 4
