REMARK  Name = ZINC38905312
REMARK  10 active torsions:
REMARK  status: ('A' for Active; 'I' for Inactive)
REMARK    1  A    between atoms: C_1  and  C_2
REMARK    2  A    between atoms: C_2  and  O_3
REMARK    3  A    between atoms: O_3  and  C_4
REMARK    4  A    between atoms: C_4  and  C_5
REMARK    5  A    between atoms: C_5  and  C_6
REMARK    6  A    between atoms: C_6  and  N_7
REMARK    7  A    between atoms: C_8  and  C_10
REMARK    8  A    between atoms: N_15  and  C_17
REMARK    9  A    between atoms: C_17  and  C_18
REMARK   10  A    between atoms: C_20  and  C_23
REMARK                            x       y       z     vdW  Elec       q    Type
REMARK                         _______ _______ _______ _____ _____    ______ ____
ROOT
ATOM      1  C   UNL     1      -6.198  -5.977   0.029  0.00  0.00    +0.058 C 
ATOM      2  C   UNL     1      -6.873  -5.430   1.290  0.00  0.00    +0.009 C 
ATOM      3  C   UNL     1      -8.325  -5.915   1.331  0.00  0.00    -0.018 C 
ATOM      4  C   UNL     1      -8.347  -7.445   1.279  0.00  0.00    -0.078 C 
ATOM      5  N   UNL     1      -7.711  -7.905   0.039  0.00  0.00    +0.386 N 
ATOM      6  C   UNL     1      -6.299  -7.504   0.024  0.00  0.00    -0.065 C 
ATOM      7  H   UNL     1      -8.184  -7.495  -0.752  0.00  0.00    -0.081 HD
ENDROOT
BRANCH   1   9
ATOM      8  N   UNL     1      -4.415  -4.263   0.021  0.00  0.00    -0.315 N 
ATOM      9  C   UNL     1      -4.747  -5.569   0.018  0.00  0.00    +0.214 C 
ATOM     10  O   UNL     1      -3.879  -6.416   0.005  0.00  0.00    -0.276 OA
ATOM     11  H   UNL     1      -5.109  -3.586   0.032  0.00  0.00    +0.149 HD
BRANCH   8  12
ATOM     12  C   UNL     1      -3.005  -3.866   0.010  0.00  0.00    +0.106 C 
BRANCH  12  13
ATOM     13  C   UNL     1      -2.905  -2.339   0.017  0.00  0.00    +0.047 C 
BRANCH  13  14
ATOM     14  C   UNL     1      -1.432  -1.925   0.005  0.00  0.00    +0.161 C 
BRANCH  14  15
ATOM     15  O   UNL     1      -1.339  -0.499   0.012  0.00  0.00    -0.380 OA
BRANCH  15  17
ATOM     16  C   UNL     1      -0.019   1.526   0.010  0.00  0.00    +0.034 C 
ATOM     17  C   UNL     1       0.002  -0.004   0.002  0.00  0.00    +0.156 C 
ENDBRANCH  15  17
ENDBRANCH  14  15
ENDBRANCH  13  14
ENDBRANCH  12  13
ENDBRANCH   8  12
ENDBRANCH   1   9
BRANCH   5  18
ATOM     18  C   UNL     1      -7.804  -9.368  -0.043  0.00  0.00    +0.022 C 
BRANCH  18  19
ATOM     19  C   UNL     1      -9.251  -9.774  -0.162  0.00  0.00    +0.211 A 
ATOM     20  N   UNL     1      -9.909  -9.929  -1.276  0.00  0.00    -0.193 NA
ATOM     21  C   UNL     1     -11.176 -10.295  -1.014  0.00  0.00    +0.202 A 
ATOM     22  N   UNL     1     -11.330 -10.375   0.284  0.00  0.00    -0.056 NA
ATOM     23  O   UNL     1     -10.075 -10.041   0.859  0.00  0.00    -0.340 OA
BRANCH  21  24
ATOM     24  C   UNL     1     -12.226 -10.563  -2.028  0.00  0.00    +0.023 A 
ATOM     25  C   UNL     1     -11.933 -10.448  -3.386  0.00  0.00    +0.013 A 
ATOM     26  C   UNL     1     -12.913 -10.698  -4.324  0.00  0.00    +0.016 A 
ATOM     27  C   UNL     1     -14.185 -11.063  -3.920  0.00  0.00    +0.018 A 
ATOM     28  C   UNL     1     -14.482 -11.179  -2.573  0.00  0.00    +0.016 A 
ATOM     29  C   UNL     1     -13.507 -10.937  -1.626  0.00  0.00    +0.013 A 
ATOM     30 BR   UNL     1     -15.524 -11.405  -5.212  0.00  0.00    -0.050 Br
ENDBRANCH  21  24
ENDBRANCH  18  19
ENDBRANCH   5  18
TORSDOF 9
