REMARK  Name = ZINC04762449
REMARK  11 active torsions:
REMARK  status: ('A' for Active; 'I' for Inactive)
REMARK    1  A    between atoms: C_1  and  C_2
REMARK    2  A    between atoms: C_5  and  C_11
REMARK    3  A    between atoms: C_7  and  N_8
REMARK    4  A    between atoms: C_16  and  C_26
REMARK    5  A    between atoms: C_18  and  C_22
REMARK    6  A    between atoms: C_22  and  O_24
REMARK    7  A    between atoms: O_24  and  C_25
REMARK    8  A    between atoms: C_28  and  C_39
REMARK    9  A    between atoms: C_29  and  C_30
REMARK   10  A    between atoms: C_30  and  O_32
REMARK   11  A    between atoms: O_32  and  C_33
REMARK                            x       y       z     vdW  Elec       q    Type
REMARK                         _______ _______ _______ _____ _____    ______ ____
ROOT
ATOM      1  C   UNL     1       0.578  -4.220  -0.099  0.00  0.00    +0.092 C 
ATOM      2  C   UNL     1      -0.658  -4.952  -0.557  0.00  0.00    +0.025 C 
ATOM      3  C   UNL     1      -0.759  -5.412  -1.822  0.00  0.00    +0.016 C 
ATOM      4  C   UNL     1      -1.991  -6.147  -2.287  0.00  0.00    +0.055 C 
ATOM      5  C   UNL     1      -3.214  -5.635  -1.523  0.00  0.00    +0.013 C 
ATOM      6  C   UNL     1      -2.972  -5.841  -0.024  0.00  0.00    +0.171 C 
ATOM      7  C   UNL     1      -1.701  -5.139   0.368  0.00  0.00    +0.176 C 
ATOM      8  O   UNL     1      -1.572  -4.726   1.503  0.00  0.00    -0.291 OA
ATOM      9  C   UNL     1      -3.416  -4.147  -1.815  0.00  0.00    +0.009 C 
ATOM     10  N   UNL     1       0.263  -5.222  -2.714  0.00  0.00    -0.321 N 
ATOM     11  C   UNL     1       1.527  -4.942  -2.275  0.00  0.00    +0.016 C 
ATOM     12  C   UNL     1       1.726  -4.466  -1.034  0.00  0.00    +0.065 C 
ATOM     13  C   UNL     1       2.704  -5.168  -3.188  0.00  0.00    +0.061 C 
ATOM     14  H   UNL     1       0.088  -5.287  -3.666  0.00  0.00    +0.152 HD
ENDROOT
BRANCH   1  19
ATOM     15  C   UNL     1      -0.537   1.447   0.088  0.00  0.00    +0.046 C 
ATOM     16  C   UNL     1      -0.246  -0.031   0.039  0.00  0.00    -0.020 A 
ATOM     17  C   UNL     1      -0.347  -0.716  -1.157  0.00  0.00    +0.006 A 
ATOM     18  C   UNL     1      -0.080  -2.071  -1.202  0.00  0.00    +0.005 A 
ATOM     19  C   UNL     1       0.288  -2.742  -0.051  0.00  0.00    -0.033 A 
ATOM     20  C   UNL     1       0.390  -2.057   1.145  0.00  0.00    +0.037 A 
ATOM     21  C   UNL     1       0.127  -0.700   1.190  0.00  0.00    +0.129 A 
BRANCH  21  22
ATOM     22  N   UNL     1       0.241   0.035   2.470  0.00  0.00    +0.057 N 
ATOM     23  O   UNL     1       0.674   1.163   2.482  0.00  0.00    -0.126 OA
ATOM     24  O   UNL     1      -0.099  -0.494   3.502  0.00  0.00    -0.126 OA
ENDBRANCH  21  22
ENDBRANCH   1  19
BRANCH   6  25
ATOM     25  C   UNL     1      -4.128  -5.270   0.757  0.00  0.00    +0.318 C 
ATOM     26  O   UNL     1      -5.051  -4.750   0.177  0.00  0.00    -0.250 OA
BRANCH  25  27
ATOM     27  O   UNL     1      -4.131  -5.338   2.098  0.00  0.00    -0.467 OA
ATOM     28  C   UNL     1      -5.258  -4.777   2.773  0.00  0.00    +0.280 C 
ENDBRANCH  25  27
ENDBRANCH   6  25
BRANCH  12  29
ATOM     29  C   UNL     1       3.044  -4.192  -0.601  0.00  0.00    +0.338 C 
ATOM     30  O   UNL     1       3.983  -4.387  -1.350  0.00  0.00    -0.245 OA
BRANCH  29  31
ATOM     31  O   UNL     1       3.260  -3.713   0.642  0.00  0.00    -0.458 OA
BRANCH  31  32
ATOM     32  C   UNL     1       4.617  -3.459   1.012  0.00  0.00    +0.177 C 
ATOM     33  C   UNL     1       5.218  -4.716   1.643  0.00  0.00    +0.044 C 
ATOM     34  C   UNL     1       6.670  -4.444   2.040  0.00  0.00    +0.004 C 
ATOM     35  C   UNL     1       6.716  -3.295   3.050  0.00  0.00    +0.000 C 
ATOM     36  C   UNL     1       6.115  -2.038   2.419  0.00  0.00    +0.004 C 
ATOM     37  C   UNL     1       4.663  -2.310   2.022  0.00  0.00    +0.044 C 
ENDBRANCH  31  32
ENDBRANCH  29  31
ENDBRANCH  12  29
TORSDOF 7
