REMARK  Name = ZINC48892504
REMARK  6 active torsions:
REMARK  status: ('A' for Active; 'I' for Inactive)
REMARK    1  A    between atoms: C_1  and  N_2
REMARK    2  A    between atoms: N_2  and  C_3
REMARK    3  A    between atoms: N_2  and  C_13
REMARK    4  A    between atoms: C_3  and  C_4
REMARK    5  A    between atoms: C_7  and  C_10
REMARK    6  A    between atoms: C_13  and  C_14
REMARK                            x       y       z     vdW  Elec       q    Type
REMARK                         _______ _______ _______ _____ _____    ______ ____
ROOT
ATOM      1  C   UNL     1       2.158  -0.072   1.120  0.00  0.00    -0.064 A 
ATOM      2  C   UNL     1       3.085  -0.897   0.507  0.00  0.00    +0.002 A 
ATOM      3  C   UNL     1       4.410  -0.519   0.438  0.00  0.00    +0.011 A 
ATOM      4  C   UNL     1       4.815   0.697   0.988  0.00  0.00    +0.012 A 
ATOM      5  C   UNL     1       3.876   1.524   1.605  0.00  0.00    +0.011 A 
ATOM      6  C   UNL     1       2.553   1.138   1.663  0.00  0.00    +0.002 A 
ENDROOT
BRANCH   4   7
ATOM      7  C   UNL     1       6.235   1.108   0.919  0.00  0.00    +0.094 C 
ATOM      8  N   UNL     1       6.619   2.269   1.445  0.00  0.00    -0.387 N 
ATOM      9  N   UNL     1       7.129   0.316   0.330  0.00  0.00    -0.345 N 
ATOM     10  H   UNL     1       7.550   2.538   1.399  0.00  0.00    +0.157 HD
ATOM     11  H   UNL     1       6.849  -0.530  -0.053  0.00  0.00    +0.144 HD
ATOM     12  H   UNL     1       8.060   0.585   0.284  0.00  0.00    +0.144 HD
ATOM     13  H   UNL     1       5.968   2.846   1.874  0.00  0.00    +0.157 HD
ENDBRANCH   4   7
BRANCH   1  14
ATOM     14  C   UNL     1       0.713  -0.491   1.192  0.00  0.00    -0.043 C 
BRANCH  14  16
ATOM     15  C   UNL     1      -0.018   1.465   0.010  0.00  0.00    -0.095 C 
ATOM     16  N   UNL     1       0.002  -0.004   0.002  0.00  0.00    +0.383 N 
ATOM     17  H   UNL     1       0.474  -0.330  -0.828  0.00  0.00    -0.081 HD
BRANCH  16  18
ATOM     18  C   UNL     1      -1.376  -0.512   0.012  0.00  0.00    -0.042 C 
BRANCH  18  19
ATOM     19  C   UNL     1      -2.067  -0.116  -1.267  0.00  0.00    -0.050 A 
ATOM     20  C   UNL     1      -2.918   0.973  -1.284  0.00  0.00    +0.003 A 
ATOM     21  C   UNL     1      -3.552   1.337  -2.457  0.00  0.00    +0.000 A 
ATOM     22  C   UNL     1      -3.336   0.612  -3.614  0.00  0.00    +0.001 A 
ATOM     23  C   UNL     1      -2.485  -0.477  -3.598  0.00  0.00    +0.015 A 
ATOM     24  C   UNL     1      -1.846  -0.839  -2.425  0.00  0.00    +0.019 A 
ATOM     25 BR   UNL     1      -0.677  -2.325  -2.404  0.00  0.00    -0.050 Br
ENDBRANCH  18  19
ENDBRANCH  16  18
ENDBRANCH  14  16
ENDBRANCH   1  14
TORSDOF 5
