REMARK  Name = ZINC23995500
REMARK  13 active torsions:
REMARK  status: ('A' for Active; 'I' for Inactive)
REMARK    1  A    between atoms: C_1  and  C_2
REMARK    2  A    between atoms: C_2  and  O_3
REMARK    3  A    between atoms: O_3  and  C_4
REMARK    4  A    between atoms: C_4  and  C_6
REMARK    5  A    between atoms: C_7  and  C_35
REMARK    6  A    between atoms: C_12  and  C_16
REMARK    7  A    between atoms: C_16  and  S_17
REMARK    8  A    between atoms: S_17  and  C_18
REMARK    9  A    between atoms: C_21  and  C_26
REMARK   10  A    between atoms: N_22  and  C_23
REMARK   11  A    between atoms: C_23  and  C_24
REMARK   12  A    between atoms: C_26  and  O_27
REMARK   13  A    between atoms: O_27  and  C_28
REMARK                            x       y       z     vdW  Elec       q    Type
REMARK                         _______ _______ _______ _____ _____    ______ ____
ROOT
ATOM      1  C   UNL     1       0.066   4.228   0.024  0.00  0.00    +0.153 C 
ENDROOT
BRANCH   1   8
ATOM      2  C   UNL     1       0.734  10.372  -1.435  0.00  0.00    +0.102 A 
ATOM      3  C   UNL     1       0.691   9.864  -0.167  0.00  0.00    -0.017 A 
ATOM      4  C   UNL     1       0.540   8.486  -0.006  0.00  0.00    +0.051 A 
ATOM      5  C   UNL     1       0.465   7.691   1.252  0.00  0.00    +0.128 A 
ATOM      6  N   UNL     1       0.543   8.284   2.423  0.00  0.00    -0.343 N 
ATOM      7  N   UNL     1       0.309   6.347   1.170  0.00  0.00    -0.216 NA
ATOM      8  C   UNL     1       0.233   5.726   0.030  0.00  0.00    +0.143 A 
ATOM      9  N   UNL     1       0.295   6.386  -1.155  0.00  0.00    -0.224 NA
ATOM     10  C   UNL     1       0.444   7.738  -1.189  0.00  0.00    +0.115 A 
ATOM     11  S   UNL     1       0.562   8.912  -2.445  0.00  0.00    -0.062 S 
ATOM     12  C   UNL     1       0.805  10.772   1.031  0.00  0.00    +0.046 C 
ATOM     13  H   UNL     1       0.486   7.688   3.346  0.00  0.00    +0.144 HD
ATOM     14  H   UNL     1       0.664   9.375   2.480  0.00  0.00    +0.144 HD
BRANCH   2  15
ATOM     15  C   UNL     1       0.885  11.764  -1.859  0.00  0.00    +0.346 C 
ATOM     16  O   UNL     1       0.991  12.645  -1.026  0.00  0.00    -0.244 OA
BRANCH  15  17
ATOM     17  O   UNL     1       0.905  12.071  -3.172  0.00  0.00    -0.461 OA
BRANCH  17  19
ATOM     18  C   UNL     1       1.057  13.602  -5.036  0.00  0.00    +0.048 C 
ATOM     19  C   UNL     1       1.055  13.451  -3.514  0.00  0.00    +0.229 C 
ENDBRANCH  17  19
ENDBRANCH  15  17
ENDBRANCH   2  15
ENDBRANCH   1   8
BRANCH   1  20
ATOM     20  S   UNL     1       1.694   3.439   0.004  0.00  0.00    -0.078 S 
BRANCH  20  21
ATOM     21  C   UNL     1       1.213   1.744  -0.000  0.00  0.00    +0.192 A 
ATOM     22  N   UNL     1      -0.015   1.281   0.009  0.00  0.00    -0.122 NA
ATOM     23  N   UNL     1       0.002  -0.004   0.002  0.00  0.00    -0.130 NA
ATOM     24  C   UNL     1       1.232  -0.435  -0.012  0.00  0.00    +0.172 A 
ATOM     25  N   UNL     1       2.047   0.663  -0.014  0.00  0.00    -0.299 N 
BRANCH  25  26
ATOM     26  C   UNL     1       3.512   0.676  -0.028  0.00  0.00    +0.152 C 
BRANCH  26  27
ATOM     27  C   UNL     1       4.001   0.689  -1.454  0.00  0.00    -0.013 C 
ATOM     28  C   UNL     1       4.820   1.628  -1.857  0.00  0.00    +0.005 C 
ENDBRANCH  26  27
ENDBRANCH  25  26
BRANCH  24  29
ATOM     29  C   UNL     1       1.673  -1.875  -0.024  0.00  0.00    +0.305 C 
BRANCH  29  30
ATOM     30  O   UNL     1       1.800  -2.324  -1.374  0.00  0.00    -0.481 OA
BRANCH  30  31
ATOM     31  C   UNL     1       2.194  -3.612  -1.563  0.00  0.00    +0.156 A 
ATOM     32  C   UNL     1       2.457  -4.424  -0.471  0.00  0.00    +0.048 A 
ATOM     33  C   UNL     1       2.853  -5.734  -0.664  0.00  0.00    +0.004 A 
ATOM     34  C   UNL     1       2.996  -6.233  -1.946  0.00  0.00    +0.003 A 
ATOM     35  C   UNL     1       2.739  -5.425  -3.038  0.00  0.00    +0.042 A 
ATOM     36  C   UNL     1       2.338  -4.114  -2.850  0.00  0.00    +0.165 A 
ATOM     37  F   UNL     1       2.087  -3.324  -3.917  0.00  0.00    -0.202 F 
ENDBRANCH  30  31
ENDBRANCH  29  30
ENDBRANCH  24  29
ENDBRANCH  20  21
ENDBRANCH   1  20
TORSDOF 11
