REMARK  Name = ZINC35721475
REMARK  5 active torsions:
REMARK  status: ('A' for Active; 'I' for Inactive)
REMARK    1  A    between atoms: C_1  and  C_2
REMARK    2  A    between atoms: C_7  and  N_12
REMARK    3  A    between atoms: C_9  and  C_11
REMARK    4  A    between atoms: C_13  and  C_15
REMARK    5  A    between atoms: C_16  and  C_17
REMARK                            x       y       z     vdW  Elec       q    Type
REMARK                         _______ _______ _______ _____ _____    ______ ____
ROOT
ATOM      1  N   UNL     1       1.471  -2.526   2.420  0.00  0.00    -0.309 N 
ATOM      2  C   UNL     1       2.056  -3.740   2.406  0.00  0.00    +0.237 C 
ATOM      3  O   UNL     1       1.996  -4.432   1.409  0.00  0.00    -0.271 OA
ATOM      4  H   UNL     1       1.520  -1.974   3.216  0.00  0.00    +0.149 HD
ENDROOT
BRANCH   1  10
ATOM      5  C   UNL     1      -0.019   1.526   0.010  0.00  0.00    +0.008 C 
ATOM      6  C   UNL     1       0.002  -0.004   0.002  0.00  0.00    -0.009 C 
ATOM      7  C   UNL     1      -1.433  -0.534   0.013  0.00  0.00    +0.003 C 
ATOM      8  C   UNL     1      -1.413  -2.063   0.004  0.00  0.00    +0.002 C 
ATOM      9  C   UNL     1      -0.673  -2.570   1.244  0.00  0.00    +0.022 C 
ATOM     10  C   UNL     1       0.763  -2.041   1.233  0.00  0.00    +0.076 C 
ATOM     11  C   UNL     1       0.742  -0.511   1.242  0.00  0.00    +0.009 C 
ATOM     12  C   UNL     1       0.026  -0.018   2.500  0.00  0.00    +0.009 C 
ENDBRANCH   1  10
BRANCH   2  13
ATOM     13  C   UNL     1       2.772  -4.230   3.604  0.00  0.00    +0.074 C 
ATOM     14  C   UNL     1       3.354  -5.439   3.590  0.00  0.00    +0.101 C 
BRANCH  14  15
ATOM     15  C   UNL     1       4.067  -5.928   4.785  0.00  0.00    +0.380 C 
ATOM     16  O   UNL     1       4.128  -5.231   5.788  0.00  0.00    -0.241 OA
ATOM     17  O   UNL     1       4.598  -7.029   4.772  0.00  0.00    -0.241 OA
ENDBRANCH  14  15
ENDBRANCH   2  13
TORSDOF 3
