REMARK  Name = ZINC04151406
REMARK  7 active torsions:
REMARK  status: ('A' for Active; 'I' for Inactive)
REMARK    1  A    between atoms: C_1  and  C_2
REMARK    2  A    between atoms: C_4  and  N_29
REMARK    3  A    between atoms: C_7  and  C_8
REMARK    4  A    between atoms: C_16  and  C_19
REMARK    5  A    between atoms: C_22  and  C_25
REMARK    6  A    between atoms: C_25  and  O_27
REMARK    7  A    between atoms: O_27  and  C_28
REMARK                            x       y       z     vdW  Elec       q    Type
REMARK                         _______ _______ _______ _____ _____    ______ ____
ROOT
ATOM      1  C   UNL     1      -6.226  -1.527  -0.826  0.00  0.00    +0.044 C 
ATOM      2  C   UNL     1      -4.743  -1.318  -0.991  0.00  0.00    -0.045 A 
ATOM      3  C   UNL     1      -3.940  -2.364  -1.408  0.00  0.00    +0.038 A 
ATOM      4  C   UNL     1      -2.583  -2.167  -1.557  0.00  0.00    +0.147 A 
ATOM      5  C   UNL     1      -2.019  -0.920  -1.290  0.00  0.00    +0.062 A 
ATOM      6  C   UNL     1      -2.822   0.125  -0.874  0.00  0.00    -0.014 A 
ATOM      7  C   UNL     1      -4.188  -0.083  -0.727  0.00  0.00    -0.042 A 
ATOM      8  C   UNL     1      -5.070   1.051  -0.273  0.00  0.00    +0.044 C 
ATOM      9  C   UNL     1      -2.288   1.499  -0.568  0.00  0.00    +0.049 C 
ATOM     10  C   UNL     1      -2.519   1.777   0.908  0.00  0.00    -0.023 C 
ATOM     11  C   UNL     1      -1.438   1.509   1.604  0.00  0.00    -0.030 C 
ATOM     12  C   UNL     1      -0.334   1.012   0.690  0.00  0.00    +0.033 C 
ATOM     13  C   UNL     1      -0.752   1.548  -0.701  0.00  0.00    +0.029 C 
ATOM     14  C   UNL     1      -0.281   0.602  -1.794  0.00  0.00    +0.105 C 
ATOM     15  N   UNL     1      -0.641  -0.776  -1.454  0.00  0.00    -0.335 N 
ATOM     16  H   UNL     1      -0.144  -1.087  -0.633  0.00  0.00    +0.147 HD
ENDROOT
BRANCH  14  17
ATOM     17  C   UNL     1      -0.933   0.982  -3.099  0.00  0.00    -0.027 A 
ATOM     18  C   UNL     1      -1.280  -0.003  -4.008  0.00  0.00    +0.006 A 
ATOM     19  C   UNL     1      -1.882   0.337  -5.201  0.00  0.00    +0.015 A 
ATOM     20  C   UNL     1      -2.130   1.679  -5.497  0.00  0.00    +0.059 A 
ATOM     21  C   UNL     1      -1.772   2.668  -4.578  0.00  0.00    +0.015 A 
ATOM     22  C   UNL     1      -1.176   2.313  -3.386  0.00  0.00    +0.006 A 
BRANCH  20  23
ATOM     23  C   UNL     1      -2.768   2.051  -6.777  0.00  0.00    +0.339 C 
ATOM     24  O   UNL     1      -2.982   3.220  -7.031  0.00  0.00    -0.245 OA
BRANCH  23  25
ATOM     25  O   UNL     1      -3.112   1.095  -7.661  0.00  0.00    -0.464 OA
ATOM     26  C   UNL     1      -3.734   1.534  -8.897  0.00  0.00    +0.280 C 
ENDBRANCH  23  25
ENDBRANCH  20  23
ENDBRANCH  14  17
BRANCH   4  27
ATOM     27  N   UNL     1      -1.722  -3.285  -2.003  0.00  0.00    +0.058 N 
ATOM     28  O   UNL     1      -2.212  -4.375  -2.237  0.00  0.00    -0.126 OA
ATOM     29  O   UNL     1      -0.523  -3.115  -2.135  0.00  0.00    -0.126 OA
ENDBRANCH   4  27
TORSDOF 4
