REMARK  Name = ZINC33266842
REMARK  8 active torsions:
REMARK  status: ('A' for Active; 'I' for Inactive)
REMARK    1  A    between atoms: C_1  and  C_2
REMARK    2  A    between atoms: N_5  and  C_7
REMARK    3  A    between atoms: C_18  and  C_32
REMARK    4  A    between atoms: N_24  and  C_25
REMARK    5  A    between atoms: C_25  and  C_26
REMARK    6  A    between atoms: C_35  and  N_38
REMARK    7  A    between atoms: N_38  and  C_39
REMARK    8  A    between atoms: N_38  and  C_40
REMARK                            x       y       z     vdW  Elec       q    Type
REMARK                         _______ _______ _______ _____ _____    ______ ____
ROOT
ATOM      1  C   UNL     1       3.144   5.714   0.362  0.00  0.00    +0.068 C 
ATOM      2  C   UNL     1       3.129   4.781  -0.821  0.00  0.00    +0.067 A 
ATOM      3  C   UNL     1       3.802   3.567  -0.909  0.00  0.00    +0.035 A 
ATOM      4  C   UNL     1       3.505   3.019  -2.124  0.00  0.00    +0.146 A 
ATOM      5  N   UNL     1       2.720   3.883  -2.794  0.00  0.00    -0.215 N 
ATOM      6  N   UNL     1       2.480   4.977  -1.945  0.00  0.00    -0.169 NA
ATOM      7  N   UNL     1       3.955   1.736  -2.455  0.00  0.00    -0.303 N 
ATOM      8  C   UNL     1       4.516   1.267  -3.594  0.00  0.00    +0.093 A 
ATOM      9  C   UNL     1       4.871  -0.021  -3.382  0.00  0.00    +0.020 A 
ATOM     10  C   UNL     1       4.486  -0.357  -2.065  0.00  0.00    +0.025 A 
ATOM     11  C   UNL     1       3.894   0.723  -1.531  0.00  0.00    +0.050 A 
ATOM     12  C   UNL     1       3.252   0.877  -0.183  0.00  0.00    +0.155 C 
ATOM     13  N   UNL     1       4.065   1.730   0.715  0.00  0.00    -0.269 N 
ATOM     14  C   UNL     1       4.708   2.910   0.090  0.00  0.00    +0.151 C 
ATOM     15  C   UNL     1       4.212   1.449   2.024  0.00  0.00    +0.304 C 
ATOM     16  O   UNL     1       3.668   0.471   2.501  0.00  0.00    -0.253 OA
ATOM     17  N   UNL     1       4.960   2.251   2.806  0.00  0.00    -0.295 N 
ATOM     18  H   UNL     1       5.452   3.136   2.376  0.00  0.00    +0.151 HD
ENDROOT
BRANCH   5  19
ATOM     19  C   UNL     1       2.232   3.722  -4.098  0.00  0.00    +0.068 A 
ATOM     20  C   UNL     1       2.180   4.809  -4.960  0.00  0.00    +0.028 A 
ATOM     21  C   UNL     1       1.704   4.646  -6.247  0.00  0.00    +0.002 A 
ATOM     22  C   UNL     1       1.270   3.404  -6.672  0.00  0.00    +0.000 A 
ATOM     23  C   UNL     1       1.315   2.321  -5.814  0.00  0.00    +0.002 A 
ATOM     24  C   UNL     1       1.796   2.477  -4.528  0.00  0.00    +0.028 A 
ENDBRANCH   5  19
BRANCH  12  25
ATOM     25  C   UNL     1       1.891   1.502  -0.356  0.00  0.00    -0.021 A 
ATOM     26  C   UNL     1       1.086   1.120  -1.413  0.00  0.00    +0.007 A 
ATOM     27  C   UNL     1      -0.159   1.694  -1.578  0.00  0.00    +0.023 A 
ATOM     28  C   UNL     1      -0.607   2.649  -0.674  0.00  0.00    +0.029 A 
ATOM     29  C   UNL     1       0.205   3.030   0.387  0.00  0.00    +0.023 A 
ATOM     30  C   UNL     1       1.451   2.456   0.543  0.00  0.00    +0.007 A 
BRANCH  28  31
ATOM     31  N   UNL     1      -1.868   3.228  -0.834  0.00  0.00    -0.336 N 
ATOM     32  C   UNL     1      -2.283   4.331   0.036  0.00  0.00    +0.129 C 
ATOM     33  C   UNL     1      -2.775   2.732  -1.872  0.00  0.00    +0.129 C 
ENDBRANCH  28  31
ENDBRANCH  12  25
BRANCH  17  34
ATOM     34  C   UNL     1       5.120   1.945   4.230  0.00  0.00    +0.141 C 
BRANCH  34  35
ATOM     35  C   UNL     1       5.997   2.989   4.873  0.00  0.00    -0.030 A 
ATOM     36  C   UNL     1       7.366   2.805   4.923  0.00  0.00    +0.005 A 
ATOM     37  C   UNL     1       8.171   3.765   5.508  0.00  0.00    +0.000 A 
ATOM     38  C   UNL     1       7.606   4.903   6.053  0.00  0.00    +0.000 A 
ATOM     39  C   UNL     1       6.236   5.083   6.008  0.00  0.00    +0.000 A 
ATOM     40  C   UNL     1       5.431   4.126   5.418  0.00  0.00    +0.005 A 
ENDBRANCH  34  35
ENDBRANCH  17  34
TORSDOF 5
