REMARK  Name = ZINC15946692
REMARK  12 active torsions:
REMARK  status: ('A' for Active; 'I' for Inactive)
REMARK    1  A    between atoms: C_1  and  C_2
REMARK    2  A    between atoms: C_2  and  C_3
REMARK    3  A    between atoms: C_9  and  C_10
REMARK    4  A    between atoms: C_9  and  N_75
REMARK    5  A    between atoms: N_12  and  C_13
REMARK    6  A    between atoms: C_14  and  C_27
REMARK    7  A    between atoms: C_19  and  C_23
REMARK    8  A    between atoms: C_23  and  C_24
REMARK    9  A    between atoms: C_23  and  C_25
REMARK   10  A    between atoms: C_23  and  C_26
REMARK   11  A    between atoms: N_29  and  C_30
REMARK   12  A    between atoms: C_34  and  N_36
REMARK                            x       y       z     vdW  Elec       q    Type
REMARK                         _______ _______ _______ _____ _____    ______ ____
ROOT
ATOM      1  C   UNL     1      -1.154   7.893   1.190  0.00  0.00    +0.084 A 
ATOM      2  C   UNL     1      -1.039   7.020   0.117  0.00  0.00    +0.069 A 
ATOM      3  C   UNL     1      -0.995   7.596  -1.216  0.00  0.00    -0.023 A 
ATOM      4  C   UNL     1      -1.084   8.943  -1.264  0.00  0.00    -0.004 A 
ATOM      5  S   UNL     1      -1.210   9.448   0.429  0.00  0.00    -0.077 S 
ATOM      6  C   UNL     1      -1.071   9.807  -2.487  0.00  0.00    +0.046 C 
ATOM      7  C   UNL     1      -1.326   8.915  -3.711  0.00  0.00    -0.000 C 
ATOM      8  C   UNL     1      -0.413   7.688  -3.626  0.00  0.00    +0.009 C 
ATOM      9  C   UNL     1      -0.876   6.772  -2.492  0.00  0.00    +0.037 C 
ENDROOT
BRANCH   1  12
ATOM     10  C   UNL     1      -1.324   8.585   3.448  0.00  0.00    +0.201 C 
ATOM     11  O   UNL     1      -1.375   9.739   3.080  0.00  0.00    -0.278 OA
ATOM     12  N   UNL     1      -1.211   7.593   2.542  0.00  0.00    -0.281 N 
ATOM     13  H   UNL     1      -1.169   6.670   2.837  0.00  0.00    +0.155 HD
BRANCH  10  14
ATOM     14  C   UNL     1      -1.385   8.259   4.918  0.00  0.00    +0.019 C 
BRANCH  14  20
ATOM     15  C   UNL     1      -2.892  10.107   5.336  0.00  0.00    -0.068 C 
ATOM     16  C   UNL     1      -3.152  11.305   6.253  0.00  0.00    -0.015 C 
ATOM     17  C   UNL     1      -2.019  12.321   6.090  0.00  0.00    -0.003 C 
ATOM     18  C   UNL     1      -0.684  11.643   6.413  0.00  0.00    -0.019 C 
ATOM     19  C   UNL     1      -0.496  10.436   5.491  0.00  0.00    -0.078 C 
ATOM     20  N   UNL     1      -1.605   9.484   5.713  0.00  0.00    +0.387 N 
ATOM     21  H   UNL     1      -1.635   9.235   6.709  0.00  0.00    -0.081 HD
BRANCH  15  23
ATOM     22  C   UNL     1      -5.333   9.677   5.024  0.00  0.00    +0.002 C 
ATOM     23  C   UNL     1      -4.011   9.079   5.510  0.00  0.00    -0.019 C 
ENDBRANCH  15  23
ENDBRANCH  14  20
ENDBRANCH  10  14
ENDBRANCH   1  12
BRANCH   7  24
ATOM     24  C   UNL     1      -1.016   9.697  -4.989  0.00  0.00    -0.035 C 
ATOM     25  C   UNL     1       0.449  10.136  -4.976  0.00  0.00    +0.011 C 
ATOM     26  C   UNL     1      -1.270   8.806  -6.207  0.00  0.00    +0.011 C 
ATOM     27  C   UNL     1      -1.918  10.931  -5.062  0.00  0.00    +0.011 C 
ENDBRANCH   7  24
BRANCH   2  28
ATOM     28  C   UNL     1      -0.959   5.570   0.322  0.00  0.00    +0.251 C 
ATOM     29  O   UNL     1      -1.976   4.902   0.347  0.00  0.00    -0.270 OA
ATOM     30  N   UNL     1       0.241   4.978   0.481  0.00  0.00    -0.281 N 
ATOM     31  H   UNL     1       1.045   5.517   0.532  0.00  0.00    +0.155 HD
BRANCH  30  32
ATOM     32  C   UNL     1       0.326   3.584   0.572  0.00  0.00    +0.036 A 
ATOM     33  C   UNL     1      -0.640   2.787  -0.029  0.00  0.00    +0.023 A 
ATOM     34  C   UNL     1      -0.550   1.412   0.058  0.00  0.00    +0.004 A 
ATOM     35  C   UNL     1       0.494   0.829   0.751  0.00  0.00    +0.033 A 
ATOM     36  C   UNL     1       1.458   1.619   1.350  0.00  0.00    +0.128 A 
ATOM     37  C   UNL     1       1.377   2.995   1.262  0.00  0.00    +0.056 A 
BRANCH  36  38
ATOM     38  N   UNL     1       2.577   0.990   2.086  0.00  0.00    +0.056 N 
ATOM     39  O   UNL     1       2.649  -0.224   2.164  0.00  0.00    -0.126 OA
ATOM     40  O   UNL     1       3.426   1.685   2.614  0.00  0.00    -0.126 OA
ENDBRANCH  36  38
ENDBRANCH  30  32
ENDBRANCH   2  28
TORSDOF 8
