REMARK  Name = ZINC15735399
REMARK  8 active torsions:
REMARK  status: ('A' for Active; 'I' for Inactive)
REMARK    1  A    between atoms: C_1  and  O_2
REMARK    2  A    between atoms: O_2  and  C_3
REMARK    3  A    between atoms: C_3  and  C_4
REMARK    4  A    between atoms: C_4  and  C_5
REMARK    5  A    between atoms: C_5  and  N_6
REMARK    6  A    between atoms: C_21  and  C_23
REMARK    7  A    between atoms: C_26  and  O_29
REMARK    8  A    between atoms: O_29  and  C_30
REMARK                            x       y       z     vdW  Elec       q    Type
REMARK                         _______ _______ _______ _____ _____    ______ ____
ROOT
ATOM      1  N   UNL     1      -0.489   1.394  -2.416  0.00  0.00    -0.299 N 
ATOM      2  C   UNL     1      -0.809   1.645  -3.700  0.00  0.00    +0.303 C 
ATOM      3  O   UNL     1      -1.752   2.368  -3.962  0.00  0.00    -0.253 OA
ATOM      4  N   UNL     1      -0.085   1.096  -4.695  0.00  0.00    -0.269 N 
ATOM      5  C   UNL     1       1.064   0.214  -4.419  0.00  0.00    +0.148 C 
ATOM      6  C   UNL     1       1.141  -0.961  -5.368  0.00  0.00    +0.005 A 
ATOM      7  C   UNL     1       0.898  -2.290  -4.966  0.00  0.00    -0.030 A 
ATOM      8  C   UNL     1       1.022  -3.266  -5.903  0.00  0.00    -0.005 A 
ATOM      9  S   UNL     1       1.459  -2.383  -7.381  0.00  0.00    -0.075 S 
ATOM     10  C   UNL     1       1.455  -0.763  -6.677  0.00  0.00    +0.090 A 
ATOM     11  N   UNL     1       1.680   0.484  -7.245  0.00  0.00    -0.312 N 
ATOM     12  C   UNL     1       2.649   0.929  -8.078  0.00  0.00    +0.092 A 
ATOM     13  C   UNL     1       2.454   2.252  -8.278  0.00  0.00    +0.020 A 
ATOM     14  C   UNL     1       1.303   2.627  -7.551  0.00  0.00    +0.025 A 
ATOM     15  C   UNL     1       0.833   1.526  -6.948  0.00  0.00    +0.049 A 
ATOM     16  C   UNL     1      -0.409   1.343  -6.120  0.00  0.00    +0.155 C 
ATOM     17  C   UNL     1       0.830  -4.737  -5.722  0.00  0.00    +0.043 C 
ATOM     18  C   UNL     1       0.806  -5.038  -4.216  0.00  0.00    +0.005 C 
ATOM     19  C   UNL     1      -0.127  -4.037  -3.529  0.00  0.00    +0.005 C 
ATOM     20  C   UNL     1       0.506  -2.645  -3.534  0.00  0.00    +0.036 C 
ATOM     21  H   UNL     1       0.262   0.817  -2.207  0.00  0.00    +0.150 HD
ENDROOT
BRANCH  16  22
ATOM     22  C   UNL     1      -1.194   0.173  -6.656  0.00  0.00    -0.021 A 
ATOM     23  C   UNL     1      -1.238  -0.063  -8.017  0.00  0.00    +0.009 A 
ATOM     24  C   UNL     1      -1.952  -1.138  -8.510  0.00  0.00    +0.046 A 
ATOM     25  C   UNL     1      -2.633  -1.975  -7.638  0.00  0.00    +0.120 A 
ATOM     26  C   UNL     1      -2.591  -1.733  -6.273  0.00  0.00    +0.046 A 
ATOM     27  C   UNL     1      -1.872  -0.659  -5.785  0.00  0.00    +0.009 A 
BRANCH  25  28
ATOM     28  O   UNL     1      -3.340  -3.030  -8.121  0.00  0.00    -0.495 OA
ATOM     29  C   UNL     1      -3.339  -3.219  -9.538  0.00  0.00    +0.277 C 
ENDBRANCH  25  28
ENDBRANCH  16  22
BRANCH   1  30
ATOM     30  C   UNL     1      -1.277   1.991  -1.334  0.00  0.00    +0.108 C 
BRANCH  30  31
ATOM     31  C   UNL     1      -0.708   1.548   0.015  0.00  0.00    +0.047 C 
BRANCH  31  32
ATOM     32  C   UNL     1      -1.530   2.172   1.145  0.00  0.00    +0.161 C 
BRANCH  32  34
ATOM     33  C   UNL     1      -1.698   2.289   3.533  0.00  0.00    +0.193 C 
ATOM     34  O   UNL     1      -0.999   1.759   2.405  0.00  0.00    -0.383 OA
ENDBRANCH  32  34
ENDBRANCH  31  32
ENDBRANCH  30  31
ENDBRANCH   1  30
TORSDOF 6
