REMARK  Name = ZINC28058449
REMARK  7 active torsions:
REMARK  status: ('A' for Active; 'I' for Inactive)
REMARK    1  A    between atoms: C_1  and  C_2
REMARK    2  A    between atoms: C_2  and  C_3
REMARK    3  A    between atoms: C_2  and  C_4
REMARK    4  A    between atoms: C_7  and  C_10
REMARK    5  A    between atoms: C_28  and  C_30
REMARK    6  A    between atoms: C_35  and  O_36
REMARK    7  A    between atoms: O_36  and  C_37
REMARK                            x       y       z     vdW  Elec       q    Type
REMARK                         _______ _______ _______ _____ _____    ______ ____
ROOT
ATOM      1  C   UNL     1      -0.013   1.086   0.008  0.00  0.00    +0.234 C 
ATOM      2  C   UNL     1      -0.763   1.665  -1.170  0.00  0.00    +0.026 C 
ATOM      3  C   UNL     1      -1.383   2.839  -1.033  0.00  0.00    +0.050 C 
ATOM      4  C   UNL     1      -1.324   3.519   0.283  0.00  0.00    +0.039 A 
ATOM      5  C   UNL     1      -1.638   4.866   0.419  0.00  0.00    +0.033 A 
ATOM      6  C   UNL     1      -1.569   5.459   1.666  0.00  0.00    +0.042 A 
ATOM      7  C   UNL     1      -1.190   4.716   2.772  0.00  0.00    +0.023 A 
ATOM      8  C   UNL     1      -0.876   3.375   2.644  0.00  0.00    +0.048 A 
ATOM      9  C   UNL     1      -0.940   2.770   1.403  0.00  0.00    +0.131 A 
ATOM     10  O   UNL     1      -0.639   1.458   1.235  0.00  0.00    -0.479 OA
ATOM     11 CL   UNL     1      -1.959   7.141   1.847  0.00  0.00    -0.084 Cl
ATOM     12  N   UNL     1      -2.075   3.446  -2.087  0.00  0.00    -0.282 N 
ATOM     13  C   UNL     1      -1.877   2.931  -3.357  0.00  0.00    +0.240 A 
ATOM     14  N   UNL     1      -2.181   3.401  -4.533  0.00  0.00    -0.092 NA
ATOM     15  N   UNL     1      -1.798   2.584  -5.454  0.00  0.00    -0.021 NA
ATOM     16  N   UNL     1      -1.232   1.546  -4.928  0.00  0.00    -0.042 NA
ATOM     17  N   UNL     1      -1.265   1.732  -3.547  0.00  0.00    -0.201 N 
ATOM     18  C   UNL     1      -0.784   0.888  -2.463  0.00  0.00    +0.177 C 
ATOM     19  H   UNL     1      -2.744   4.296  -1.889  0.00  0.00    +0.155 HD
ENDROOT
BRANCH   1  23
ATOM     20  C   UNL     1       4.001   2.548  -0.023  0.00  0.00    -0.045 A 
ATOM     21  C   UNL     1       3.734   1.253  -0.426  0.00  0.00    +0.004 A 
ATOM     22  C   UNL     1       2.435   0.780  -0.415  0.00  0.00    +0.008 A 
ATOM     23  C   UNL     1       1.403   1.602  -0.003  0.00  0.00    -0.003 A 
ATOM     24  C   UNL     1       1.669   2.899   0.395  0.00  0.00    +0.008 A 
ATOM     25  C   UNL     1       2.969   3.370   0.390  0.00  0.00    +0.004 A 
BRANCH  20  27
ATOM     26  C   UNL     1       5.512   4.273  -0.966  0.00  0.00    +0.012 C 
ATOM     27  C   UNL     1       5.417   3.064  -0.034  0.00  0.00    +0.013 C 
ATOM     28  C   UNL     1       5.819   3.479   1.383  0.00  0.00    +0.012 C 
ENDBRANCH  20  27
ENDBRANCH   1  23
BRANCH  18  29
ATOM     29  C   UNL     1      -1.696  -0.303  -2.315  0.00  0.00    +0.023 A 
ATOM     30  C   UNL     1      -3.030  -0.119  -2.008  0.00  0.00    +0.009 A 
ATOM     31  C   UNL     1      -3.868  -1.211  -1.877  0.00  0.00    +0.001 A 
ATOM     32  C   UNL     1      -3.370  -2.490  -2.042  0.00  0.00    +0.004 A 
ATOM     33  C   UNL     1      -2.036  -2.680  -2.345  0.00  0.00    +0.046 A 
ATOM     34  C   UNL     1      -1.194  -1.586  -2.482  0.00  0.00    +0.126 A 
BRANCH  34  35
ATOM     35  O   UNL     1       0.119  -1.770  -2.779  0.00  0.00    -0.495 OA
ATOM     36  C   UNL     1       0.565  -3.119  -2.937  0.00  0.00    +0.277 C 
ENDBRANCH  34  35
ENDBRANCH  18  29
TORSDOF 4
