REMARK  Name = ZINC36660442
REMARK  10 active torsions:
REMARK  status: ('A' for Active; 'I' for Inactive)
REMARK    1  A    between atoms: C_1  and  C_2
REMARK    2  A    between atoms: C_2  and  C_3
REMARK    3  A    between atoms: C_3  and  N_4
REMARK    4  A    between atoms: C_10  and  N_16
REMARK    5  A    between atoms: C_11  and  C_12
REMARK    6  A    between atoms: C_12  and  O_14
REMARK    7  A    between atoms: O_14  and  C_15
REMARK    8  A    between atoms: C_17  and  C_19
REMARK    9  A    between atoms: N_24  and  S_25
REMARK   10  A    between atoms: S_25  and  C_28
REMARK                            x       y       z     vdW  Elec       q    Type
REMARK                         _______ _______ _______ _____ _____    ______ ____
ROOT
ATOM      1  N   UNL     1       2.501  -7.288  -0.827  0.00  0.00    -0.278 N 
ATOM      2  C   UNL     1       3.201  -7.738  -1.887  0.00  0.00    +0.236 C 
ATOM      3  O   UNL     1       3.731  -6.951  -2.642  0.00  0.00    -0.274 OA
ATOM      4  H   UNL     1       2.077  -7.917  -0.223  0.00  0.00    +0.155 HD
ENDROOT
BRANCH   1  11
ATOM      5  N   UNL     1       1.660  -1.081  -0.021  0.00  0.00    +0.383 N 
ATOM      6  C   UNL     1       1.702  -1.548   1.370  0.00  0.00    -0.074 C 
ATOM      7  C   UNL     1       1.078  -2.943   1.478  0.00  0.00    +0.018 C 
ATOM      8  C   UNL     1       1.746  -3.836   0.442  0.00  0.00    -0.025 A 
ATOM      9  C   UNL     1       2.445  -3.288  -0.578  0.00  0.00    -0.021 A 
ATOM     10  S   UNL     1       3.034  -4.670  -1.509  0.00  0.00    -0.079 S 
ATOM     11  C   UNL     1       2.388  -5.925  -0.600  0.00  0.00    +0.086 A 
ATOM     12  C   UNL     1       1.713  -5.286   0.431  0.00  0.00    +0.091 A 
ATOM     13  C   UNL     1       2.646  -1.826  -0.825  0.00  0.00    -0.035 C 
ATOM     14  H   UNL     1       0.736  -1.232  -0.398  0.00  0.00    -0.081 HD
BRANCH  12  15
ATOM     15  C   UNL     1       0.999  -6.042   1.463  0.00  0.00    +0.342 C 
ATOM     16  O   UNL     1      -0.172  -6.331   1.304  0.00  0.00    -0.245 OA
BRANCH  15  17
ATOM     17  O   UNL     1       1.640  -6.417   2.589  0.00  0.00    -0.464 OA
ATOM     18  C   UNL     1       0.882  -7.152   3.552  0.00  0.00    +0.280 C 
ENDBRANCH  15  17
ENDBRANCH  12  15
BRANCH   5  19
ATOM     19  C   UNL     1       1.977   0.353  -0.065  0.00  0.00    -0.079 C 
BRANCH  19  21
ATOM     20  C   UNL     1       2.138   2.362  -1.541  0.00  0.00    +0.002 C 
ATOM     21  C   UNL     1       1.807   0.869  -1.496  0.00  0.00    -0.022 C 
ENDBRANCH  19  21
ENDBRANCH   5  19
ENDBRANCH   1  11
BRANCH   2  22
ATOM     22  C   UNL     1       3.324  -9.220  -2.134  0.00  0.00    +0.166 C 
ATOM     23  C   UNL     1       4.551  -9.777  -1.381  0.00  0.00    +0.031 C 
ATOM     24  C   UNL     1       5.128 -10.816  -2.378  0.00  0.00    +0.019 C 
ATOM     25  C   UNL     1       4.846 -10.132  -3.739  0.00  0.00    +0.110 C 
ATOM     26  N   UNL     1       3.536  -9.472  -3.567  0.00  0.00    -0.165 NA
BRANCH  26  27
ATOM     27  S   UNL     1       2.481  -9.081  -4.782  0.00  0.00    +0.062 S 
ATOM     28  O   UNL     1       1.586  -8.115  -4.247  0.00  0.00    -0.153 OA
ATOM     29  O   UNL     1       3.268  -8.832  -5.939  0.00  0.00    -0.153 OA
BRANCH  27  30
ATOM     30  C   UNL     1       1.524 -10.520  -5.124  0.00  0.00    +0.106 A 
ATOM     31  C   UNL     1       2.000 -11.473  -6.004  0.00  0.00    +0.030 A 
ATOM     32  C   UNL     1       1.250 -12.603  -6.273  0.00  0.00    +0.022 A 
ATOM     33  C   UNL     1       0.021 -12.778  -5.661  0.00  0.00    +0.041 A 
ATOM     34  C   UNL     1      -0.455 -11.824  -4.780  0.00  0.00    +0.022 A 
ATOM     35  C   UNL     1       0.299 -10.698  -4.508  0.00  0.00    +0.030 A 
ATOM     36 CL   UNL     1      -0.922 -14.196  -5.998  0.00  0.00    -0.084 Cl
ENDBRANCH  27  30
ENDBRANCH  26  27
ENDBRANCH   2  22
TORSDOF 8
