REMARK  Name = ZINC09360538
REMARK  4 active torsions:
REMARK  status: ('A' for Active; 'I' for Inactive)
REMARK    1  A    between atoms: C_8  and  C_26
REMARK    2  A    between atoms: C_10  and  C_17
REMARK    3  A    between atoms: C_20  and  N_23
REMARK    4  A    between atoms: C_26  and  C_28
REMARK                            x       y       z     vdW  Elec       q    Type
REMARK                         _______ _______ _______ _____ _____    ______ ____
ROOT
ATOM      1  C   UNL     1      -0.915   6.643  -0.931  0.00  0.00    +0.000 A 
ATOM      2  C   UNL     1      -1.886   7.308  -1.657  0.00  0.00    +0.002 A 
ATOM      3  C   UNL     1      -3.028   6.648  -2.061  0.00  0.00    +0.023 A 
ATOM      4  C   UNL     1      -3.211   5.305  -1.740  0.00  0.00    +0.036 A 
ATOM      5  C   UNL     1      -2.228   4.647  -1.009  0.00  0.00    -0.027 A 
ATOM      6  C   UNL     1      -1.089   5.309  -0.608  0.00  0.00    +0.004 A 
ATOM      7  C   UNL     1      -2.717   3.234  -0.831  0.00  0.00    +0.052 C 
ATOM      8  C   UNL     1      -1.741   2.234  -1.460  0.00  0.00    +0.069 C 
ATOM      9  C   UNL     1      -1.354   1.290  -0.329  0.00  0.00    +0.016 C 
ATOM     10  C   UNL     1      -2.432   1.499   0.753  0.00  0.00    -0.047 C 
ATOM     11  C   UNL     1      -2.057   3.843   1.406  0.00  0.00    -0.005 C 
ATOM     12  S   UNL     1      -1.838   2.841   2.942  0.00  0.00    -0.181 S 
ATOM     13  C   UNL     1      -1.833   1.181   2.138  0.00  0.00    +0.052 C 
ATOM     14  C   UNL     1      -4.050   3.200  -1.534  0.00  0.00    +0.212 C 
ATOM     15  O   UNL     1      -4.790   2.244  -1.633  0.00  0.00    -0.277 OA
ATOM     16  N   UNL     1      -4.262   4.433  -2.030  0.00  0.00    -0.286 N 
ATOM     17  H   UNL     1      -5.053   4.686  -2.530  0.00  0.00    +0.155 HD
ATOM     18  N   UNL     1      -2.872   2.896   0.576  0.00  0.00    +0.401 N 
ATOM     19  H   UNL     1      -3.859   2.978   0.846  0.00  0.00    -0.078 HD
ENDROOT
BRANCH   9  20
ATOM     20  C   UNL     1      -1.372  -0.133  -0.824  0.00  0.00    -0.045 A 
ATOM     21  C   UNL     1      -2.464  -0.941  -0.568  0.00  0.00    +0.006 A 
ATOM     22  C   UNL     1      -2.482  -2.245  -1.026  0.00  0.00    +0.033 A 
ATOM     23  C   UNL     1      -1.404  -2.745  -1.731  0.00  0.00    +0.126 A 
ATOM     24  C   UNL     1      -0.309  -1.939  -1.982  0.00  0.00    +0.033 A 
ATOM     25  C   UNL     1      -0.293  -0.633  -1.529  0.00  0.00    +0.006 A 
BRANCH  23  26
ATOM     26  N   UNL     1      -1.421  -4.143  -2.217  0.00  0.00    +0.056 N 
ATOM     27  O   UNL     1      -0.471  -4.583  -2.839  0.00  0.00    -0.126 OA
ATOM     28  O   UNL     1      -2.386  -4.853  -1.996  0.00  0.00    -0.126 OA
ENDBRANCH  23  26
ENDBRANCH   9  20
BRANCH   8  29
ATOM     29  C   UNL     1      -2.419   1.472  -2.570  0.00  0.00    +0.166 C 
ATOM     30  O   UNL     1      -3.203   0.585  -2.306  0.00  0.00    -0.292 OA
BRANCH  29  31
ATOM     31  C   UNL     1      -2.130   1.804  -3.973  0.00  0.00    +0.018 A 
ATOM     32  C   UNL     1      -1.230   2.831  -4.281  0.00  0.00    +0.014 A 
ATOM     33  C   UNL     1      -0.960   3.134  -5.598  0.00  0.00    +0.039 A 
ATOM     34  C   UNL     1      -1.585   2.430  -6.617  0.00  0.00    +0.123 A 
ATOM     35  C   UNL     1      -2.482   1.415  -6.318  0.00  0.00    +0.039 A 
ATOM     36  C   UNL     1      -2.757   1.098  -5.006  0.00  0.00    +0.014 A 
ATOM     37  F   UNL     1      -1.320   2.736  -7.906  0.00  0.00    -0.205 F 
ENDBRANCH  29  31
ENDBRANCH   8  29
TORSDOF 4
