REMARK  Name = ZINC35442670
REMARK  11 active torsions:
REMARK  status: ('A' for Active; 'I' for Inactive)
REMARK    1  A    between atoms: C_1  and  C_2
REMARK    2  A    between atoms: C_4  and  C_28
REMARK    3  A    between atoms: C_6  and  C_25
REMARK    4  A    between atoms: C_9  and  C_11
REMARK    5  A    between atoms: C_11  and  C_12
REMARK    6  A    between atoms: C_15  and  C_17
REMARK    7  A    between atoms: C_20  and  O_23
REMARK    8  A    between atoms: O_23  and  C_24
REMARK    9  A    between atoms: C_25  and  C_26
REMARK   10  A    between atoms: C_25  and  C_27
REMARK   11  A    between atoms: C_28  and  N_29
REMARK                            x       y       z     vdW  Elec       q    Type
REMARK                         _______ _______ _______ _____ _____    ______ ____
ROOT
ATOM      1  C   UNL     1      -0.390   1.123  -0.156  0.00  0.00    +0.039 C 
ATOM      2  C   UNL     1      -0.001  -0.332  -0.100  0.00  0.00    -0.073 C 
ATOM      3  C   UNL     1       0.250  -0.937  -1.216  0.00  0.00    -0.026 C 
ATOM      4  C   UNL     1       0.638  -2.383  -1.320  0.00  0.00    -0.002 C 
ATOM      5  C   UNL     1       1.101  -2.904   0.043  0.00  0.00    -0.003 C 
ATOM      6  C   UNL     1       0.055  -2.511   1.093  0.00  0.00    +0.012 C 
ATOM      7  C   UNL     1       0.077  -0.988   1.248  0.00  0.00    +0.024 C 
ENDROOT
BRANCH   5   8
ATOM      8  C   UNL     1       1.240  -4.427  -0.009  0.00  0.00    -0.014 C 
ATOM      9  C   UNL     1       1.857  -4.927   1.299  0.00  0.00    +0.007 C 
ATOM     10  C   UNL     1      -0.142  -5.058  -0.195  0.00  0.00    +0.007 C 
ENDBRANCH   5   8
BRANCH   7  11
ATOM     11  C   UNL     1       1.371  -0.562   1.945  0.00  0.00    +0.105 C 
BRANCH  11  12
ATOM     12  C   UNL     1       1.329   0.919   2.222  0.00  0.00    +0.218 A 
ATOM     13  N   UNL     1       0.870   1.487   3.302  0.00  0.00    -0.112 NA
ATOM     14  N   UNL     1       0.988   2.764   3.200  0.00  0.00    -0.107 NA
ATOM     15  C   UNL     1       1.532   3.057   2.041  0.00  0.00    +0.248 A 
ATOM     16  O   UNL     1       1.762   1.892   1.403  0.00  0.00    -0.420 OA
BRANCH  15  17
ATOM     17  C   UNL     1       1.838   4.411   1.534  0.00  0.00    +0.039 A 
ATOM     18  C   UNL     1       2.414   4.572   0.273  0.00  0.00    +0.017 A 
ATOM     19  C   UNL     1       2.698   5.836  -0.197  0.00  0.00    +0.046 A 
ATOM     20  C   UNL     1       2.413   6.949   0.584  0.00  0.00    +0.120 A 
ATOM     21  C   UNL     1       1.840   6.793   1.839  0.00  0.00    +0.046 A 
ATOM     22  C   UNL     1       1.547   5.532   2.313  0.00  0.00    +0.017 A 
BRANCH  20  23
ATOM     23  O   UNL     1       2.695   8.193   0.118  0.00  0.00    -0.495 OA
ATOM     24  C   UNL     1       2.376   9.294   0.972  0.00  0.00    +0.277 C 
ENDBRANCH  20  23
ENDBRANCH  15  17
ENDBRANCH  11  12
ENDBRANCH   7  11
BRANCH   4  25
ATOM     25  C   UNL     1       1.777  -2.531  -2.330  0.00  0.00    -0.071 C 
BRANCH  25  26
ATOM     26  N   UNL     1       1.305  -2.131  -3.663  0.00  0.00    +0.382 N 
ATOM     27  C   UNL     1       0.255  -3.056  -4.107  0.00  0.00    -0.060 C 
ATOM     28  C   UNL     1      -0.318  -2.574  -5.444  0.00  0.00    +0.088 C 
ATOM     29  N   UNL     1       0.792  -2.413  -6.395  0.00  0.00    -0.318 N 
ATOM     30  C   UNL     1       1.964  -1.632  -5.969  0.00  0.00    +0.088 C 
ATOM     31  C   UNL     1       2.429  -2.159  -4.607  0.00  0.00    -0.060 C 
ATOM     32  C   UNL     1       0.736  -2.983  -7.662  0.00  0.00    +0.139 A 
ATOM     33  C   UNL     1      -0.459  -3.525  -8.132  0.00  0.00    +0.154 A 
ATOM     34  N   UNL     1      -0.507  -4.065  -9.334  0.00  0.00    -0.258 NA
ATOM     35  C   UNL     1       0.575  -4.091 -10.094  0.00  0.00    +0.130 A 
ATOM     36  C   UNL     1       1.761  -3.554  -9.632  0.00  0.00    +0.132 A 
ATOM     37  N   UNL     1       1.818  -3.006  -8.429  0.00  0.00    -0.237 NA
ATOM     38  H   UNL     1       0.928  -1.196  -3.618  0.00  0.00    -0.082 HD
ENDBRANCH  25  26
ENDBRANCH   4  25
TORSDOF 7
