REMARK  Name = ZINC39952902
REMARK  11 active torsions:
REMARK  status: ('A' for Active; 'I' for Inactive)
REMARK    1  A    between atoms: C_1  and  C_2
REMARK    2  A    between atoms: C_3  and  O_28
REMARK    3  A    between atoms: C_4  and  C_8
REMARK    4  A    between atoms: C_11  and  O_15
REMARK    5  A    between atoms: C_13  and  O_14
REMARK    6  A    between atoms: O_15  and  C_16
REMARK    7  A    between atoms: C_16  and  C_17
REMARK    8  A    between atoms: N_19  and  C_20
REMARK    9  A    between atoms: N_19  and  C_21
REMARK   10  A    between atoms: C_21  and  C_22
REMARK   11  A    between atoms: O_28  and  C_29
REMARK                            x       y       z     vdW  Elec       q    Type
REMARK                         _______ _______ _______ _____ _____    ______ ____
ROOT
ATOM      1  C   UNL     1      -1.098  -2.997  -1.066  0.00  0.00    +0.025 A 
ATOM      2  C   UNL     1      -0.345  -3.173  -2.211  0.00  0.00    +0.013 A 
ATOM      3  C   UNL     1      -0.855  -3.895  -3.273  0.00  0.00    +0.046 A 
ATOM      4  C   UNL     1      -2.126  -4.446  -3.192  0.00  0.00    +0.125 A 
ATOM      5  C   UNL     1      -2.884  -4.271  -2.044  0.00  0.00    +0.091 A 
ATOM      6  C   UNL     1      -2.368  -3.551  -0.978  0.00  0.00    +0.126 A 
ENDROOT
BRANCH   1  10
ATOM      7  C   UNL     1      -0.017   1.484  -0.107  0.00  0.00    +0.071 C 
ATOM      8  C   UNL     1      -0.001  -0.021  -0.051  0.00  0.00    +0.098 C 
ATOM      9  C   UNL     1      -1.095  -0.795   0.096  0.00  0.00    +0.156 C 
ATOM     10  C   UNL     1      -0.539  -2.209   0.090  0.00  0.00    +0.200 C 
ATOM     11  N   UNL     1       0.908  -1.990  -0.075  0.00  0.00    -0.294 N 
ATOM     12  N   UNL     1       1.102  -0.774  -0.147  0.00  0.00    -0.179 NA
ATOM     13  H   UNL     1       1.589  -2.679  -0.121  0.00  0.00    +0.184 HD
BRANCH   9  14
ATOM     14  O   UNL     1      -2.382  -0.405   0.221  0.00  0.00    -0.456 OA
BRANCH  14  15
ATOM     15  C   UNL     1      -3.003  -0.624   1.409  0.00  0.00    +0.128 A 
ATOM     16  C   UNL     1      -2.285  -1.121   2.487  0.00  0.00    +0.046 A 
ATOM     17  C   UNL     1      -2.918  -1.342   3.695  0.00  0.00    +0.004 A 
ATOM     18  C   UNL     1      -4.267  -1.069   3.829  0.00  0.00    +0.000 A 
ATOM     19  C   UNL     1      -4.985  -0.574   2.756  0.00  0.00    +0.004 A 
ATOM     20  C   UNL     1      -4.355  -0.345   1.548  0.00  0.00    +0.046 A 
ENDBRANCH  14  15
ENDBRANCH   9  14
ENDBRANCH   1  10
BRANCH   6  21
ATOM     21  O   UNL     1      -3.106  -3.383   0.150  0.00  0.00    -0.506 OA
ATOM     22  H   UNL     1      -3.666  -2.594   0.140  0.00  0.00    +0.292 HD
ENDBRANCH   6  21
BRANCH   4  23
ATOM     23  O   UNL     1      -2.627  -5.156  -4.236  0.00  0.00    -0.483 OA
BRANCH  23  24
ATOM     24  C   UNL     1      -1.791  -5.295  -5.387  0.00  0.00    +0.324 C 
BRANCH  24  25
ATOM     25  C   UNL     1      -2.509  -6.107  -6.434  0.00  0.00    +0.253 C 
ATOM     26  O   UNL     1      -3.627  -6.525  -6.217  0.00  0.00    -0.272 OA
ATOM     27  N   UNL     1      -1.909  -6.368  -7.612  0.00  0.00    -0.297 N 
ATOM     28  C   UNL     1      -0.559  -5.864  -7.875  0.00  0.00    +0.132 C 
BRANCH  27  29
ATOM     29  C   UNL     1      -2.607  -7.157  -8.630  0.00  0.00    +0.142 C 
BRANCH  29  30
ATOM     30  C   UNL     1      -3.397  -6.237  -9.525  0.00  0.00    -0.030 A 
ATOM     31  C   UNL     1      -4.702  -5.914  -9.204  0.00  0.00    +0.005 A 
ATOM     32  C   UNL     1      -5.427  -5.070 -10.024  0.00  0.00    +0.000 A 
ATOM     33  C   UNL     1      -4.847  -4.548 -11.165  0.00  0.00    +0.000 A 
ATOM     34  C   UNL     1      -3.541  -4.870 -11.485  0.00  0.00    +0.000 A 
ATOM     35  C   UNL     1      -2.815  -5.711 -10.663  0.00  0.00    +0.005 A 
ENDBRANCH  29  30
ENDBRANCH  27  29
ENDBRANCH  24  25
ENDBRANCH  23  24
ENDBRANCH   4  23
TORSDOF 9
