REMARK  Name = ZINC05156701
REMARK  14 active torsions:
REMARK  status: ('A' for Active; 'I' for Inactive)
REMARK    1  A    between atoms: C_1  and  C_2
REMARK    2  A    between atoms: C_2  and  C_3
REMARK    3  A    between atoms: C_3  and  C_26
REMARK    4  A    between atoms: C_10  and  N_18
REMARK    5  A    between atoms: C_12  and  S_14
REMARK    6  A    between atoms: S_14  and  C_15
REMARK    7  A    between atoms: C_15  and  C_16
REMARK    8  A    between atoms: C_15  and  C_17
REMARK    9  A    between atoms: N_18  and  C_19
REMARK   10  A    between atoms: C_19  and  C_20
REMARK   11  A    between atoms: C_20  and  C_21
REMARK   12  A    between atoms: C_21  and  N_59
REMARK   13  A    between atoms: C_22  and  N_59
REMARK   14  A    between atoms: C_23  and  N_59
REMARK                            x       y       z     vdW  Elec       q    Type
REMARK                         _______ _______ _______ _____ _____    ______ ____
ROOT
ATOM      1  C   UNL     1      -0.790   1.568  -1.228  0.00  0.00    +0.071 C 
ATOM      2  C   UNL     1      -0.145   0.969  -2.481  0.00  0.00    +0.071 C 
ATOM      3  C   UNL     1      -0.741   1.666  -3.702  0.00  0.00    -0.020 A 
ATOM      4  C   UNL     1      -1.384   2.847  -3.545  0.00  0.00    +0.021 A 
ATOM      5  S   UNL     1      -1.918   3.308  -5.171  0.00  0.00    -0.071 S 
ATOM      6  C   UNL     1      -1.283   1.922  -6.060  0.00  0.00    +0.115 A 
ATOM      7  C   UNL     1      -0.667   1.136  -5.052  0.00  0.00    +0.051 A 
ATOM      8  C   UNL     1      -0.050  -0.079  -5.468  0.00  0.00    +0.132 A 
ATOM      9  N   UNL     1      -0.115  -0.350  -6.769  0.00  0.00    -0.206 NA
ATOM     10  C   UNL     1      -0.708   0.432  -7.659  0.00  0.00    +0.191 A 
ATOM     11  N   UNL     1      -1.304   1.582  -7.333  0.00  0.00    -0.215 NA
ATOM     12  C   UNL     1      -1.583   3.582  -2.257  0.00  0.00    +0.203 C 
ATOM     13  O   UNL     1      -0.717   2.996  -1.272  0.00  0.00    -0.368 OA
ATOM     14  C   UNL     1      -2.256   1.137  -1.161  0.00  0.00    +0.042 C 
ENDROOT
BRANCH   1  16
ATOM     15  C   UNL     1      -0.782   1.543   1.270  0.00  0.00    +0.007 C 
ATOM     16  C   UNL     1      -0.054   1.060   0.013  0.00  0.00    +0.032 C 
ENDBRANCH   1  16
BRANCH   8  17
ATOM     17  N   UNL     1       0.581  -0.925  -4.574  0.00  0.00    -0.329 N 
ATOM     18  H   UNL     1       0.683  -0.660  -3.646  0.00  0.00    +0.147 HD
BRANCH  17  19
ATOM     19  C   UNL     1       1.095  -2.219  -5.028  0.00  0.00    +0.101 C 
BRANCH  19  20
ATOM     20  C   UNL     1       1.741  -2.953  -3.851  0.00  0.00    +0.000 C 
BRANCH  20  21
ATOM     21  C   UNL     1       2.277  -4.305  -4.325  0.00  0.00    -0.078 C 
BRANCH  21  24
ATOM     22  C   UNL     1       1.895  -5.366  -2.183  0.00  0.00    -0.097 C 
ATOM     23  C   UNL     1       3.630  -6.197  -3.653  0.00  0.00    -0.097 C 
ATOM     24  N   UNL     1       2.917  -4.991  -3.183  0.00  0.00    +0.376 N 
ATOM     25  H   UNL     1       3.592  -4.353  -2.746  0.00  0.00    -0.083 HD
ENDBRANCH  21  24
ENDBRANCH  20  21
ENDBRANCH  19  20
ENDBRANCH  17  19
ENDBRANCH   8  17
BRANCH  10  26
ATOM     26  S   UNL     1      -0.710  -0.067  -9.348  0.00  0.00    -0.083 S 
BRANCH  26  27
ATOM     27  C   UNL     1      -1.618   1.316 -10.083  0.00  0.00    +0.048 C 
ATOM     28  C   UNL     1      -1.640   1.160 -11.605  0.00  0.00    +0.019 C 
ATOM     29  C   UNL     1      -3.052   1.325  -9.550  0.00  0.00    +0.019 C 
ENDBRANCH  26  27
ENDBRANCH  10  26
TORSDOF 8
