REMARK  Name = ZINC36341947
REMARK  16 active torsions:
REMARK  status: ('A' for Active; 'I' for Inactive)
REMARK    1  A    between atoms: C_1  and  C_2
REMARK    2  A    between atoms: C_3  and  C_21
REMARK    3  A    between atoms: C_4  and  O_13
REMARK    4  A    between atoms: N_5  and  C_7
REMARK    5  A    between atoms: O_13  and  C_14
REMARK    6  A    between atoms: C_21  and  N_22
REMARK    7  A    between atoms: N_22  and  C_23
REMARK    8  A    between atoms: N_22  and  C_31
REMARK    9  A    between atoms: C_23  and  C_24
REMARK   10  A    between atoms: C_24  and  C_26
REMARK   11  A    between atoms: C_24  and  O_30
REMARK   12  A    between atoms: C_26  and  C_27
REMARK   13  A    between atoms: C_27  and  C_28
REMARK   14  A    between atoms: C_31  and  C_32
REMARK   15  A    between atoms: C_32  and  C_33
REMARK   16  A    between atoms: C_32  and  C_34
REMARK                            x       y       z     vdW  Elec       q    Type
REMARK                         _______ _______ _______ _____ _____    ______ ____
ROOT
ATOM      1  C   UNL     1      -1.180   2.020   0.014  0.00  0.00    +0.068 C 
ATOM      2  C   UNL     1      -0.462   0.721   0.275  0.00  0.00    +0.065 A 
ATOM      3  C   UNL     1       0.018  -0.157  -0.701  0.00  0.00    +0.021 A 
ATOM      4  C   UNL     1       0.603  -1.208  -0.066  0.00  0.00    +0.225 A 
ATOM      5  N   UNL     1       0.490  -0.991   1.272  0.00  0.00    -0.200 N 
ATOM      6  N   UNL     1      -0.177   0.228   1.453  0.00  0.00    -0.168 NA
ENDROOT
BRANCH   5   7
ATOM      7  C   UNL     1       0.961  -1.833   2.289  0.00  0.00    +0.069 A 
ATOM      8  C   UNL     1       0.788  -3.207   2.189  0.00  0.00    +0.028 A 
ATOM      9  C   UNL     1       1.254  -4.035   3.192  0.00  0.00    +0.002 A 
ATOM     10  C   UNL     1       1.891  -3.496   4.295  0.00  0.00    +0.000 A 
ATOM     11  C   UNL     1       2.063  -2.128   4.397  0.00  0.00    +0.002 A 
ATOM     12  C   UNL     1       1.606  -1.296   3.394  0.00  0.00    +0.028 A 
ENDBRANCH   5   7
BRANCH   4  13
ATOM     13  O   UNL     1       1.190  -2.278  -0.658  0.00  0.00    -0.438 OA
BRANCH  13  14
ATOM     14  C   UNL     1       0.400  -3.326  -1.010  0.00  0.00    +0.130 A 
ATOM     15  C   UNL     1      -0.977  -3.240  -0.860  0.00  0.00    +0.048 A 
ATOM     16  C   UNL     1      -1.778  -4.306  -1.219  0.00  0.00    +0.023 A 
ATOM     17  C   UNL     1      -1.209  -5.460  -1.727  0.00  0.00    +0.041 A 
ATOM     18  C   UNL     1       0.164  -5.549  -1.877  0.00  0.00    +0.023 A 
ATOM     19  C   UNL     1       0.969  -4.483  -1.525  0.00  0.00    +0.048 A 
ATOM     20 CL   UNL     1      -2.218  -6.799  -2.177  0.00  0.00    -0.084 Cl
ENDBRANCH  13  14
ENDBRANCH   4  13
BRANCH   3  21
ATOM     21  C   UNL     1      -0.092   0.027  -2.192  0.00  0.00    -0.036 C 
BRANCH  21  22
ATOM     22  N   UNL     1       1.084   0.757  -2.684  0.00  0.00    +0.384 N 
ATOM     23  H   UNL     1       1.177   1.625  -2.177  0.00  0.00    -0.081 HD
BRANCH  22  24
ATOM     24  C   UNL     1       0.920   1.042  -4.116  0.00  0.00    -0.047 C 
BRANCH  24  25
ATOM     25  C   UNL     1      -0.250   2.008  -4.313  0.00  0.00    +0.098 C 
BRANCH  25  26
ATOM     26  O   UNL     1       0.024   3.233  -3.630  0.00  0.00    -0.394 OA
ATOM     27  H   UNL     1       0.778   3.722  -3.987  0.00  0.00    +0.210 HD
ENDBRANCH  25  26
BRANCH  25  28
ATOM     28  C   UNL     1      -0.435   2.287  -5.806  0.00  0.00    +0.033 C 
BRANCH  28  29
ATOM     29  C   UNL     1      -1.679   3.152  -6.013  0.00  0.00    +0.029 C 
BRANCH  29  30
ATOM     30  C   UNL     1      -1.862   3.427  -7.484  0.00  0.00    -0.034 C 
ATOM     31  C   UNL     1      -2.994   3.128  -8.070  0.00  0.00    +0.004 C 
ENDBRANCH  29  30
ENDBRANCH  28  29
ENDBRANCH  25  28
ENDBRANCH  24  25
ENDBRANCH  22  24
BRANCH  22  32
ATOM     32  C   UNL     1       2.287  -0.060  -2.482  0.00  0.00    -0.075 C 
BRANCH  32  33
ATOM     33  C   UNL     1       3.526   0.753  -2.862  0.00  0.00    -0.034 C 
ATOM     34  C   UNL     1       3.650   1.959  -1.928  0.00  0.00    +0.005 C 
ATOM     35  C   UNL     1       4.773  -0.124  -2.730  0.00  0.00    +0.005 C 
ENDBRANCH  32  33
ENDBRANCH  22  32
ENDBRANCH  21  22
ENDBRANCH   3  21
TORSDOF 13
