REMARK  Name = ZINC09186528
REMARK  14 active torsions:
REMARK  status: ('A' for Active; 'I' for Inactive)
REMARK    1  A    between atoms: C_1  and  C_2
REMARK    2  A    between atoms: C_2  and  N_63
REMARK    3  A    between atoms: C_3  and  C_4
REMARK    4  A    between atoms: C_3  and  N_63
REMARK    5  A    between atoms: C_5  and  C_6
REMARK    6  A    between atoms: C_5  and  N_63
REMARK    7  A    between atoms: C_6  and  N_7
REMARK    8  A    between atoms: C_8  and  C_26
REMARK    9  A    between atoms: C_11  and  C_12
REMARK   10  A    between atoms: C_11  and  O_21
REMARK   11  A    between atoms: C_15  and  O_19
REMARK   12  A    between atoms: C_17  and  C_18
REMARK   13  A    between atoms: O_19  and  C_20
REMARK   14  A    between atoms: C_29  and  N_32
REMARK                            x       y       z     vdW  Elec       q    Type
REMARK                         _______ _______ _______ _____ _____    ______ ____
ROOT
ATOM      1  N   UNL     1       5.744  -4.119  -0.935  0.00  0.00    -0.285 N 
ATOM      2  C   UNL     1       4.346  -3.895  -0.555  0.00  0.00    +0.144 C 
ATOM      3  C   UNL     1       4.250  -2.463  -0.083  0.00  0.00    +0.071 C 
ATOM      4  C   UNL     1       3.118  -1.813   0.372  0.00  0.00    +0.133 C 
ATOM      5  C   UNL     1       5.539  -1.925  -0.204  0.00  0.00    +0.249 C 
ATOM      6  O   UNL     1       5.867  -0.786   0.077  0.00  0.00    -0.282 OA
ATOM      7  C   UNL     1       6.438  -2.986  -0.732  0.00  0.00    +0.288 C 
ATOM      8  O   UNL     1       7.624  -2.848  -0.951  0.00  0.00    -0.266 OA
ENDROOT
BRANCH   4   9
ATOM      9  C   UNL     1       3.222  -0.454   0.923  0.00  0.00    +0.020 A 
ATOM     10  C   UNL     1       3.630   0.607   0.104  0.00  0.00    +0.015 A 
ATOM     11  C   UNL     1       3.726   1.877   0.625  0.00  0.00    +0.046 A 
ATOM     12  C   UNL     1       3.418   2.109   1.961  0.00  0.00    +0.120 A 
ATOM     13  C   UNL     1       3.012   1.059   2.778  0.00  0.00    +0.049 A 
ATOM     14  C   UNL     1       2.913  -0.215   2.268  0.00  0.00    -0.036 A 
ATOM     15  C   UNL     1       2.474  -1.352   3.154  0.00  0.00    +0.044 C 
BRANCH  12  16
ATOM     16  O   UNL     1       3.514   3.363   2.469  0.00  0.00    -0.495 OA
ATOM     17  C   UNL     1       3.937   4.395   1.576  0.00  0.00    +0.277 C 
ENDBRANCH  12  16
ENDBRANCH   4   9
BRANCH   2  18
ATOM     18  C   UNL     1       3.956  -4.833   0.558  0.00  0.00    -0.022 A 
ATOM     19  C   UNL     1       4.859  -5.125   1.564  0.00  0.00    +0.008 A 
ATOM     20  C   UNL     1       4.500  -5.982   2.587  0.00  0.00    +0.033 A 
ATOM     21  C   UNL     1       3.242  -6.555   2.599  0.00  0.00    +0.126 A 
ATOM     22  C   UNL     1       2.341  -6.268   1.591  0.00  0.00    +0.033 A 
ATOM     23  C   UNL     1       2.699  -5.407   0.570  0.00  0.00    +0.008 A 
BRANCH  21  24
ATOM     24  N   UNL     1       2.859  -7.476   3.693  0.00  0.00    +0.056 N 
ATOM     25  O   UNL     1       1.750  -7.981   3.704  0.00  0.00    -0.126 OA
ATOM     26  O   UNL     1       3.652  -7.729   4.582  0.00  0.00    -0.126 OA
ENDBRANCH  21  24
ENDBRANCH   2  18
BRANCH   4  27
ATOM     27  O   UNL     1       1.917  -2.427   0.310  0.00  0.00    -0.506 OA
ATOM     28  H   UNL     1       1.213  -1.819   0.678  0.00  0.00    +0.292 HD
ENDBRANCH   4  27
BRANCH   1  29
ATOM     29  C   UNL     1       6.295  -5.373  -1.453  0.00  0.00    +0.090 C 
BRANCH  29  30
ATOM     30  C   UNL     1       6.189  -5.386  -2.979  0.00  0.00    -0.060 C 
BRANCH  30  31
ATOM     31  N   UNL     1       6.768  -6.647  -3.487  0.00  0.00    +0.380 N 
ATOM     32  H   UNL     1       7.706  -6.768  -3.088  0.00  0.00    -0.082 HD
BRANCH  31  34
ATOM     33  C   UNL     1       4.522  -7.662  -3.684  0.00  0.00    -0.017 C 
ATOM     34  C   UNL     1       5.923  -7.790  -3.082  0.00  0.00    -0.082 C 
ENDBRANCH  31  34
BRANCH  31  35
ATOM     35  C   UNL     1       6.876  -6.596  -4.960  0.00  0.00    -0.082 C 
ATOM     36  C   UNL     1       7.735  -7.771  -5.432  0.00  0.00    -0.017 C 
ENDBRANCH  31  35
ENDBRANCH  30  31
ENDBRANCH  29  30
ENDBRANCH   1  29
TORSDOF 10
