REMARK  Name = ZINC35029675
REMARK  12 active torsions:
REMARK  status: ('A' for Active; 'I' for Inactive)
REMARK    1  A    between atoms: C_1  and  C_2
REMARK    2  A    between atoms: C_2  and  C_3
REMARK    3  A    between atoms: C_3  and  C_5
REMARK    4  A    between atoms: C_3  and  N_20
REMARK    5  A    between atoms: N_15  and  C_16
REMARK    6  A    between atoms: C_16  and  C_17
REMARK    7  A    between atoms: C_17  and  O_18
REMARK    8  A    between atoms: O_18  and  C_19
REMARK    9  A    between atoms: N_20  and  C_21
REMARK   10  A    between atoms: C_21  and  C_22
REMARK   11  A    between atoms: N_29  and  C_30
REMARK   12  A    between atoms: C_34  and  C_36
REMARK                            x       y       z     vdW  Elec       q    Type
REMARK                         _______ _______ _______ _____ _____    ______ ____
ROOT
ATOM      1  C   UNL     1       0.838  -0.571  -1.554  0.00  0.00    +0.144 C 
ENDROOT
BRANCH   1   2
ATOM      2  C   UNL     1       0.937  -1.992  -2.046  0.00  0.00    +0.134 A 
ATOM      3  N   UNL     1       1.857  -2.755  -1.540  0.00  0.00    -0.232 NA
ATOM      4  C   UNL     1       2.006  -4.045  -1.933  0.00  0.00    +0.078 A 
ATOM      5  C   UNL     1       2.996  -4.867  -1.390  0.00  0.00    +0.028 A 
ATOM      6  C   UNL     1       3.111  -6.170  -1.819  0.00  0.00    +0.002 A 
ATOM      7  C   UNL     1       2.254  -6.679  -2.786  0.00  0.00    +0.001 A 
ATOM      8  C   UNL     1       1.270  -5.888  -3.337  0.00  0.00    +0.015 A 
ATOM      9  C   UNL     1       1.137  -4.566  -2.917  0.00  0.00    +0.065 A 
ATOM     10  C   UNL     1       0.106  -3.675  -3.469  0.00  0.00    +0.262 A 
ATOM     11  O   UNL     1      -0.675  -4.061  -4.319  0.00  0.00    -0.267 OA
ATOM     12  N   UNL     1       0.055  -2.410  -2.991  0.00  0.00    -0.292 N 
BRANCH  12  13
ATOM     13  C   UNL     1      -0.957  -1.481  -3.501  0.00  0.00    +0.154 C 
BRANCH  13  14
ATOM     14  C   UNL     1      -0.360  -0.653  -4.641  0.00  0.00    +0.181 C 
BRANCH  14  15
ATOM     15  O   UNL     1      -0.046  -1.511  -5.739  0.00  0.00    -0.381 OA
ATOM     16  C   UNL     1       0.520  -0.834  -6.863  0.00  0.00    +0.194 C 
ENDBRANCH  14  15
ENDBRANCH  13  14
ENDBRANCH  12  13
ENDBRANCH   1   2
BRANCH   1  17
ATOM     17  N   UNL     1       2.179  -0.063  -1.255  0.00  0.00    -0.268 N 
ATOM     18  C   UNL     1       2.892  -0.598  -0.244  0.00  0.00    +0.307 C 
ATOM     19  O   UNL     1       2.422  -1.502   0.419  0.00  0.00    -0.252 OA
ATOM     20  N   UNL     1       4.126  -0.131   0.032  0.00  0.00    -0.269 N 
ATOM     21  H   UNL     1       4.476   0.632  -0.455  0.00  0.00    +0.156 HD
BRANCH  20  22
ATOM     22  C   UNL     1       4.903  -0.747   1.020  0.00  0.00    +0.035 A 
ATOM     23  C   UNL     1       6.282  -0.818   0.876  0.00  0.00    +0.023 A 
ATOM     24  C   UNL     1       7.046  -1.426   1.853  0.00  0.00    +0.002 A 
ATOM     25  C   UNL     1       6.438  -1.963   2.974  0.00  0.00    +0.003 A 
ATOM     26  C   UNL     1       5.065  -1.894   3.119  0.00  0.00    -0.049 A 
ATOM     27  C   UNL     1       4.296  -1.282   2.148  0.00  0.00    +0.026 A 
ATOM     28  C   UNL     1       4.407  -2.482   4.340  0.00  0.00    +0.044 C 
ENDBRANCH  20  22
BRANCH  17  29
ATOM     29  C   UNL     1       2.745   1.027  -2.054  0.00  0.00    +0.184 C 
BRANCH  29  30
ATOM     30  C   UNL     1       2.475   2.343  -1.372  0.00  0.00    +0.122 A 
ATOM     31  C   UNL     1       3.313   2.984  -0.538  0.00  0.00    +0.046 A 
ATOM     32  C   UNL     1       2.661   4.171  -0.134  0.00  0.00    +0.041 A 
ATOM     33  C   UNL     1       1.462   4.185  -0.745  0.00  0.00    +0.195 A 
ATOM     34  O   UNL     1       1.357   3.078  -1.498  0.00  0.00    -0.466 OA
ENDBRANCH  29  30
ENDBRANCH  17  29
ENDBRANCH   1  17
BRANCH   1  36
ATOM     35  C   UNL     1      -0.183   0.924   0.168  0.00  0.00    +0.006 C 
ATOM     36  C   UNL     1      -0.018  -0.527  -0.287  0.00  0.00    +0.027 C 
ENDBRANCH   1  36
TORSDOF 9
