REMARK  Name = ZINC09542830
REMARK  8 active torsions:
REMARK  status: ('A' for Active; 'I' for Inactive)
REMARK    1  A    between atoms: C_1  and  C_2
REMARK    2  A    between atoms: C_2  and  C_3
REMARK    3  A    between atoms: C_6  and  C_9
REMARK    4  A    between atoms: C_11  and  C_24
REMARK    5  A    between atoms: C_13  and  C_16
REMARK    6  A    between atoms: C_21  and  O_22
REMARK    7  A    between atoms: C_27  and  O_31
REMARK    8  A    between atoms: O_31  and  C_32
REMARK                            x       y       z     vdW  Elec       q    Type
REMARK                         _______ _______ _______ _____ _____    ______ ____
ROOT
ATOM      1  C   UNL     1      -2.760   6.203   1.921  0.00  0.00    +0.040 C 
ATOM      2  N   UNL     1      -2.390   5.962   0.720  0.00  0.00    -0.299 NA
ATOM      3  C   UNL     1      -2.564   4.679   0.052  0.00  0.00    +0.081 C 
ATOM      4  C   UNL     1      -3.246   3.787   2.187  0.00  0.00    -0.028 C 
ATOM      5  C   UNL     1      -3.437   5.181   2.792  0.00  0.00    +0.044 C 
ATOM      6  N   UNL     1      -3.569   3.860   0.748  0.00  0.00    +0.401 N 
ATOM      7  H   UNL     1      -3.571   2.913   0.351  0.00  0.00    -0.081 HD
ATOM      8  H   UNL     1      -4.496   4.284   0.628  0.00  0.00    -0.081 HD
ENDROOT
BRANCH   4   9
ATOM      9  C   UNL     1      -4.173   2.809   2.862  0.00  0.00    -0.018 A 
ATOM     10  C   UNL     1      -5.368   2.462   2.263  0.00  0.00    +0.025 A 
ATOM     11  C   UNL     1      -6.219   1.564   2.882  0.00  0.00    +0.041 A 
ATOM     12  C   UNL     1      -5.874   1.011   4.103  0.00  0.00    +0.023 A 
ATOM     13  C   UNL     1      -4.680   1.356   4.706  0.00  0.00    +0.047 A 
ATOM     14  C   UNL     1      -3.823   2.252   4.083  0.00  0.00    +0.119 A 
ATOM     15 CL   UNL     1      -7.720   1.129   2.127  0.00  0.00    -0.084 Cl
BRANCH  14  16
ATOM     16  O   UNL     1      -2.644   2.587   4.671  0.00  0.00    -0.507 OA
ATOM     17  H   UNL     1      -2.703   3.352   5.261  0.00  0.00    +0.292 HD
ENDBRANCH  14  16
ENDBRANCH   4   9
BRANCH   3  18
ATOM     18  C   UNL     1      -1.248   3.945   0.035  0.00  0.00    -0.039 A 
ATOM     19  C   UNL     1      -0.062   4.655   0.027  0.00  0.00    +0.007 A 
ATOM     20  C   UNL     1       1.146   3.985   0.012  0.00  0.00    +0.047 A 
ATOM     21  C   UNL     1       1.168   2.598   0.005  0.00  0.00    +0.134 A 
ATOM     22  C   UNL     1      -0.024   1.887   0.012  0.00  0.00    +0.060 A 
ATOM     23  C   UNL     1      -1.230   2.562   0.022  0.00  0.00    +0.022 A 
ATOM     24 BR   UNL     1       0.002  -0.004   0.002  0.00  0.00    -0.047 Br
BRANCH  21  25
ATOM     25  O   UNL     1       2.356   1.936  -0.010  0.00  0.00    -0.494 OA
ATOM     26  C   UNL     1       3.542   2.733  -0.017  0.00  0.00    +0.277 C 
ENDBRANCH  21  25
ENDBRANCH   3  18
BRANCH   1  30
ATOM     27  C   UNL     1      -2.043  10.069   3.521  0.00  0.00    -0.048 A 
ATOM     28  C   UNL     1      -1.655   9.778   2.226  0.00  0.00    +0.004 A 
ATOM     29  C   UNL     1      -1.885   8.523   1.700  0.00  0.00    +0.010 A 
ATOM     30  C   UNL     1      -2.511   7.547   2.477  0.00  0.00    -0.004 A 
ATOM     31  C   UNL     1      -2.905   7.850   3.782  0.00  0.00    +0.010 A 
ATOM     32  C   UNL     1      -2.664   9.107   4.298  0.00  0.00    +0.004 A 
BRANCH  27  34
ATOM     33  C   UNL     1      -2.988  12.345   3.798  0.00  0.00    +0.009 C 
ATOM     34  C   UNL     1      -1.788  11.442   4.090  0.00  0.00    +0.032 C 
ENDBRANCH  27  34
ENDBRANCH   1  30
TORSDOF 6
