REMARK  Name = ZINC09152595
REMARK  9 active torsions:
REMARK  status: ('A' for Active; 'I' for Inactive)
REMARK    1  A    between atoms: C_1  and  C_2
REMARK    2  A    between atoms: C_7  and  N_8
REMARK    3  A    between atoms: C_9  and  C_11
REMARK    4  A    between atoms: C_11  and  N_12
REMARK    5  A    between atoms: N_12  and  C_13
REMARK    6  A    between atoms: N_12  and  S_14
REMARK    7  A    between atoms: S_14  and  C_17
REMARK    8  A    between atoms: C_24  and  C_33
REMARK    9  A    between atoms: C_27  and  C_29
REMARK                            x       y       z     vdW  Elec       q    Type
REMARK                         _______ _______ _______ _____ _____    ______ ____
ROOT
ATOM      1  S   UNL     1      -3.325   6.096   5.682  0.00  0.00    +0.061 S 
ATOM      2  O   UNL     1      -2.781   7.171   4.930  0.00  0.00    -0.153 OA
ATOM      3  O   UNL     1      -4.664   6.101   6.159  0.00  0.00    -0.153 OA
ENDROOT
BRANCH   1   4
ATOM      4  C   UNL     1      -3.148   4.649   4.693  0.00  0.00    +0.106 A 
ATOM      5  C   UNL     1      -2.173   4.593   3.714  0.00  0.00    +0.030 A 
ATOM      6  C   UNL     1      -2.031   3.462   2.939  0.00  0.00    +0.026 A 
ATOM      7  C   UNL     1      -2.867   2.362   3.140  0.00  0.00    +0.040 A 
ATOM      8  C   UNL     1      -3.845   2.429   4.120  0.00  0.00    -0.022 A 
ATOM      9  C   UNL     1      -3.983   3.565   4.894  0.00  0.00    +0.034 A 
ATOM     10  C   UNL     1      -4.609   1.125   4.128  0.00  0.00    +0.059 C 
ATOM     11  C   UNL     1      -3.954   0.286   3.018  0.00  0.00    +0.083 C 
ATOM     12  N   UNL     1      -2.896   1.136   2.468  0.00  0.00    -0.268 N 
ATOM     13  C   UNL     1      -2.067   0.786   1.464  0.00  0.00    +0.223 C 
ATOM     14  O   UNL     1      -2.233  -0.264   0.879  0.00  0.00    -0.275 OA
ATOM     15  C   UNL     1      -4.979  -0.056   1.934  0.00  0.00    +0.029 C 
BRANCH  13  16
ATOM     16  C   UNL     1      -0.934   1.698   1.069  0.00  0.00    +0.076 C 
ATOM     17  C   UNL     1      -0.013   1.105  -0.010  0.00  0.00    +0.013 C 
ATOM     18  C   UNL     1      -0.953   1.737  -1.051  0.00  0.00    +0.001 C 
ATOM     19  C   UNL     1      -1.332   2.762   0.031  0.00  0.00    +0.013 C 
ENDBRANCH  13  16
ENDBRANCH   1   4
BRANCH   1  20
ATOM     20  N   UNL     1      -2.352   5.905   7.008  0.00  0.00    -0.171 NA
ATOM     21  C   UNL     1      -2.880   5.275   8.221  0.00  0.00    +0.132 C 
BRANCH  20  22
ATOM     22  C   UNL     1      -0.962   6.366   6.969  0.00  0.00    +0.205 C 
BRANCH  22  24
ATOM     23  N   UNL     1       0.314   8.383   7.620  0.00  0.00    -0.284 N 
ATOM     24  C   UNL     1      -0.876   7.753   7.553  0.00  0.00    +0.233 C 
ATOM     25  O   UNL     1      -1.877   8.302   7.961  0.00  0.00    -0.274 OA
ATOM     26  H   UNL     1       1.102   7.973   7.231  0.00  0.00    +0.155 HD
BRANCH  23  33
ATOM     27  C   UNL     1       2.693   8.973   9.066  0.00  0.00    +0.046 C 
ATOM     28  C   UNL     1       1.555   9.956   8.969  0.00  0.00    -0.028 A 
ATOM     29  C   UNL     1       1.651  11.187   9.588  0.00  0.00    +0.025 A 
ATOM     30  C   UNL     1       0.604  12.088   9.504  0.00  0.00    +0.041 A 
ATOM     31  C   UNL     1      -0.538  11.761   8.795  0.00  0.00    +0.022 A 
ATOM     32  C   UNL     1      -0.637  10.534   8.170  0.00  0.00    +0.025 A 
ATOM     33  C   UNL     1       0.412   9.627   8.253  0.00  0.00    +0.036 A 
ATOM     34 CL   UNL     1       0.725  13.632  10.289  0.00  0.00    -0.084 Cl
ENDBRANCH  23  33
ENDBRANCH  22  24
ENDBRANCH  20  22
ENDBRANCH   1  20
TORSDOF 6
