REMARK  Name = ZINC39887723
REMARK  7 active torsions:
REMARK  status: ('A' for Active; 'I' for Inactive)
REMARK    1  A    between atoms: C_1  and  C_2
REMARK    2  A    between atoms: C_5  and  N_9
REMARK    3  A    between atoms: C_7  and  C_8
REMARK    4  A    between atoms: C_10  and  C_20
REMARK    5  A    between atoms: C_15  and  C_18
REMARK    6  A    between atoms: N_22  and  C_31
REMARK    7  A    between atoms: C_24  and  C_25
REMARK                            x       y       z     vdW  Elec       q    Type
REMARK                         _______ _______ _______ _____ _____    ______ ____
ROOT
ATOM      1  N   UNL     1       0.372  -4.791   0.040  0.00  0.00    -0.270 N 
ATOM      2  C   UNL     1       0.132  -5.473  -1.236  0.00  0.00    +0.201 C 
ATOM      3  N   UNL     1       0.884  -6.729  -1.275  0.00  0.00    -0.288 N 
ATOM      4  C   UNL     1       1.133  -7.415  -0.142  0.00  0.00    +0.258 C 
ATOM      5  O   UNL     1       1.722  -8.480  -0.188  0.00  0.00    -0.269 OA
ATOM      6  C   UNL     1       0.692  -6.872   1.145  0.00  0.00    +0.142 C 
ATOM      7  C   UNL     1       0.319  -5.522   1.201  0.00  0.00    +0.103 C 
ATOM      8  S   UNL     1      -0.208  -4.789   2.715  0.00  0.00    -0.033 SA
ATOM      9  H   UNL     1       1.205  -7.071  -2.124  0.00  0.00    +0.151 HD
ENDROOT
BRANCH   1  14
ATOM     10  C   UNL     1       1.525   0.761   0.175  0.00  0.00    +0.044 C 
ATOM     11  C   UNL     1       1.219  -0.714   0.139  0.00  0.00    -0.047 A 
ATOM     12  C   UNL     1      -0.038  -1.149  -0.242  0.00  0.00    +0.005 A 
ATOM     13  C   UNL     1      -0.322  -2.500  -0.276  0.00  0.00    +0.024 A 
ATOM     14  C   UNL     1       0.656  -3.422   0.073  0.00  0.00    +0.037 A 
ATOM     15  C   UNL     1       1.917  -2.983   0.455  0.00  0.00    +0.027 A 
ATOM     16  C   UNL     1       2.196  -1.630   0.482  0.00  0.00    -0.046 A 
ATOM     17  C   UNL     1       3.566  -1.152   0.890  0.00  0.00    +0.044 C 
ENDBRANCH   1  14
BRANCH   2  18
ATOM     18  C   UNL     1      -1.339  -5.767  -1.378  0.00  0.00    +0.037 A 
ATOM     19  C   UNL     1      -2.225  -5.900  -0.367  0.00  0.00    +0.122 A 
ATOM     20  N   UNL     1      -3.442  -6.160  -0.911  0.00  0.00    -0.239 N 
ATOM     21  N   UNL     1      -3.298  -6.187  -2.304  0.00  0.00    -0.166 NA
ATOM     22  C   UNL     1      -2.036  -5.945  -2.590  0.00  0.00    +0.100 A 
BRANCH  22  23
ATOM     23  C   UNL     1      -1.449  -5.876  -3.951  0.00  0.00    +0.002 A 
ATOM     24  C   UNL     1      -0.537  -4.871  -4.269  0.00  0.00    +0.010 A 
ATOM     25  C   UNL     1       0.006  -4.812  -5.537  0.00  0.00    +0.001 A 
ATOM     26  C   UNL     1      -0.353  -5.748  -6.490  0.00  0.00    +0.000 A 
ATOM     27  C   UNL     1      -1.257  -6.748  -6.179  0.00  0.00    +0.001 A 
ATOM     28  C   UNL     1      -1.802  -6.820  -4.913  0.00  0.00    +0.010 A 
ENDBRANCH  22  23
BRANCH  20  29
ATOM     29  C   UNL     1      -4.634  -6.365  -0.202  0.00  0.00    +0.065 A 
ATOM     30  C   UNL     1      -4.637  -6.306   1.185  0.00  0.00    +0.028 A 
ATOM     31  C   UNL     1      -5.813  -6.509   1.881  0.00  0.00    +0.002 A 
ATOM     32  C   UNL     1      -6.986  -6.772   1.197  0.00  0.00    +0.000 A 
ATOM     33  C   UNL     1      -6.986  -6.832  -0.185  0.00  0.00    +0.002 A 
ATOM     34  C   UNL     1      -5.814  -6.623  -0.886  0.00  0.00    +0.028 A 
ENDBRANCH  20  29
ENDBRANCH   2  18
BRANCH   6  35
ATOM     35  C   UNL     1       0.648  -7.697   2.314  0.00  0.00    +0.107 C 
ATOM     36  N   UNL     1       0.613  -8.352   3.242  0.00  0.00    -0.191 NA
ENDBRANCH   6  35
TORSDOF 5
