REMARK  Name = ZINC12493617
REMARK  14 active torsions:
REMARK  status: ('A' for Active; 'I' for Inactive)
REMARK    1  A    between atoms: C_1  and  C_2
REMARK    2  A    between atoms: C_2  and  C_3
REMARK    3  A    between atoms: C_3  and  C_5
REMARK    4  A    between atoms: C_3  and  N_66
REMARK    5  A    between atoms: N_9  and  C_10
REMARK    6  A    between atoms: C_10  and  C_11
REMARK    7  A    between atoms: C_10  and  C_12
REMARK    8  A    between atoms: C_10  and  C_13
REMARK    9  A    between atoms: C_14  and  C_15
REMARK   10  A    between atoms: C_14  and  N_66
REMARK   11  A    between atoms: C_20  and  C_21
REMARK   12  A    between atoms: C_20  and  N_66
REMARK   13  A    between atoms: C_25  and  C_35
REMARK   14  A    between atoms: C_26  and  C_34
REMARK                            x       y       z     vdW  Elec       q    Type
REMARK                         _______ _______ _______ _____ _____    ______ ____
ROOT
ATOM      1  N   UNL     1       1.391  -3.508   1.430  0.00  0.00    +0.392 N 
ATOM      2  H   UNL     1       0.842  -2.738   1.829  0.00  0.00    -0.080 HD
ENDROOT
BRANCH   1   3
ATOM      3  C   UNL     1       1.227  -4.706   2.281  0.00  0.00    +0.003 C 
BRANCH   3   4
ATOM      4  C   UNL     1       1.168  -4.268   3.722  0.00  0.00    +0.139 A 
ATOM      5  N   UNL     1       1.967  -3.414   4.314  0.00  0.00    -0.115 NA
ATOM      6  N   UNL     1       1.593  -3.303   5.542  0.00  0.00    -0.023 NA
ATOM      7  N   UNL     1       0.580  -4.070   5.750  0.00  0.00    -0.043 NA
ATOM      8  N   UNL     1       0.288  -4.682   4.653  0.00  0.00    -0.226 N 
BRANCH   8   9
ATOM      9  C   UNL     1      -0.797  -5.646   4.456  0.00  0.00    +0.059 C 
ATOM     10  C   UNL     1      -0.223  -6.960   3.922  0.00  0.00    +0.036 C 
ATOM     11  C   UNL     1      -1.501  -5.901   5.790  0.00  0.00    +0.036 C 
ATOM     12  C   UNL     1      -1.803  -5.083   3.449  0.00  0.00    +0.036 C 
ENDBRANCH   8   9
ENDBRANCH   3   4
BRANCH   3  14
ATOM     13  C   UNL     1       2.395  -6.199   0.654  0.00  0.00    +0.002 C 
ATOM     14  C   UNL     1       2.404  -5.664   2.087  0.00  0.00    -0.011 C 
ENDBRANCH   3  14
ENDBRANCH   1   3
BRANCH   1  15
ATOM     15  C   UNL     1       2.814  -3.111   1.386  0.00  0.00    -0.034 C 
BRANCH  15  16
ATOM     16  C   UNL     1       2.901  -1.677   0.930  0.00  0.00    -0.027 A 
ATOM     17  C   UNL     1       2.890  -0.543   1.672  0.00  0.00    +0.009 A 
ATOM     18  C   UNL     1       2.983   0.678   1.031  0.00  0.00    +0.008 A 
ATOM     19  C   UNL     1       3.083   0.705  -0.320  0.00  0.00    +0.045 A 
ATOM     20  S   UNL     1       3.053  -1.032  -0.728  0.00  0.00    -0.103 S 
ENDBRANCH  15  16
ENDBRANCH   1  15
BRANCH   1  21
ATOM     21  C   UNL     1       0.902  -3.789   0.064  0.00  0.00    -0.038 C 
BRANCH  21  22
ATOM     22  C   UNL     1      -0.603  -3.710   0.065  0.00  0.00    -0.017 A 
ATOM     23  C   UNL     1      -1.337  -4.844  -0.023  0.00  0.00    +0.015 A 
ATOM     24  C   UNL     1      -2.798  -4.745  -0.020  0.00  0.00    +0.001 A 
ATOM     25  C   UNL     1      -3.599  -5.888  -0.114  0.00  0.00    +0.013 A 
ATOM     26  C   UNL     1      -4.959  -5.765  -0.104  0.00  0.00    -0.047 A 
ATOM     27  C   UNL     1      -5.554  -4.514  -0.012  0.00  0.00    -0.045 A 
ATOM     28  C   UNL     1      -4.785  -3.375   0.075  0.00  0.00    +0.032 A 
ATOM     29  C   UNL     1      -3.397  -3.475   0.073  0.00  0.00    +0.077 A 
ATOM     30  N   UNL     1      -2.603  -2.353   0.160  0.00  0.00    -0.192 N 
ATOM     31  C   UNL     1      -1.242  -2.452   0.157  0.00  0.00    +0.181 A 
ATOM     32  N   UNL     1      -0.773  -1.216   0.252  0.00  0.00    -0.108 NA
ATOM     33  N   UNL     1      -1.742  -0.374   0.311  0.00  0.00    -0.022 NA
ATOM     34  N   UNL     1      -2.878  -0.982   0.262  0.00  0.00    -0.039 NA
ATOM     35  C   UNL     1      -7.057  -4.402  -0.009  0.00  0.00    +0.044 C 
ATOM     36  C   UNL     1      -5.821  -6.997  -0.200  0.00  0.00    +0.044 C 
ENDBRANCH  21  22
ENDBRANCH   1  21
TORSDOF 8
