REMARK  Name = ZINC65374008
REMARK  4 active torsions:
REMARK  status: ('A' for Active; 'I' for Inactive)
REMARK    1  A    between atoms: C_7  and  C_9
REMARK    2  A    between atoms: C_9  and  N_10
REMARK    3  A    between atoms: C_11  and  C_13
REMARK    4  A    between atoms: N_20  and  C_22
REMARK                            x       y       z     vdW  Elec       q    Type
REMARK                         _______ _______ _______ _____ _____    ______ ____
ROOT
ATOM      1  C   UNL     1      -2.209  -7.089  -0.015  0.00  0.00    +0.047 C 
ATOM      2  C   UNL     1      -3.053  -6.758  -1.264  0.00  0.00    +0.095 C 
ATOM      3  N   UNL     1      -2.843  -7.911  -2.177  0.00  0.00    -0.315 NA
ATOM      4  C   UNL     1      -2.847  -9.093  -1.278  0.00  0.00    +0.083 C 
ATOM      5  C   UNL     1      -2.073  -8.636  -0.025  0.00  0.00    +0.001 C 
ATOM      6  C   UNL     1      -2.823  -9.107   1.239  0.00  0.00    -0.073 C 
ATOM      7  N   UNL     1      -2.802  -7.934   2.150  0.00  0.00    +0.383 N 
ATOM      8  C   UNL     1      -3.029  -6.772   1.253  0.00  0.00    -0.061 C 
ATOM      9  H   UNL     1      -3.584  -7.972  -2.858  0.00  0.00    +0.122 HD
ATOM     10  H   UNL     1      -1.905  -7.858   2.606  0.00  0.00    -0.081 HD
ENDROOT
BRANCH   7  11
ATOM     11  C   UNL     1      -3.879  -8.035   3.143  0.00  0.00    -0.069 C 
ATOM     12  C   UNL     1      -3.825  -6.830   4.105  0.00  0.00    -0.015 C 
ATOM     13  C   UNL     1      -4.212  -7.426   5.482  0.00  0.00    -0.002 C 
ATOM     14  C   UNL     1      -3.520  -8.812   5.461  0.00  0.00    -0.002 C 
ATOM     15  C   UNL     1      -3.685  -9.295   4.005  0.00  0.00    -0.015 C 
ENDBRANCH   7  11
BRANCH   1  17
ATOM     16  N   UNL     1      -0.816  -5.045  -0.017  0.00  0.00    -0.306 N 
ATOM     17  C   UNL     1      -0.873  -6.392  -0.024  0.00  0.00    +0.219 C 
ATOM     18  O   UNL     1       0.150  -7.043  -0.037  0.00  0.00    -0.275 OA
ATOM     19  H   UNL     1      -1.634  -4.525  -0.007  0.00  0.00    +0.149 HD
BRANCH  16  20
ATOM     20  C   UNL     1       0.483  -4.368  -0.026  0.00  0.00    +0.200 C 
BRANCH  20  27
ATOM     21  C   UNL     1      -0.016   1.316   0.009  0.00  0.00    +0.120 A 
ATOM     22  C   UNL     1       1.183   1.948   0.001  0.00  0.00    +0.068 A 
ATOM     23  S   UNL     1       2.296   0.552  -0.017  0.00  0.00    -0.061 S 
ATOM     24  C   UNL     1       1.137  -0.669  -0.012  0.00  0.00    +0.164 A 
ATOM     25  N   UNL     1       0.002  -0.004   0.002  0.00  0.00    -0.233 NA
ATOM     26  N   UNL     1       1.333  -2.045  -0.022  0.00  0.00    -0.263 N 
ATOM     27  C   UNL     1       0.272  -2.876  -0.016  0.00  0.00    +0.236 C 
ATOM     28  O   UNL     1      -0.854  -2.423  -0.003  0.00  0.00    -0.274 OA
ATOM     29  H   UNL     1       2.232  -2.407  -0.032  0.00  0.00    +0.157 HD
ENDBRANCH  20  27
ENDBRANCH  16  20
ENDBRANCH   1  17
TORSDOF 4
