REMARK  Name = ZINC05994379
REMARK  10 active torsions:
REMARK  status: ('A' for Active; 'I' for Inactive)
REMARK    1  A    between atoms: C_1  and  C_2
REMARK    2  A    between atoms: C_4  and  O_9
REMARK    3  A    between atoms: O_9  and  C_10
REMARK    4  A    between atoms: C_10  and  C_11
REMARK    5  A    between atoms: C_11  and  O_13
REMARK    6  A    between atoms: O_13  and  C_14
REMARK    7  A    between atoms: C_14  and  C_15
REMARK    8  A    between atoms: C_19  and  C_28
REMARK    9  A    between atoms: C_24  and  C_26
REMARK   10  A    between atoms: C_24  and  C_27
REMARK                            x       y       z     vdW  Elec       q    Type
REMARK                         _______ _______ _______ _____ _____    ______ ____
ROOT
ATOM      1  C   UNL     1      -0.974   1.750   3.611  0.00  0.00    +0.328 C 
ENDROOT
BRANCH   1   2
ATOM      2  C   UNL     1      -0.298   1.288   4.876  0.00  0.00    +0.254 C 
ATOM      3  O   UNL     1       0.700   0.602   4.815  0.00  0.00    -0.272 OA
ATOM      4  N   UNL     1      -0.804   1.637   6.077  0.00  0.00    -0.295 N 
ATOM      5  C   UNL     1      -1.995   2.472   6.298  0.00  0.00    +0.115 C 
ATOM      6  C   UNL     1      -2.207   2.531   7.829  0.00  0.00    -0.014 C 
ATOM      7  C   UNL     1      -0.762   2.354   8.367  0.00  0.00    +0.030 C 
ATOM      8  C   UNL     1      -0.255   1.261   7.393  0.00  0.00    +0.077 C 
ATOM      9  C   UNL     1      -0.878  -0.060   7.842  0.00  0.00    +0.029 C 
ATOM     10  C   UNL     1      -2.393  -0.027   7.924  0.00  0.00    -0.033 C 
ATOM     11  C   UNL     1      -3.016   1.313   8.263  0.00  0.00    +0.014 C 
ATOM     12  C   UNL     1      -2.811  -1.021   9.037  0.00  0.00    +0.011 C 
ATOM     13  C   UNL     1      -2.992  -0.566   6.616  0.00  0.00    +0.011 C 
ATOM     14  C   UNL     1      -2.840   3.857   8.277  0.00  0.00    +0.013 C 
ENDBRANCH   1   2
BRANCH   1  15
ATOM     15  O   UNL     1      -0.243   1.247   2.461  0.00  0.00    -0.453 OA
BRANCH  15  16
ATOM     16  C   UNL     1      -0.718   1.572   1.248  0.00  0.00    +0.346 C 
ATOM     17  O   UNL     1      -1.711   2.254   1.150  0.00  0.00    -0.247 OA
BRANCH  16  18
ATOM     18  C   UNL     1      -0.013   1.086   0.008  0.00  0.00    +0.349 C 
BRANCH  18  19
ATOM     19  O   UNL     1      -0.704   1.559  -1.150  0.00  0.00    -0.481 OA
BRANCH  19  23
ATOM     20  C   UNL     1      -0.969   1.736  -6.020  0.00  0.00    +0.045 C 
ATOM     21  C   UNL     1      -0.295   1.274  -4.754  0.00  0.00    -0.029 A 
ATOM     22  C   UNL     1      -0.815   1.633  -3.525  0.00  0.00    +0.050 A 
ATOM     23  C   UNL     1      -0.194   1.208  -2.360  0.00  0.00    +0.122 A 
ATOM     24  C   UNL     1       0.951   0.428  -2.430  0.00  0.00    +0.047 A 
ATOM     25  C   UNL     1       1.465   0.067  -3.661  0.00  0.00    +0.024 A 
ATOM     26  C   UNL     1       0.844   0.492  -4.822  0.00  0.00    +0.044 A 
ATOM     27 CL   UNL     1       1.496   0.043  -6.368  0.00  0.00    -0.083 Cl
ENDBRANCH  19  23
ENDBRANCH  18  19
ENDBRANCH  16  18
ENDBRANCH  15  16
ENDBRANCH   1  15
TORSDOF 6
