REMARK  Name = ZINC13832960
REMARK  11 active torsions:
REMARK  status: ('A' for Active; 'I' for Inactive)
REMARK    1  A    between atoms: C_1  and  C_2
REMARK    2  A    between atoms: C_6  and  O_29
REMARK    3  A    between atoms: C_12  and  C_22
REMARK    4  A    between atoms: N_13  and  C_14
REMARK    5  A    between atoms: C_14  and  C_15
REMARK    6  A    between atoms: C_22  and  C_23
REMARK    7  A    between atoms: C_23  and  C_24
REMARK    8  A    between atoms: C_23  and  C_25
REMARK    9  A    between atoms: C_23  and  C_26
REMARK   10  A    between atoms: O_29  and  C_30
REMARK   11  A    between atoms: C_30  and  C_31
REMARK                            x       y       z     vdW  Elec       q    Type
REMARK                         _______ _______ _______ _____ _____    ______ ____
ROOT
ATOM      1  C   UNL     1      -6.095   2.062   0.635  0.00  0.00    +0.019 C 
ATOM      2  C   UNL     1      -4.776   1.983   1.406  0.00  0.00    +0.053 C 
ATOM      3  C   UNL     1      -4.726   3.113   2.433  0.00  0.00    +0.053 C 
ATOM      4  C   UNL     1      -3.487   3.101   3.269  0.00  0.00    +0.006 A 
ATOM      5  C   UNL     1      -3.432   3.462   4.603  0.00  0.00    +0.125 A 
ATOM      6  C   UNL     1      -2.221   3.438   5.296  0.00  0.00    +0.048 A 
ATOM      7  C   UNL     1      -1.011   3.068   4.729  0.00  0.00    +0.030 A 
ATOM      8  C   UNL     1      -1.034   2.693   3.387  0.00  0.00    +0.051 A 
ATOM      9  C   UNL     1      -2.267   2.710   2.718  0.00  0.00    +0.020 A 
ATOM     10  C   UNL     1      -2.023   2.247   1.346  0.00  0.00    +0.037 A 
ATOM     11  C   UNL     1      -0.724   2.012   1.250  0.00  0.00    +0.035 A 
ATOM     12  N   UNL     1      -0.109   2.276   2.473  0.00  0.00    -0.338 N 
ATOM     13  S   UNL     1      -3.385   2.113   0.230  0.00  0.00    -0.119 S 
ENDROOT
BRANCH  12  14
ATOM     14  C   UNL     1       1.325   2.131   2.738  0.00  0.00    +0.157 C 
BRANCH  14  15
ATOM     15  C   UNL     1       2.026   3.429   2.432  0.00  0.00    -0.028 A 
ATOM     16  C   UNL     1       2.525   3.663   1.165  0.00  0.00    +0.007 A 
ATOM     17  C   UNL     1       3.163   4.856   0.882  0.00  0.00    +0.020 A 
ATOM     18  C   UNL     1       3.313   5.811   1.871  0.00  0.00    +0.041 A 
ATOM     19  C   UNL     1       2.818   5.574   3.141  0.00  0.00    +0.020 A 
ATOM     20  C   UNL     1       2.175   4.384   3.421  0.00  0.00    +0.007 A 
ATOM     21 CL   UNL     1       4.121   7.307   1.519  0.00  0.00    -0.084 Cl
ENDBRANCH  14  15
ENDBRANCH  12  14
BRANCH  11  22
ATOM     22  C   UNL     1      -0.019   1.526   0.010  0.00  0.00    +0.072 C 
BRANCH  22  23
ATOM     23  C   UNL     1       0.002  -0.004   0.002  0.00  0.00    +0.072 C 
ATOM     24  C   UNL     1       0.742  -0.511   1.242  0.00  0.00    +0.023 C 
ATOM     25  C   UNL     1      -1.433  -0.534   0.013  0.00  0.00    +0.023 C 
BRANCH  23  26
ATOM     26  C   UNL     1       0.707  -0.490  -1.238  0.00  0.00    +0.362 C 
ATOM     27  O   UNL     1       1.148   0.305  -2.033  0.00  0.00    -0.246 OA
ATOM     28  O   UNL     1       0.846  -1.807  -1.459  0.00  0.00    -0.246 OA
ENDBRANCH  23  26
ENDBRANCH  22  23
ENDBRANCH  11  22
BRANCH   5  29
ATOM     29  O   UNL     1      -4.568   3.845   5.245  0.00  0.00    -0.486 OA
BRANCH  29  30
ATOM     30  C   UNL     1      -4.445   4.207   6.622  0.00  0.00    +0.284 C 
BRANCH  30  31
ATOM     31  C   UNL     1      -5.796   4.599   7.160  0.00  0.00    +0.078 A 
ATOM     32  C   UNL     1      -6.899   4.570   6.327  0.00  0.00    +0.027 A 
ATOM     33  C   UNL     1      -8.138   4.928   6.834  0.00  0.00    +0.003 A 
ATOM     34  C   UNL     1      -8.221   5.314   8.164  0.00  0.00    +0.020 A 
ATOM     35  C   UNL     1      -7.075   5.323   8.935  0.00  0.00    +0.111 A 
ATOM     36  N   UNL     1      -5.912   4.971   8.420  0.00  0.00    -0.256 NA
ENDBRANCH  30  31
ENDBRANCH  29  30
ENDBRANCH   5  29
TORSDOF 8
