REMARK  Name = ZINC14278697
REMARK  6 active torsions:
REMARK  status: ('A' for Active; 'I' for Inactive)
REMARK    1  A    between atoms: C_3  and  O_25
REMARK    2  A    between atoms: C_6  and  N_7
REMARK    3  A    between atoms: C_8  and  C_10
REMARK    4  A    between atoms: C_11  and  C_12
REMARK    5  A    between atoms: C_15  and  C_17
REMARK    6  A    between atoms: O_25  and  C_26
REMARK                            x       y       z     vdW  Elec       q    Type
REMARK                         _______ _______ _______ _____ _____    ______ ____
ROOT
ATOM      1  N   UNL     1      -1.955  -4.371  -0.007  0.00  0.00    -0.282 N 
ATOM      2  C   UNL     1      -2.116  -3.033   0.018  0.00  0.00    +0.241 C 
ATOM      3  O   UNL     1      -3.235  -2.555   0.059  0.00  0.00    -0.270 OA
ATOM      4  H   UNL     1      -1.067  -4.751  -0.103  0.00  0.00    +0.155 HD
ENDROOT
BRANCH   1  10
ATOM      5  C   UNL     1      -2.959  -6.422   0.780  0.00  0.00    +0.027 A 
ATOM      6  C   UNL     1      -4.059  -7.248   0.896  0.00  0.00    +0.048 A 
ATOM      7  C   UNL     1      -5.270  -6.876   0.330  0.00  0.00    +0.129 A 
ATOM      8  C   UNL     1      -5.378  -5.670  -0.347  0.00  0.00    +0.048 A 
ATOM      9  C   UNL     1      -4.280  -4.840  -0.459  0.00  0.00    +0.027 A 
ATOM     10  C   UNL     1      -3.068  -5.212   0.106  0.00  0.00    +0.034 A 
BRANCH   7  11
ATOM     11  O   UNL     1      -6.351  -7.693   0.441  0.00  0.00    -0.456 OA
BRANCH  11  12
ATOM     12  C   UNL     1      -6.724  -8.409  -0.653  0.00  0.00    +0.129 A 
ATOM     13  C   UNL     1      -6.074  -8.216  -1.864  0.00  0.00    +0.048 A 
ATOM     14  C   UNL     1      -6.451  -8.949  -2.973  0.00  0.00    +0.023 A 
ATOM     15  C   UNL     1      -7.483  -9.867  -2.879  0.00  0.00    +0.041 A 
ATOM     16  C   UNL     1      -8.135 -10.056  -1.673  0.00  0.00    +0.023 A 
ATOM     17  C   UNL     1      -7.758  -9.330  -0.561  0.00  0.00    +0.048 A 
ATOM     18 CL   UNL     1      -7.959 -10.781  -4.275  0.00  0.00    -0.084 Cl
ENDBRANCH  11  12
ENDBRANCH   7  11
ENDBRANCH   1  10
BRANCH   2  19
ATOM     19  C   UNL     1      -0.985  -2.184  -0.004  0.00  0.00    +0.071 C 
ATOM     20  C   UNL     1      -1.147  -0.837   0.021  0.00  0.00    +0.051 C 
BRANCH  20  21
ATOM     21  C   UNL     1      -0.016   0.012  -0.001  0.00  0.00    +0.129 A 
ATOM     22  C   UNL     1      -0.037   1.394   0.020  0.00  0.00    +0.050 A 
ATOM     23  C   UNL     1       1.294   1.818  -0.013  0.00  0.00    +0.050 A 
ATOM     24  C   UNL     1       2.073   0.696  -0.053  0.00  0.00    +0.136 A 
ATOM     25  O   UNL     1       1.273  -0.386  -0.045  0.00  0.00    -0.455 OA
BRANCH  24  26
ATOM     26  C   UNL     1       3.548   0.674  -0.098  0.00  0.00    +0.020 A 
ATOM     27  C   UNL     1       4.267   1.871  -0.107  0.00  0.00    +0.031 A 
ATOM     28  C   UNL     1       5.647   1.844  -0.144  0.00  0.00    +0.043 A 
ATOM     29  C   UNL     1       6.318   0.633  -0.182  0.00  0.00    +0.040 A 
ATOM     30  C   UNL     1       5.611  -0.558  -0.178  0.00  0.00    +0.043 A 
ATOM     31  C   UNL     1       4.231  -0.544  -0.136  0.00  0.00    +0.031 A 
ATOM     32 CL   UNL     1       6.461  -2.071  -0.227  0.00  0.00    -0.083 Cl
ATOM     33 CL   UNL     1       6.543   3.330  -0.149  0.00  0.00    -0.083 Cl
ENDBRANCH  24  26
ENDBRANCH  20  21
ENDBRANCH   2  19
TORSDOF 6
