REMARK  Name = ZINC13749908
REMARK  17 active torsions:
REMARK  status: ('A' for Active; 'I' for Inactive)
REMARK    1  A    between atoms: C_1  and  C_2
REMARK    2  A    between atoms: C_2  and  O_3
REMARK    3  A    between atoms: O_3  and  C_4
REMARK    4  A    between atoms: C_7  and  C_13
REMARK    5  A    between atoms: C_9  and  O_10
REMARK    6  A    between atoms: O_10  and  C_11
REMARK    7  A    between atoms: C_11  and  C_12
REMARK    8  A    between atoms: C_13  and  C_14
REMARK    9  A    between atoms: C_18  and  O_37
REMARK   10  A    between atoms: C_19  and  O_34
REMARK   11  A    between atoms: C_25  and  C_27
REMARK   12  A    between atoms: C_27  and  N_84
REMARK   13  A    between atoms: C_28  and  N_84
REMARK   14  A    between atoms: O_34  and  C_35
REMARK   15  A    between atoms: C_35  and  C_36
REMARK   16  A    between atoms: O_37  and  C_38
REMARK   17  A    between atoms: C_38  and  C_39
REMARK                            x       y       z     vdW  Elec       q    Type
REMARK                         _______ _______ _______ _____ _____    ______ ____
ROOT
ATOM      1  C   UNL     1       2.206   1.668   1.164  0.00  0.00    +0.111 C 
ATOM      2  C   UNL     1       1.991   0.227   1.553  0.00  0.00    -0.020 A 
ATOM      3  C   UNL     1       2.859  -0.327   2.485  0.00  0.00    +0.055 A 
ATOM      4  C   UNL     1       2.701  -1.636   2.901  0.00  0.00    +0.162 A 
ATOM      5  C   UNL     1       1.663  -2.402   2.379  0.00  0.00    +0.162 A 
ATOM      6  C   UNL     1       0.806  -1.849   1.447  0.00  0.00    +0.053 A 
ATOM      7  C   UNL     1       0.970  -0.533   1.028  0.00  0.00    -0.037 A 
ATOM      8  C   UNL     1       0.002  -0.004   0.002  0.00  0.00    +0.054 C 
ATOM      9  C   UNL     1      -0.019   1.524   0.010  0.00  0.00    +0.113 C 
ATOM     10  N   UNL     1       1.376   1.995  -0.000  0.00  0.00    -0.295 N 
ATOM     11  C   UNL     1       1.870   2.699  -1.038  0.00  0.00    +0.199 C 
ATOM     12  O   UNL     1       3.023   3.075  -1.022  0.00  0.00    -0.278 OA
ENDROOT
BRANCH   1  13
ATOM     13  C   UNL     1       1.821   2.574   2.335  0.00  0.00    +0.062 C 
BRANCH  13  17
ATOM     14  C   UNL     1       2.749   6.634   1.363  0.00  0.00    +0.162 A 
ATOM     15  C   UNL     1       1.504   6.112   1.052  0.00  0.00    +0.050 A 
ATOM     16  C   UNL     1       1.207   4.799   1.367  0.00  0.00    +0.007 A 
ATOM     17  C   UNL     1       2.150   4.004   1.992  0.00  0.00    -0.042 A 
ATOM     18  C   UNL     1       3.393   4.521   2.309  0.00  0.00    +0.053 A 
ATOM     19  C   UNL     1       3.699   5.834   1.991  0.00  0.00    +0.162 A 
BRANCH  14  20
ATOM     20  O   UNL     1       3.043   7.925   1.054  0.00  0.00    -0.489 OA
BRANCH  20  22
ATOM     21  C   UNL     1       2.530  10.104   0.143  0.00  0.00    +0.048 C 
ATOM     22  C   UNL     1       2.020   8.687   0.409  0.00  0.00    +0.226 C 
ENDBRANCH  20  22
ENDBRANCH  14  20
BRANCH  19  23
ATOM     23  O   UNL     1       4.923   6.342   2.298  0.00  0.00    -0.489 OA
BRANCH  23  24
ATOM     24  C   UNL     1       5.847   5.463   2.943  0.00  0.00    +0.226 C 
ATOM     25  C   UNL     1       7.158   6.207   3.206  0.00  0.00    +0.048 C 
ENDBRANCH  23  24
ENDBRANCH  19  23
ENDBRANCH  13  17
ENDBRANCH   1  13
BRANCH  11  26
ATOM     26  C   UNL     1       0.990   3.019  -2.219  0.00  0.00    +0.015 C 
BRANCH  26  27
ATOM     27  N   UNL     1       1.767   3.791  -3.206  0.00  0.00    +0.387 N 
ATOM     28  H   UNL     1       2.574   3.235  -3.513  0.00  0.00    -0.085 HD
ATOM     29  H   UNL     1       2.097   4.661  -2.772  0.00  0.00    -0.085 HD
BRANCH  27  30
ATOM     30  C   UNL     1       0.929   4.119  -4.375  0.00  0.00    -0.071 C 
ATOM     31  C   UNL     1       0.953   2.951  -5.363  0.00  0.00    -0.016 C 
ATOM     32  C   UNL     1       0.090   3.295  -6.580  0.00  0.00    -0.002 C 
ATOM     33  C   UNL     1       0.644   4.549  -7.259  0.00  0.00    -0.000 C 
ATOM     34  C   UNL     1       0.621   5.717  -6.270  0.00  0.00    -0.002 C 
ATOM     35  C   UNL     1       1.483   5.373  -5.054  0.00  0.00    -0.016 C 
ENDBRANCH  27  30
ENDBRANCH  26  27
ENDBRANCH  11  26
BRANCH   5  36
ATOM     36  O   UNL     1       1.494  -3.690   2.783  0.00  0.00    -0.489 OA
BRANCH  36  37
ATOM     37  C   UNL     1       0.407  -4.414   2.204  0.00  0.00    +0.226 C 
ATOM     38  C   UNL     1       0.377  -5.833   2.776  0.00  0.00    +0.048 C 
ENDBRANCH  36  37
ENDBRANCH   5  36
BRANCH   4  39
ATOM     39  O   UNL     1       3.555  -2.171   3.815  0.00  0.00    -0.489 OA
BRANCH  39  40
ATOM     40  C   UNL     1       4.595  -1.323   4.306  0.00  0.00    +0.226 C 
ATOM     41  C   UNL     1       5.447  -2.094   5.316  0.00  0.00    +0.048 C 
ENDBRANCH  39  40
ENDBRANCH   4  39
TORSDOF 13
