REMARK  Name = ZINC25401577
REMARK  6 active torsions:
REMARK  status: ('A' for Active; 'I' for Inactive)
REMARK    1  A    between atoms: C_4  and  C_7
REMARK    2  A    between atoms: N_10  and  C_18
REMARK    3  A    between atoms: C_18  and  C_19
REMARK    4  A    between atoms: N_21  and  C_22
REMARK    5  A    between atoms: C_22  and  C_23
REMARK    6  A    between atoms: N_25  and  C_26
REMARK                            x       y       z     vdW  Elec       q    Type
REMARK                         _______ _______ _______ _____ _____    ______ ____
ROOT
ATOM      1  C   UNL     1       8.177   2.892  -0.421  0.00  0.00    +0.019 C 
ENDROOT
BRANCH   1   4
ATOM      2  C   UNL     1      11.756   3.904  -0.824  0.00  0.00    +0.033 C 
ATOM      3  C   UNL     1      10.590   3.070  -0.293  0.00  0.00    -0.065 C 
ATOM      4  N   UNL     1       9.335   3.780  -0.585  0.00  0.00    +0.389 N 
ATOM      5  C   UNL     1       9.213   4.966   0.270  0.00  0.00    -0.042 C 
ATOM      6  C   UNL     1      10.450   5.819   0.167  0.00  0.00    -0.060 A 
ATOM      7  C   UNL     1      11.634   5.326  -0.339  0.00  0.00    -0.040 A 
ATOM      8  C   UNL     1      12.749   6.147  -0.409  0.00  0.00    +0.004 A 
ATOM      9  C   UNL     1      12.680   7.456   0.023  0.00  0.00    +0.000 A 
ATOM     10  C   UNL     1      11.492   7.952   0.527  0.00  0.00    +0.000 A 
ATOM     11  C   UNL     1      10.382   7.135   0.599  0.00  0.00    +0.002 A 
ATOM     12  H   UNL     1       9.355   4.111  -1.633  0.00  0.00    -0.081 HD
BRANCH   2  16
ATOM     13  C   UNL     1      15.439   2.248   0.568  0.00  0.00    +0.000 A 
ATOM     14  C   UNL     1      15.192   2.341  -0.789  0.00  0.00    +0.000 A 
ATOM     15  C   UNL     1      14.000   2.877  -1.240  0.00  0.00    +0.004 A 
ATOM     16  C   UNL     1      13.055   3.320  -0.333  0.00  0.00    -0.042 A 
ATOM     17  C   UNL     1      13.304   3.231   1.024  0.00  0.00    +0.004 A 
ATOM     18  C   UNL     1      14.493   2.689   1.474  0.00  0.00    +0.000 A 
ENDBRANCH   2  16
ENDBRANCH   1   4
BRANCH   1  19
ATOM     19  C   UNL     1       8.209   1.823  -1.483  0.00  0.00    +0.197 C 
ATOM     20  O   UNL     1       9.147   1.759  -2.250  0.00  0.00    -0.278 OA
ATOM     21  N   UNL     1       7.197   0.939  -1.581  0.00  0.00    -0.308 N 
ATOM     22  H   UNL     1       6.347   0.997  -0.885  0.00  0.00    +0.149 HD
BRANCH  21  23
ATOM     23  C   UNL     1       7.229  -0.100  -2.613  0.00  0.00    +0.200 C 
BRANCH  23  24
ATOM     24  C   UNL     1       5.989  -0.951  -2.508  0.00  0.00    +0.234 C 
ATOM     25  O   UNL     1       5.161  -0.713  -1.655  0.00  0.00    -0.274 OA
ATOM     26  N   UNL     1       5.801  -1.976  -3.362  0.00  0.00    -0.282 N 
ATOM     27  H   UNL     1       6.591  -2.249  -4.077  0.00  0.00    +0.155 HD
BRANCH  26  28
ATOM     28  C   UNL     1       4.598  -2.695  -3.340  0.00  0.00    +0.072 A 
ATOM     29  C   UNL     1       3.442  -2.101  -2.852  0.00  0.00    +0.029 A 
ATOM     30  C   UNL     1       2.257  -2.811  -2.829  0.00  0.00    +0.043 A 
ATOM     31  C   UNL     1       2.220  -4.116  -3.289  0.00  0.00    +0.161 A 
ATOM     32  C   UNL     1       3.371  -4.711  -3.783  0.00  0.00    +0.195 A 
ATOM     33  C   UNL     1       4.561  -4.003  -3.807  0.00  0.00    +0.182 A 
ATOM     34  F   UNL     1       5.684  -4.584  -4.283  0.00  0.00    -0.200 F 
ATOM     35  F   UNL     1       3.332  -5.983  -4.236  0.00  0.00    -0.199 F 
ATOM     36  F   UNL     1       1.061  -4.809  -3.260  0.00  0.00    -0.202 F 
ENDBRANCH  26  28
ENDBRANCH  23  24
ENDBRANCH  21  23
ENDBRANCH   1  19
TORSDOF 6
