REMARK  Name = ZINC59165207
REMARK  9 active torsions:
REMARK  status: ('A' for Active; 'I' for Inactive)
REMARK    1  A    between atoms: C_3  and  O_13
REMARK    2  A    between atoms: C_6  and  C_7
REMARK    3  A    between atoms: O_13  and  C_14
REMARK    4  A    between atoms: C_14  and  C_15
REMARK    5  A    between atoms: N_17  and  N_18
REMARK    6  A    between atoms: C_19  and  C_20
REMARK    7  A    between atoms: C_21  and  O_28
REMARK    8  A    between atoms: C_23  and  O_27
REMARK    9  A    between atoms: C_25  and  O_26
REMARK                            x       y       z     vdW  Elec       q    Type
REMARK                         _______ _______ _______ _____ _____    ______ ____
ROOT
ATOM      1  C   UNL     1       5.940   2.274  -0.043  0.00  0.00    +0.270 C 
ATOM      2  O   UNL     1       5.766   3.474  -0.036  0.00  0.00    -0.270 OA
ATOM      3  N   UNL     1       7.192   1.774  -0.058  0.00  0.00    -0.204 N 
ATOM      4  H   UNL     1       7.331   0.814  -0.064  0.00  0.00    +0.177 HD
ENDROOT
BRANCH   3   5
ATOM      5  N   UNL     1       8.292   2.642  -0.064  0.00  0.00    -0.187 NA
ATOM      6  C   UNL     1       9.498   2.160  -0.078  0.00  0.00    +0.145 C 
BRANCH   6   7
ATOM      7  C   UNL     1      10.654   3.072  -0.085  0.00  0.00    +0.078 A 
ATOM      8  C   UNL     1      10.457   4.460  -0.070  0.00  0.00    +0.132 A 
ATOM      9  C   UNL     1      11.548   5.310  -0.076  0.00  0.00    +0.091 A 
ATOM     10  C   UNL     1      12.836   4.792  -0.097  0.00  0.00    +0.124 A 
ATOM     11  C   UNL     1      13.039   3.419  -0.112  0.00  0.00    +0.091 A 
ATOM     12  C   UNL     1      11.958   2.556  -0.100  0.00  0.00    +0.132 A 
BRANCH  12  13
ATOM     13  O   UNL     1      12.158   1.213  -0.110  0.00  0.00    -0.506 OA
ATOM     14  H   UNL     1      12.208   0.829  -0.996  0.00  0.00    +0.292 HD
ENDBRANCH  12  13
BRANCH  10  15
ATOM     15  O   UNL     1      13.903   5.633  -0.104  0.00  0.00    -0.507 OA
ATOM     16  H   UNL     1      14.223   5.869   0.778  0.00  0.00    +0.292 HD
ENDBRANCH  10  15
BRANCH   8  17
ATOM     17  O   UNL     1       9.198   4.968  -0.051  0.00  0.00    -0.506 OA
ATOM     18  H   UNL     1       8.844   5.108   0.838  0.00  0.00    +0.292 HD
ENDBRANCH   8  17
ENDBRANCH   6   7
ENDBRANCH   3   5
BRANCH   1  19
ATOM     19  C   UNL     1       4.756   1.341  -0.036  0.00  0.00    +0.326 C 
BRANCH  19  20
ATOM     20  O   UNL     1       3.548   2.104  -0.021  0.00  0.00    -0.483 OA
BRANCH  20  23
ATOM     21  C   UNL     1      -0.017   1.378   0.010  0.00  0.00    +0.007 A 
ATOM     22  C   UNL     1       1.169   2.087   0.002  0.00  0.00    +0.046 A 
ATOM     23  C   UNL     1       2.380   1.409  -0.013  0.00  0.00    +0.121 A 
ATOM     24  C   UNL     1       2.396   0.022  -0.021  0.00  0.00    +0.046 A 
ATOM     25  C   UNL     1       1.207  -0.681  -0.013  0.00  0.00    +0.007 A 
ATOM     26  C   UNL     1       0.002  -0.004   0.002  0.00  0.00    -0.044 A 
BRANCH  26  27
ATOM     27  C   UNL     1      -1.293  -0.774   0.011  0.00  0.00    +0.019 C 
ATOM     28  C   UNL     1      -1.351  -1.661   1.256  0.00  0.00    +0.008 C 
ATOM     29  C   UNL     1      -2.666  -2.443   1.265  0.00  0.00    +0.001 C 
ATOM     30  C   UNL     1      -2.748  -3.317   0.011  0.00  0.00    +0.000 C 
ATOM     31  C   UNL     1      -2.691  -2.429  -1.234  0.00  0.00    +0.001 C 
ATOM     32  C   UNL     1      -1.376  -1.648  -1.242  0.00  0.00    +0.008 C 
ENDBRANCH  26  27
ENDBRANCH  20  23
ENDBRANCH  19  20
ENDBRANCH   1  19
TORSDOF 9
