REMARK  Name = ZINC06625443
REMARK  8 active torsions:
REMARK  status: ('A' for Active; 'I' for Inactive)
REMARK    1  A    between atoms: C_1  and  C_2
REMARK    2  A    between atoms: C_2  and  C_20
REMARK    3  A    between atoms: C_5  and  C_10
REMARK    4  A    between atoms: C_7  and  C_8
REMARK    5  A    between atoms: C_7  and  C_9
REMARK    6  A    between atoms: N_22  and  N_23
REMARK    7  A    between atoms: C_24  and  C_25
REMARK    8  A    between atoms: C_30  and  O_31
REMARK                            x       y       z     vdW  Elec       q    Type
REMARK                         _______ _______ _______ _____ _____    ______ ____
ROOT
ATOM      1  C   UNL     1      -0.015   1.532   0.023  0.00  0.00    +0.021 C 
ATOM      2  C   UNL     1      -0.047   0.004  -0.033  0.00  0.00    +0.052 C 
ATOM      3  C   UNL     1      -1.504  -0.497   0.041  0.00  0.00    +0.017 C 
ATOM      4  C   UNL     1      -1.419  -1.786   0.896  0.00  0.00    +0.013 C 
ATOM      5  C   UNL     1      -0.356  -1.421   1.962  0.00  0.00    +0.062 C 
ATOM      6  C   UNL     1       0.683  -0.583   1.188  0.00  0.00    -0.012 C 
ATOM      7  C   UNL     1       1.838  -1.476   0.729  0.00  0.00    +0.012 C 
ATOM      8  C   UNL     1       1.212   0.545   2.075  0.00  0.00    +0.012 C 
ENDROOT
BRANCH   5   9
ATOM      9  C   UNL     1       0.279  -2.667   2.522  0.00  0.00    +0.112 A 
ATOM     10  N   UNL     1       0.509  -3.808   1.819  0.00  0.00    -0.342 N 
ATOM     11  H   UNL     1       0.298  -3.960   0.884  0.00  0.00    +0.167 HD
ATOM     12  C   UNL     1       1.100  -4.710   2.681  0.00  0.00    +0.066 A 
ATOM     13  C   UNL     1       1.558  -6.014   2.552  0.00  0.00    +0.028 A 
ATOM     14  C   UNL     1       2.114  -6.654   3.639  0.00  0.00    +0.002 A 
ATOM     15  C   UNL     1       2.218  -6.003   4.860  0.00  0.00    +0.002 A 
ATOM     16  C   UNL     1       1.773  -4.720   5.006  0.00  0.00    +0.030 A 
ATOM     17  C   UNL     1       1.206  -4.052   3.918  0.00  0.00    +0.089 A 
ATOM     18  N   UNL     1       0.691  -2.807   3.748  0.00  0.00    -0.232 NA
ENDBRANCH   5   9
BRANCH   2  19
ATOM     19  C   UNL     1       0.602  -0.480  -1.304  0.00  0.00    +0.239 C 
ATOM     20  O   UNL     1       0.014  -1.255  -2.029  0.00  0.00    -0.273 OA
ATOM     21  N   UNL     1       1.836  -0.051  -1.636  0.00  0.00    -0.207 N 
ATOM     22  H   UNL     1       2.336   0.511  -1.024  0.00  0.00    +0.177 HD
BRANCH  21  23
ATOM     23  N   UNL     1       2.398  -0.418  -2.866  0.00  0.00    -0.188 NA
ATOM     24  C   UNL     1       3.587  -0.005  -3.186  0.00  0.00    +0.142 C 
BRANCH  24  25
ATOM     25  C   UNL     1       4.178  -0.392  -4.479  0.00  0.00    +0.036 A 
ATOM     26  C   UNL     1       5.458   0.046  -4.825  0.00  0.00    +0.013 A 
ATOM     27  C   UNL     1       6.006  -0.320  -6.037  0.00  0.00    +0.001 A 
ATOM     28  C   UNL     1       5.291  -1.119  -6.913  0.00  0.00    +0.004 A 
ATOM     29  C   UNL     1       4.023  -1.557  -6.583  0.00  0.00    +0.046 A 
ATOM     30  C   UNL     1       3.460  -1.204  -5.367  0.00  0.00    +0.125 A 
BRANCH  30  31
ATOM     31  O   UNL     1       2.216  -1.640  -5.040  0.00  0.00    -0.506 OA
ATOM     32  H   UNL     1       1.505  -1.047  -5.320  0.00  0.00    +0.292 HD
ENDBRANCH  30  31
ENDBRANCH  24  25
ENDBRANCH  21  23
ENDBRANCH   2  19
TORSDOF 5
