REMARK  Name = ZINC40321977
REMARK  7 active torsions:
REMARK  status: ('A' for Active; 'I' for Inactive)
REMARK    1  A    between atoms: C_3  and  C_6
REMARK    2  A    between atoms: C_6  and  C_8
REMARK    3  A    between atoms: C_6  and  N_27
REMARK    4  A    between atoms: C_8  and  N_9
REMARK    5  A    between atoms: C_10  and  C_12
REMARK    6  A    between atoms: C_15  and  S_17
REMARK    7  A    between atoms: S_17  and  C_20
REMARK                            x       y       z     vdW  Elec       q    Type
REMARK                         _______ _______ _______ _____ _____    ______ ____
ROOT
ATOM      1  N   UNL     1       5.594   0.291   1.331  0.00  0.00    -0.310 N 
ATOM      2  C   UNL     1       6.282   0.092   2.472  0.00  0.00    +0.279 C 
ATOM      3  O   UNL     1       5.707   0.136   3.544  0.00  0.00    -0.267 OA
ATOM      4  H   UNL     1       6.051   0.256   0.476  0.00  0.00    +0.149 HD
ENDROOT
BRANCH   2   5
ATOM      5  C   UNL     1       7.723  -0.178   2.423  0.00  0.00    +0.192 A 
ATOM      6  C   UNL     1       8.534  -0.402   3.498  0.00  0.00    +0.056 A 
ATOM      7  C   UNL     1       9.826  -0.614   2.991  0.00  0.00    +0.070 A 
ATOM      8  C   UNL     1       9.747  -0.511   1.645  0.00  0.00    +0.246 A 
ATOM      9  O   UNL     1       8.477  -0.253   1.307  0.00  0.00    -0.433 OA
BRANCH   8  10
ATOM     10  S   UNL     1      11.092  -0.692   0.522  0.00  0.00    +0.058 S 
ATOM     11  O   UNL     1      10.733   0.014  -0.658  0.00  0.00    -0.161 OA
ATOM     12  O   UNL     1      12.275  -0.402   1.254  0.00  0.00    -0.161 OA
BRANCH  10  13
ATOM     13  C   UNL     1      11.178  -2.396   0.082  0.00  0.00    +0.097 A 
ATOM     14  C   UNL     1      11.948  -3.265   0.832  0.00  0.00    +0.029 A 
ATOM     15  C   UNL     1      12.015  -4.602   0.488  0.00  0.00    +0.022 A 
ATOM     16  C   UNL     1      11.312  -5.071  -0.608  0.00  0.00    +0.041 A 
ATOM     17  C   UNL     1      10.541  -4.200  -1.358  0.00  0.00    +0.022 A 
ATOM     18  C   UNL     1      10.470  -2.865  -1.010  0.00  0.00    +0.029 A 
ATOM     19 CL   UNL     1      11.397  -6.749  -1.042  0.00  0.00    -0.084 Cl
ENDBRANCH  10  13
ENDBRANCH   8  10
ENDBRANCH   2   5
BRANCH   1  20
ATOM     20  C   UNL     1       4.154   0.560   1.380  0.00  0.00    +0.097 C 
BRANCH  20  21
ATOM     21  C   UNL     1       3.646   0.875  -0.028  0.00  0.00    +0.016 C 
BRANCH  21  22
ATOM     22  N   UNL     1       2.184   1.017  -0.000  0.00  0.00    +0.387 N 
ATOM     23  C   UNL     1       1.673   1.319  -1.361  0.00  0.00    -0.078 C 
ATOM     24  C   UNL     1       0.187   0.885  -1.287  0.00  0.00    -0.020 C 
ATOM     25  C   UNL     1       0.242  -0.383  -0.404  0.00  0.00    -0.020 C 
ATOM     26  C   UNL     1       1.554  -0.263   0.392  0.00  0.00    -0.078 C 
ATOM     27  H   UNL     1       1.917   1.748   0.643  0.00  0.00    -0.081 HD
ENDBRANCH  21  22
BRANCH  21  30
ATOM     28  C   UNL     1       5.561   3.642  -1.529  0.00  0.00    +0.041 A 
ATOM     29  C   UNL     1       5.316   2.262  -1.346  0.00  0.00    +0.043 A 
ATOM     30  C   UNL     1       4.267   2.160  -0.511  0.00  0.00    +0.093 A 
ATOM     31  O   UNL     1       3.866   3.399  -0.180  0.00  0.00    -0.469 OA
ATOM     32  C   UNL     1       4.647   4.301  -0.795  0.00  0.00    +0.195 A 
ENDBRANCH  21  30
ENDBRANCH  20  21
ENDBRANCH   1  20
TORSDOF 7
