REMARK  Name = ZINC38564946
REMARK  8 active torsions:
REMARK  status: ('A' for Active; 'I' for Inactive)
REMARK    1  A    between atoms: C_1  and  C_2
REMARK    2  A    between atoms: C_5  and  N_8
REMARK    3  A    between atoms: C_9  and  O_42
REMARK    4  A    between atoms: C_11  and  C_25
REMARK    5  A    between atoms: N_15  and  C_18
REMARK    6  A    between atoms: C_21  and  C_24
REMARK    7  A    between atoms: C_32  and  O_37
REMARK    8  A    between atoms: O_37  and  C_38
REMARK                            x       y       z     vdW  Elec       q    Type
REMARK                         _______ _______ _______ _____ _____    ______ ____
ROOT
ATOM      1  N   UNL     1       0.705  -4.025   0.006  0.00  0.00    -0.228 N 
ATOM      2  C   UNL     1       0.232  -4.603   1.265  0.00  0.00    +0.225 C 
ATOM      3  C   UNL     1       0.402  -6.123   1.225  0.00  0.00    +0.146 C 
ATOM      4  C   UNL     1      -0.121  -6.646  -0.089  0.00  0.00    +0.236 C 
ATOM      5  O   UNL     1      -0.660  -7.731  -0.140  0.00  0.00    -0.274 OA
ATOM      6  N   UNL     1       0.012  -5.908  -1.207  0.00  0.00    -0.193 N 
ATOM      7  C   UNL     1       0.521  -4.665  -1.160  0.00  0.00    +0.322 C 
ATOM      8  O   UNL     1       0.827  -4.109  -2.196  0.00  0.00    -0.251 OA
ENDROOT
BRANCH   3   9
ATOM      9  C   UNL     1       1.884  -6.476   1.364  0.00  0.00    +0.117 C 
ATOM     10  C   UNL     1       2.394  -6.004   2.705  0.00  0.00    +0.038 A 
ATOM     11  H   UNL     1       0.908  -6.541   4.062  0.00  0.00    +0.166 HD
ATOM     12  C   UNL     1       3.583  -5.376   2.861  0.00  0.00    -0.016 A 
ATOM     13  C   UNL     1       3.726  -5.077   4.269  0.00  0.00    +0.007 A 
ATOM     14  C   UNL     1       4.733  -4.447   5.007  0.00  0.00    +0.056 A 
ATOM     15  C   UNL     1       4.527  -4.332   6.374  0.00  0.00    +0.121 A 
ATOM     16  C   UNL     1       3.377  -4.817   6.984  0.00  0.00    +0.047 A 
ATOM     17  C   UNL     1       2.371  -5.443   6.269  0.00  0.00    +0.030 A 
ATOM     18  C   UNL     1       2.553  -5.572   4.895  0.00  0.00    +0.047 A 
ATOM     19  N   UNL     1       1.772  -6.125   3.917  0.00  0.00    -0.356 N 
ATOM     20  C   UNL     1       4.526  -5.085   1.722  0.00  0.00    +0.052 C 
ATOM     21  C   UNL     1       4.101  -5.944   0.523  0.00  0.00    +0.086 C 
ATOM     22  N   UNL     1       2.653  -5.805   0.304  0.00  0.00    -0.307 NA
ATOM     23  H   UNL     1       2.388  -6.147  -0.607  0.00  0.00    +0.123 HD
BRANCH  15  24
ATOM     24  O   UNL     1       5.476  -3.727   7.138  0.00  0.00    -0.495 OA
ATOM     25  C   UNL     1       5.217  -3.633   8.540  0.00  0.00    +0.277 C 
ENDBRANCH  15  24
ENDBRANCH   3   9
BRANCH   1  30
ATOM     26  C   UNL     1       3.332   1.003   0.053  0.00  0.00    +0.044 C 
ATOM     27  C   UNL     1       2.634  -0.332   0.041  0.00  0.00    -0.050 A 
ATOM     28  C   UNL     1       1.298  -0.416   0.387  0.00  0.00    +0.005 A 
ATOM     29  C   UNL     1       0.656  -1.638   0.376  0.00  0.00    +0.024 A 
ATOM     30  C   UNL     1       1.353  -2.784   0.017  0.00  0.00    +0.040 A 
ATOM     31  C   UNL     1       2.695  -2.697  -0.330  0.00  0.00    +0.024 A 
ATOM     32  C   UNL     1       3.330  -1.471  -0.323  0.00  0.00    +0.005 A 
ENDBRANCH   1  30
BRANCH   6  33
ATOM     33  C   UNL     1      -0.392  -6.441  -2.439  0.00  0.00    +0.045 A 
ATOM     34  C   UNL     1       0.488  -7.213  -3.185  0.00  0.00    +0.024 A 
ATOM     35  C   UNL     1       0.087  -7.737  -4.398  0.00  0.00    +0.005 A 
ATOM     36  C   UNL     1      -1.189  -7.493  -4.870  0.00  0.00    -0.050 A 
ATOM     37  C   UNL     1      -2.068  -6.725  -4.129  0.00  0.00    +0.005 A 
ATOM     38  C   UNL     1      -1.675  -6.204  -2.912  0.00  0.00    +0.024 A 
ATOM     39  C   UNL     1      -1.623  -8.066  -6.195  0.00  0.00    +0.044 C 
ENDBRANCH   6  33
BRANCH   2  40
ATOM     40  O   UNL     1      -1.149  -4.283   1.447  0.00  0.00    -0.373 OA
ATOM     41  H   UNL     1      -1.331  -3.334   1.482  0.00  0.00    +0.212 HD
ENDBRANCH   2  40
TORSDOF 5
