REMARK  Name = ZINC44870552
REMARK  8 active torsions:
REMARK  status: ('A' for Active; 'I' for Inactive)
REMARK    1  A    between atoms: C_1  and  C_2
REMARK    2  A    between atoms: C_2  and  C_3
REMARK    3  A    between atoms: C_3  and  N_4
REMARK    4  A    between atoms: C_5  and  C_7
REMARK    5  A    between atoms: C_7  and  S_8
REMARK    6  A    between atoms: S_8  and  C_9
REMARK    7  A    between atoms: C_13  and  C_19
REMARK    8  A    between atoms: C_14  and  C_18
REMARK                            x       y       z     vdW  Elec       q    Type
REMARK                         _______ _______ _______ _____ _____    ______ ____
ROOT
ATOM      1  C   UNL     1      -4.071  -6.513  -0.733  0.00  0.00    +0.191 A 
ATOM      2  N   UNL     1      -2.850  -7.028  -0.820  0.00  0.00    -0.207 NA
ATOM      3  C   UNL     1      -2.640  -8.333  -0.862  0.00  0.00    +0.129 A 
ATOM      4  C   UNL     1      -3.752  -9.220  -0.813  0.00  0.00    +0.050 A 
ATOM      5  C   UNL     1      -3.781 -10.672  -0.843  0.00  0.00    -0.028 A 
ATOM      6  C   UNL     1      -4.961 -11.305  -0.784  0.00  0.00    -0.008 A 
ATOM      7  S   UNL     1      -6.143  -9.973  -0.681  0.00  0.00    -0.073 S 
ATOM      8  C   UNL     1      -5.018  -8.603  -0.721  0.00  0.00    +0.115 A 
ATOM      9  N   UNL     1      -5.144  -7.291  -0.678  0.00  0.00    -0.214 NA
ATOM     10  C   UNL     1      -5.227 -12.788  -0.801  0.00  0.00    +0.052 C 
ATOM     11  C   UNL     1      -2.499 -11.459  -0.941  0.00  0.00    +0.045 C 
ATOM     12  N   UNL     1      -1.353  -8.830  -0.953  0.00  0.00    -0.343 N 
ATOM     13  H   UNL     1      -0.643  -8.275  -1.312  0.00  0.00    +0.144 HD
ATOM     14  H   UNL     1      -1.160  -9.734  -0.659  0.00  0.00    +0.144 HD
ENDROOT
BRANCH   1  15
ATOM     15  S   UNL     1      -4.269  -4.763  -0.681  0.00  0.00    -0.077 S 
BRANCH  15  16
ATOM     16  C   UNL     1      -2.574  -4.126  -0.780  0.00  0.00    +0.173 C 
BRANCH  16  18
ATOM     17  N   UNL     1      -1.447  -1.924  -0.807  0.00  0.00    -0.315 N 
ATOM     18  C   UNL     1      -2.599  -2.620  -0.746  0.00  0.00    +0.223 C 
ATOM     19  O   UNL     1      -3.658  -2.033  -0.662  0.00  0.00    -0.275 OA
ATOM     20  H   UNL     1      -0.600  -2.393  -0.874  0.00  0.00    +0.149 HD
BRANCH  17  21
ATOM     21  C   UNL     1      -1.472  -0.460  -0.773  0.00  0.00    +0.104 C 
BRANCH  21  23
ATOM     22  C   UNL     1      -0.068   1.606  -0.822  0.00  0.00    +0.005 C 
ATOM     23  C   UNL     1      -0.042   0.077  -0.857  0.00  0.00    +0.015 C 
ENDBRANCH  21  23
ENDBRANCH  17  21
ENDBRANCH  16  18
ENDBRANCH  15  16
ENDBRANCH   1  15
TORSDOF 5
