REMARK  Name = ZINC62575511
REMARK  11 active torsions:
REMARK  status: ('A' for Active; 'I' for Inactive)
REMARK    1  A    between atoms: C_1  and  C_2
REMARK    2  A    between atoms: C_2  and  N_3
REMARK    3  A    between atoms: C_6  and  N_9
REMARK    4  A    between atoms: N_9  and  C_10
REMARK    5  A    between atoms: C_11  and  C_13
REMARK    6  A    between atoms: N_24  and  S_25
REMARK    7  A    between atoms: S_25  and  C_28
REMARK    8  A    between atoms: C_29  and  C_37
REMARK    9  A    between atoms: C_31  and  O_35
REMARK   10  A    between atoms: C_33  and  C_34
REMARK   11  A    between atoms: O_35  and  C_36
REMARK                            x       y       z     vdW  Elec       q    Type
REMARK                         _______ _______ _______ _____ _____    ______ ____
ROOT
ATOM      1  C   UNL     1      -5.580  -3.724   2.972  0.00  0.00    +0.166 C 
ATOM      2  C   UNL     1      -5.473  -4.717   1.782  0.00  0.00    +0.035 C 
ATOM      3  C   UNL     1      -6.720  -5.591   1.990  0.00  0.00    +0.010 C 
ATOM      4  C   UNL     1      -6.629  -6.996   1.417  0.00  0.00    +0.005 C 
ATOM      5  C   UNL     1      -7.903  -7.744   1.838  0.00  0.00    +0.000 C 
ATOM      6  C   UNL     1      -8.056  -7.779   3.356  0.00  0.00    +0.002 C 
ATOM      7  C   UNL     1      -8.012  -6.364   3.956  0.00  0.00    +0.021 C 
ATOM      8  C   UNL     1      -6.711  -5.719   3.538  0.00  0.00    +0.084 C 
ATOM      9  N   UNL     1      -6.426  -4.367   4.005  0.00  0.00    -0.161 NA
ENDROOT
BRANCH   1  12
ATOM     10  N   UNL     1      -3.270  -2.867   2.758  0.00  0.00    -0.300 N 
ATOM     11  C   UNL     1      -3.581  -2.511   1.371  0.00  0.00    +0.132 C 
ATOM     12  C   UNL     1      -4.209  -3.445   3.532  0.00  0.00    +0.234 C 
ATOM     13  O   UNL     1      -3.952  -3.740   4.680  0.00  0.00    -0.274 OA
BRANCH  10  17
ATOM     14  N   UNL     1       0.730  -1.544   2.885  0.00  0.00    +0.380 N 
ATOM     15  C   UNL     1      -0.230  -0.825   3.731  0.00  0.00    -0.077 C 
ATOM     16  C   UNL     1      -1.653  -1.093   3.235  0.00  0.00    +0.004 C 
ATOM     17  C   UNL     1      -1.937  -2.596   3.302  0.00  0.00    +0.072 C 
ATOM     18  C   UNL     1      -0.885  -3.342   2.477  0.00  0.00    +0.004 C 
ATOM     19  C   UNL     1       0.509  -2.991   3.001  0.00  0.00    -0.077 C 
ATOM     20  H   UNL     1       0.606  -1.262   1.925  0.00  0.00    -0.082 HD
BRANCH  14  22
ATOM     21  C   UNL     1       2.370   0.264   3.080  0.00  0.00    -0.017 C 
ATOM     22  C   UNL     1       2.097  -1.223   3.317  0.00  0.00    -0.082 C 
ENDBRANCH  14  22
ENDBRANCH  10  17
ENDBRANCH   1  12
BRANCH   9  23
ATOM     23  S   UNL     1      -6.946  -3.679   5.419  0.00  0.00    +0.062 S 
ATOM     24  O   UNL     1      -6.732  -4.642   6.442  0.00  0.00    -0.153 OA
ATOM     25  O   UNL     1      -6.381  -2.377   5.468  0.00  0.00    -0.153 OA
BRANCH  23  26
ATOM     26  C   UNL     1      -8.690  -3.468   5.285  0.00  0.00    +0.112 A 
ATOM     27  C   UNL     1      -9.540  -4.232   6.062  0.00  0.00    -0.020 A 
ATOM     28  C   UNL     1     -10.908  -4.068   5.959  0.00  0.00    +0.051 A 
ATOM     29  C   UNL     1     -11.429  -3.135   5.074  0.00  0.00    +0.121 A 
ATOM     30  C   UNL     1     -10.574  -2.369   4.295  0.00  0.00    +0.051 A 
ATOM     31  C   UNL     1      -9.207  -2.533   4.406  0.00  0.00    -0.020 A 
ATOM     32  C   UNL     1      -8.277  -1.697   3.565  0.00  0.00    +0.046 C 
ATOM     33  C   UNL     1      -8.974  -5.245   7.024  0.00  0.00    +0.046 C 
BRANCH  29  34
ATOM     34  O   UNL     1     -12.774  -2.973   4.970  0.00  0.00    -0.495 OA
ATOM     35  C   UNL     1     -13.239  -1.994   4.038  0.00  0.00    +0.277 C 
ENDBRANCH  29  34
ENDBRANCH  23  26
ENDBRANCH   9  23
TORSDOF 6
