REMARK  Name = ZINC08722170
REMARK  3 active torsions:
REMARK  status: ('A' for Active; 'I' for Inactive)
REMARK    1  A    between atoms: C_4  and  C_7
REMARK    2  A    between atoms: C_7  and  N_51
REMARK    3  A    between atoms: C_18  and  C_21
REMARK                            x       y       z     vdW  Elec       q    Type
REMARK                         _______ _______ _______ _____ _____    ______ ____
ROOT
ATOM      1  C   UNL     1       4.221   4.740  -1.445  0.00  0.00    -0.073 C 
ATOM      2  C   UNL     1       4.766   4.650  -2.873  0.00  0.00    +0.018 C 
ATOM      3  C   UNL     1       3.742   5.277  -3.814  0.00  0.00    -0.027 A 
ATOM      4  C   UNL     1       2.467   5.461  -3.399  0.00  0.00    -0.021 A 
ATOM      5  S   UNL     1       1.643   6.213  -4.776  0.00  0.00    -0.080 S 
ATOM      6  C   UNL     1       2.958   6.278  -5.871  0.00  0.00    +0.080 A 
ATOM      7  C   UNL     1       4.033   5.712  -5.168  0.00  0.00    +0.068 A 
ATOM      8  C   UNL     1       5.336   5.626  -5.866  0.00  0.00    +0.248 C 
ATOM      9  O   UNL     1       6.343   5.264  -5.286  0.00  0.00    -0.270 OA
ATOM     10  N   UNL     1       5.362   5.967  -7.171  0.00  0.00    -0.289 N 
ATOM     11  C   UNL     1       4.161   6.184  -7.971  0.00  0.00    +0.192 C 
ATOM     12  N   UNL     1       3.070   6.746  -7.155  0.00  0.00    -0.316 N 
ATOM     13  C   UNL     1       1.906   5.099  -2.060  0.00  0.00    -0.035 C 
ATOM     14  H   UNL     1       6.226   6.075  -7.601  0.00  0.00    +0.151 HD
ATOM     15  H   UNL     1       2.461   7.413  -7.508  0.00  0.00    +0.149 HD
ATOM     16  N   UNL     1       2.859   4.172  -1.403  0.00  0.00    +0.386 N 
ATOM     17  H   UNL     1       2.854   3.277  -1.906  0.00  0.00    -0.081 HD
ENDROOT
BRANCH  11  18
ATOM     18  C   UNL     1       3.714   4.869  -8.556  0.00  0.00    +0.013 A 
ATOM     19  C   UNL     1       4.630   3.852  -8.748  0.00  0.00    +0.058 A 
ATOM     20  C   UNL     1       4.222   2.642  -9.285  0.00  0.00    +0.167 A 
ATOM     21  C   UNL     1       2.886   2.453  -9.631  0.00  0.00    +0.168 A 
ATOM     22  C   UNL     1       1.972   3.476  -9.436  0.00  0.00    +0.070 A 
ATOM     23  C   UNL     1       2.386   4.680  -8.894  0.00  0.00    +0.051 A 
ATOM     24 CL   UNL     1       1.238   5.958  -8.643  0.00  0.00    -0.083 Cl
ATOM     25  O   UNL     1       2.739   1.192 -10.133  0.00  0.00    -0.453 OA
ATOM     26  C   UNL     1       4.069   0.756 -10.471  0.00  0.00    +0.466 C 
ATOM     27  O   UNL     1       4.912   1.499  -9.571  0.00  0.00    -0.453 OA
ENDBRANCH  11  18
BRANCH  16  28
ATOM     28  C   UNL     1       2.451   3.937  -0.001  0.00  0.00    -0.043 C 
BRANCH  28  32
ATOM     29  C   UNL     1      -1.219   1.751   0.017  0.00  0.00    +0.000 A 
ATOM     30  C   UNL     1      -0.013   1.076   0.008  0.00  0.00    +0.000 A 
ATOM     31  C   UNL     1       1.175   1.783   0.000  0.00  0.00    +0.002 A 
ATOM     32  C   UNL     1       1.156   3.165   0.008  0.00  0.00    -0.064 A 
ATOM     33  C   UNL     1      -0.050   3.840   0.022  0.00  0.00    +0.002 A 
ATOM     34  C   UNL     1      -1.238   3.133   0.030  0.00  0.00    +0.000 A 
ENDBRANCH  28  32
ENDBRANCH  16  28
TORSDOF 3
