REMARK  Name = ZINC02964005
REMARK  12 active torsions:
REMARK  status: ('A' for Active; 'I' for Inactive)
REMARK    1  A    between atoms: C_1  and  C_2
REMARK    2  A    between atoms: C_2  and  C_3
REMARK    3  A    between atoms: C_3  and  C_4
REMARK    4  A    between atoms: C_4  and  C_5
REMARK    5  A    between atoms: C_5  and  C_6
REMARK    6  A    between atoms: C_6  and  C_7
REMARK    7  A    between atoms: C_11  and  C_26
REMARK    8  A    between atoms: N_13  and  C_14
REMARK    9  A    between atoms: C_24  and  O_25
REMARK   10  A    between atoms: C_28  and  C_31
REMARK   11  A    between atoms: C_34  and  O_37
REMARK   12  A    between atoms: O_37  and  C_38
REMARK                            x       y       z     vdW  Elec       q    Type
REMARK                         _______ _______ _______ _____ _____    ______ ____
ROOT
ATOM      1  C   UNL     1      -1.414  -0.494  -0.005  0.00  0.00    -0.005 A 
ATOM      2  C   UNL     1      -1.990  -0.927  -1.165  0.00  0.00    +0.018 A 
ATOM      3  C   UNL     1      -3.302  -1.416  -1.151  0.00  0.00    +0.019 A 
ATOM      4  C   UNL     1      -3.943  -1.879  -2.384  0.00  0.00    +0.027 A 
ATOM      5  C   UNL     1      -5.313  -2.087  -2.351  0.00  0.00    +0.068 A 
ATOM      6  C   UNL     1      -6.004  -1.825  -1.073  0.00  0.00    +0.209 A 
ATOM      7  N   UNL     1      -7.275  -1.486  -1.046  0.00  0.00    -0.325 N 
ATOM      8  O   UNL     1      -5.287  -1.945   0.074  0.00  0.00    -0.439 OA
ATOM      9  C   UNL     1      -4.019  -1.464   0.060  0.00  0.00    +0.141 A 
ATOM     10  C   UNL     1      -3.421  -1.021   1.227  0.00  0.00    +0.092 A 
ATOM     11  C   UNL     1      -2.119  -0.542   1.194  0.00  0.00    +0.124 A 
ATOM     12  H   UNL     1      -7.816  -1.308  -1.987  0.00  0.00    +0.169 HD
ENDROOT
BRANCH   7  13
ATOM     13  C   UNL     1      -7.922  -1.353   0.152  0.00  0.00    +0.042 A 
ATOM     14  C   UNL     1      -8.486  -2.471   0.771  0.00  0.00    +0.028 A 
ATOM     15  C   UNL     1      -9.133  -2.332   1.982  0.00  0.00    +0.040 A 
ATOM     16  C   UNL     1      -9.233  -1.085   2.578  0.00  0.00    +0.124 A 
ATOM     17  C   UNL     1      -8.680   0.028   1.965  0.00  0.00    +0.040 A 
ATOM     18  C   UNL     1      -8.026  -0.099   0.758  0.00  0.00    +0.028 A 
ATOM     19  F   UNL     1      -9.872  -0.954   3.761  0.00  0.00    -0.205 F 
ENDBRANCH   7  13
BRANCH   5  20
ATOM     20  C   UNL     1      -6.050  -2.551  -3.542  0.00  0.00    +0.114 A 
ATOM     21  N   UNL     1      -7.343  -2.804  -3.682  0.00  0.00    -0.239 NA
ATOM     22  C   UNL     1      -7.839  -3.214  -4.834  0.00  0.00    +0.079 A 
ATOM     23  C   UNL     1      -7.000  -3.392  -5.904  0.00  0.00    +0.075 A 
ATOM     24  S   UNL     1      -5.433  -2.929  -5.176  0.00  0.00    -0.075 S 
BRANCH  22  25
ATOM     25  C   UNL     1      -9.291  -3.485  -4.969  0.00  0.00    +0.001 A 
ATOM     26  C   UNL     1      -9.811  -3.917  -6.189  0.00  0.00    +0.013 A 
ATOM     27  C   UNL     1     -11.161  -4.174  -6.309  0.00  0.00    +0.046 A 
ATOM     28  C   UNL     1     -12.003  -3.992  -5.221  0.00  0.00    +0.120 A 
ATOM     29  C   UNL     1     -11.490  -3.556  -4.008  0.00  0.00    +0.046 A 
ATOM     30  C   UNL     1     -10.140  -3.303  -3.879  0.00  0.00    +0.013 A 
BRANCH  28  31
ATOM     31  O   UNL     1     -13.334  -4.241  -5.345  0.00  0.00    -0.495 OA
ATOM     32  C   UNL     1     -13.794  -4.686  -6.622  0.00  0.00    +0.277 C 
ENDBRANCH  28  31
ENDBRANCH  22  25
ENDBRANCH   5  20
BRANCH  11  33
ATOM     33  O   UNL     1      -1.531  -0.113   2.340  0.00  0.00    -0.506 OA
ATOM     34  H   UNL     1      -2.084  -0.149   3.290  0.00  0.00    +0.292 HD
ENDBRANCH  11  33
BRANCH   1  35
ATOM     35  C   UNL     1      -0.002   0.033  -0.022  0.00  0.00    +0.039 C 
BRANCH  35  36
ATOM     36  C   UNL     1      -0.029   1.563  -0.025  0.00  0.00    +0.005 C 
BRANCH  36  37
ATOM     37  C   UNL     1       1.404   2.098  -0.042  0.00  0.00    +0.000 C 
BRANCH  37  38
ATOM     38  C   UNL     1       1.377   3.628  -0.045  0.00  0.00    -0.000 C 
BRANCH  38  40
ATOM     39  C   UNL     1       2.784   5.693  -0.065  0.00  0.00    +0.004 C 
ATOM     40  C   UNL     1       2.811   4.163  -0.062  0.00  0.00    -0.003 C 
ENDBRANCH  38  40
ENDBRANCH  37  38
ENDBRANCH  36  37
ENDBRANCH  35  36
ENDBRANCH   1  35
TORSDOF 10
