REMARK  Name = ZINC00674913
REMARK  7 active torsions:
REMARK  status: ('A' for Active; 'I' for Inactive)
REMARK    1  A    between atoms: C_1  and  C_2
REMARK    2  A    between atoms: C_2  and  C_3
REMARK    3  A    between atoms: C_8  and  N_9
REMARK    4  A    between atoms: C_10  and  C_12
REMARK    5  A    between atoms: C_17  and  C_30
REMARK    6  A    between atoms: C_20  and  C_23
REMARK    7  A    between atoms: C_26  and  C_29
REMARK                            x       y       z     vdW  Elec       q    Type
REMARK                         _______ _______ _______ _____ _____    ______ ____
ROOT
ATOM      1  C   UNL     1       4.931  -0.225   1.145  0.00  0.00    +0.167 A 
ATOM      2  C   UNL     1       6.325  -0.393   1.306  0.00  0.00    +0.112 A 
ATOM      3  C   UNL     1       6.631  -0.063   2.577  0.00  0.00    +0.137 A 
ATOM      4  N   UNL     1       5.478   0.306   3.210  0.00  0.00    -0.237 N 
ATOM      5  N   UNL     1       4.432   0.200   2.294  0.00  0.00    -0.163 NA
ATOM      6  C   UNL     1       5.421   0.737   4.610  0.00  0.00    +0.215 C 
ATOM      7  C   UNL     1       6.825   1.161   5.056  0.00  0.00    +0.063 C 
ATOM      8  C   UNL     1       7.840   0.072   4.691  0.00  0.00    +0.104 C 
ATOM      9  N   UNL     1       7.872  -0.067   3.221  0.00  0.00    -0.321 N 
ATOM     10 CL   UNL     1       7.440  -0.929   0.088  0.00  0.00    -0.078 Cl
ATOM     11  H   UNL     1       8.705  -0.155   2.732  0.00  0.00    +0.148 HD
ENDROOT
BRANCH   8  12
ATOM     12  C   UNL     1       7.427  -1.235   5.317  0.00  0.00    -0.027 A 
ATOM     13  C   UNL     1       6.447  -2.008   4.722  0.00  0.00    +0.006 A 
ATOM     14  C   UNL     1       6.068  -3.207   5.296  0.00  0.00    +0.004 A 
ATOM     15  C   UNL     1       6.670  -3.634   6.466  0.00  0.00    -0.050 A 
ATOM     16  C   UNL     1       7.650  -2.862   7.060  0.00  0.00    +0.004 A 
ATOM     17  C   UNL     1       8.032  -1.665   6.483  0.00  0.00    +0.006 A 
ATOM     18  C   UNL     1       6.256  -4.940   7.092  0.00  0.00    +0.044 C 
ENDBRANCH   8  12
BRANCH   1  20
ATOM     19  N   UNL     1       2.833  -0.269  -0.113  0.00  0.00    -0.280 N 
ATOM     20  C   UNL     1       4.165  -0.475  -0.092  0.00  0.00    +0.270 C 
ATOM     21  O   UNL     1       4.735  -0.867  -1.091  0.00  0.00    -0.268 OA
ATOM     22  H   UNL     1       2.387   0.105   0.663  0.00  0.00    +0.155 HD
BRANCH  19  28
ATOM     23  C   UNL     1       0.800  -1.086  -1.129  0.00  0.00    -0.026 A 
ATOM     24  C   UNL     1       0.070  -1.401  -2.259  0.00  0.00    +0.005 A 
ATOM     25  C   UNL     1       0.627  -1.234  -3.513  0.00  0.00    +0.000 A 
ATOM     26  C   UNL     1       1.917  -0.750  -3.641  0.00  0.00    +0.002 A 
ATOM     27  C   UNL     1       2.652  -0.433  -2.516  0.00  0.00    +0.023 A 
ATOM     28  C   UNL     1       2.093  -0.594  -1.254  0.00  0.00    +0.037 A 
BRANCH  23  30
ATOM     29  C   UNL     1      -0.422   0.053   0.703  0.00  0.00    +0.009 C 
ATOM     30  C   UNL     1       0.192  -1.268   0.238  0.00  0.00    +0.033 C 
ENDBRANCH  23  30
ENDBRANCH  19  28
ENDBRANCH   1  20
BRANCH   6  31
ATOM     31  C   UNL     1       4.460   1.919   4.744  0.00  0.00    +0.412 C 
ATOM     32  F   UNL     1       3.183   1.532   4.325  0.00  0.00    -0.168 F 
ATOM     33  F   UNL     1       4.407   2.329   6.081  0.00  0.00    -0.168 F 
ATOM     34  F   UNL     1       4.910   2.979   3.949  0.00  0.00    -0.168 F 
ENDBRANCH   6  31
TORSDOF 5
