REMARK  Name = ZINC01077503
REMARK  11 active torsions:
REMARK  status: ('A' for Active; 'I' for Inactive)
REMARK    1  A    between atoms: C_1  and  C_2
REMARK    2  A    between atoms: C_2  and  O_3
REMARK    3  A    between atoms: O_3  and  C_4
REMARK    4  A    between atoms: C_7  and  C_12
REMARK    5  A    between atoms: C_9  and  O_10
REMARK    6  A    between atoms: O_10  and  C_11
REMARK    7  A    between atoms: C_17  and  C_27
REMARK    8  A    between atoms: C_31  and  O_35
REMARK    9  A    between atoms: C_32  and  O_33
REMARK   10  A    between atoms: O_33  and  C_34
REMARK   11  A    between atoms: O_35  and  C_36
REMARK                            x       y       z     vdW  Elec       q    Type
REMARK                         _______ _______ _______ _____ _____    ______ ____
ROOT
ATOM      1  C   UNL     1      -1.788  -6.072  -3.781  0.00  0.00    +0.032 C 
ATOM      2  C   UNL     1      -3.230  -5.609  -3.588  0.00  0.00    +0.059 C 
ATOM      3  C   UNL     1      -3.454  -5.202  -2.140  0.00  0.00    +0.017 C 
ATOM      4  C   UNL     1      -2.458  -4.652  -1.428  0.00  0.00    +0.037 C 
ATOM      5  C   UNL     1      -2.549  -4.175   0.003  0.00  0.00    +0.140 C 
ATOM      6  N   UNL     1      -3.753  -4.588   0.692  0.00  0.00    -0.331 N 
ATOM      7  C   UNL     1      -5.007  -4.141   0.280  0.00  0.00    +0.049 A 
ATOM      8  C   UNL     1      -5.765  -3.291   1.070  0.00  0.00    +0.025 A 
ATOM      9  C   UNL     1      -6.970  -2.809   0.590  0.00  0.00    +0.002 A 
ATOM     10  C   UNL     1      -7.419  -3.171  -0.667  0.00  0.00    +0.002 A 
ATOM     11  C   UNL     1      -6.676  -4.038  -1.450  0.00  0.00    +0.025 A 
ATOM     12  C   UNL     1      -5.480  -4.535  -0.963  0.00  0.00    +0.052 A 
ATOM     13  N   UNL     1      -4.707  -5.446  -1.675  0.00  0.00    -0.316 N 
ATOM     14  C   UNL     1      -1.179  -4.477  -2.007  0.00  0.00    +0.163 C 
ATOM     15  O   UNL     1      -0.301  -3.962  -1.343  0.00  0.00    -0.292 OA
ATOM     16  C   UNL     1      -0.868  -4.903  -3.410  0.00  0.00    +0.088 C 
ATOM     17  H   UNL     1      -3.686  -5.185   1.454  0.00  0.00    +0.147 HD
ATOM     18  H   UNL     1      -5.090  -6.319  -1.852  0.00  0.00    +0.152 HD
ENDROOT
BRANCH   1  22
ATOM     19  C   UNL     1      -1.155  -7.173  -7.865  0.00  0.00    +0.162 A 
ATOM     20  C   UNL     1      -1.579  -5.892  -7.547  0.00  0.00    +0.050 A 
ATOM     21  C   UNL     1      -1.783  -5.540  -6.226  0.00  0.00    +0.008 A 
ATOM     22  C   UNL     1      -1.564  -6.462  -5.219  0.00  0.00    -0.040 A 
ATOM     23  C   UNL     1      -1.136  -7.740  -5.529  0.00  0.00    +0.053 A 
ATOM     24  C   UNL     1      -0.935  -8.101  -6.852  0.00  0.00    +0.162 A 
BRANCH  24  25
ATOM     25  O   UNL     1      -0.519  -9.359  -7.159  0.00  0.00    -0.491 OA
ATOM     26  C   UNL     1      -0.314 -10.258  -6.068  0.00  0.00    +0.277 C 
ENDBRANCH  24  25
BRANCH  19  27
ATOM     27  O   UNL     1      -0.954  -7.521  -9.164  0.00  0.00    -0.489 OA
BRANCH  27  29
ATOM     28  C   UNL     1      -0.922  -7.089 -11.541  0.00  0.00    +0.048 C 
ATOM     29  C   UNL     1      -1.200  -6.516 -10.150  0.00  0.00    +0.226 C 
ENDBRANCH  27  29
ENDBRANCH  19  27
ENDBRANCH   1  22
BRANCH   5  30
ATOM     30  C   UNL     1      -2.485  -2.670   0.011  0.00  0.00    +0.023 A 
ATOM     31  C   UNL     1      -2.776  -1.959  -1.139  0.00  0.00    +0.009 A 
ATOM     32  C   UNL     1      -2.718  -0.578  -1.135  0.00  0.00    +0.004 A 
ATOM     33  C   UNL     1      -2.368   0.099   0.019  0.00  0.00    +0.049 A 
ATOM     34  C   UNL     1      -2.076  -0.607   1.174  0.00  0.00    +0.162 A 
ATOM     35  C   UNL     1      -2.129  -1.998   1.169  0.00  0.00    +0.167 A 
BRANCH  35  36
ATOM     36  O   UNL     1      -1.837  -2.695   2.299  0.00  0.00    -0.491 OA
ATOM     37  C   UNL     1      -2.923  -2.982   3.183  0.00  0.00    +0.277 C 
ENDBRANCH  35  36
BRANCH  34  38
ATOM     38  O   UNL     1      -1.732   0.058   2.310  0.00  0.00    -0.491 OA
ATOM     39  C   UNL     1      -1.692   1.484   2.240  0.00  0.00    +0.277 C 
ENDBRANCH  34  38
ENDBRANCH   5  30
TORSDOF 7
