REMARK  Name = ZINC36068468
REMARK  10 active torsions:
REMARK  status: ('A' for Active; 'I' for Inactive)
REMARK    1  A    between atoms: C_1  and  C_2
REMARK    2  A    between atoms: C_2  and  N_3
REMARK    3  A    between atoms: C_4  and  C_6
REMARK    4  A    between atoms: C_9  and  C_11
REMARK    5  A    between atoms: C_11  and  N_12
REMARK    6  A    between atoms: N_12  and  C_13
REMARK    7  A    between atoms: N_12  and  C_23
REMARK    8  A    between atoms: C_13  and  C_14
REMARK    9  A    between atoms: C_23  and  C_24
REMARK   10  A    between atoms: C_29  and  C_30
REMARK                            x       y       z     vdW  Elec       q    Type
REMARK                         _______ _______ _______ _____ _____    ______ ____
ROOT
ATOM      1  N   UNL     1       5.117  -2.351  -4.783  0.00  0.00    +0.391 N 
ATOM      2  H   UNL     1       5.200  -1.538  -4.191  0.00  0.00    -0.080 HD
ENDROOT
BRANCH   1   3
ATOM      3  C   UNL     1       3.735  -2.848  -4.739  0.00  0.00    +0.020 C 
BRANCH   3   7
ATOM      4  C   UNL     1       2.573  -2.826  -1.308  0.00  0.00    +0.163 A 
ATOM      5  C   UNL     1       3.029  -4.105  -1.404  0.00  0.00    +0.230 A 
ATOM      6  O   UNL     1       3.500  -4.260  -2.652  0.00  0.00    -0.449 OA
ATOM      7  C   UNL     1       3.337  -3.103  -3.308  0.00  0.00    +0.179 A 
ATOM      8  N   UNL     1       2.779  -2.236  -2.517  0.00  0.00    -0.210 NA
BRANCH   4  10
ATOM      9  N   UNL     1       1.552  -0.918  -0.172  0.00  0.00    -0.310 N 
ATOM     10  C   UNL     1       1.966  -2.200  -0.120  0.00  0.00    +0.266 C 
ATOM     11  O   UNL     1       1.838  -2.839   0.906  0.00  0.00    -0.268 OA
ATOM     12  H   UNL     1       1.654  -0.408  -0.990  0.00  0.00    +0.149 HD
BRANCH   9  14
ATOM     13  C   UNL     1       0.569   1.151   0.686  0.00  0.00    +0.024 C 
ATOM     14  C   UNL     1       0.948  -0.296   1.009  0.00  0.00    +0.101 C 
ENDBRANCH   9  14
ENDBRANCH   4  10
ENDBRANCH   3   7
ENDBRANCH   1   3
BRANCH   1  15
ATOM     15  C   UNL     1       5.464  -1.989  -6.163  0.00  0.00    -0.042 C 
BRANCH  15  16
ATOM     16  C   UNL     1       4.622  -0.820  -6.604  0.00  0.00    -0.060 A 
ATOM     17  C   UNL     1       3.456  -1.037  -7.313  0.00  0.00    +0.005 A 
ATOM     18  C   UNL     1       2.680   0.033  -7.719  0.00  0.00    +0.050 A 
ATOM     19  C   UNL     1       3.070   1.327  -7.415  0.00  0.00    +0.166 A 
ATOM     20  C   UNL     1       4.245   1.546  -6.700  0.00  0.00    +0.166 A 
ATOM     21  C   UNL     1       5.015   0.469  -6.292  0.00  0.00    +0.051 A 
ATOM     22  O   UNL     1       4.408   2.891  -6.529  0.00  0.00    -0.453 OA
ATOM     23  C   UNL     1       3.538   3.509  -7.497  0.00  0.00    +0.466 C 
ATOM     24  O   UNL     1       2.497   2.534  -7.692  0.00  0.00    -0.453 OA
ENDBRANCH  15  16
ENDBRANCH   1  15
BRANCH   1  25
ATOM     25  C   UNL     1       6.029  -3.399  -4.306  0.00  0.00    -0.041 C 
BRANCH  25  26
ATOM     26  C   UNL     1       7.431  -2.851  -4.237  0.00  0.00    -0.052 A 
ATOM     27  C   UNL     1       8.308  -3.060  -5.285  0.00  0.00    +0.002 A 
ATOM     28  C   UNL     1       9.594  -2.557  -5.222  0.00  0.00    +0.000 A 
ATOM     29  C   UNL     1      10.003  -1.845  -4.111  0.00  0.00    +0.001 A 
ATOM     30  C   UNL     1       9.127  -1.634  -3.063  0.00  0.00    +0.012 A 
ATOM     31  C   UNL     1       7.839  -2.134  -3.128  0.00  0.00    +0.056 A 
BRANCH  31  32
ATOM     32  C   UNL     1       6.881  -1.900  -1.988  0.00  0.00    +0.418 C 
ATOM     33  F   UNL     1       7.553  -1.266  -0.938  0.00  0.00    -0.166 F 
ATOM     34  F   UNL     1       5.827  -1.090  -2.424  0.00  0.00    -0.166 F 
ATOM     35  F   UNL     1       6.375  -3.126  -1.545  0.00  0.00    -0.166 F 
ENDBRANCH  31  32
ENDBRANCH  25  26
ENDBRANCH   1  25
TORSDOF 9
