REMARK  Name = ZINC08789049
REMARK  3 active torsions:
REMARK  status: ('A' for Active; 'I' for Inactive)
REMARK    1  A    between atoms: C_12  and  C_14
REMARK    2  A    between atoms: C_14  and  C_15
REMARK    3  A    between atoms: N_20  and  C_23
REMARK                            x       y       z     vdW  Elec       q    Type
REMARK                         _______ _______ _______ _____ _____    ______ ____
ROOT
ATOM      1  C   UNL     1       0.162  -0.447  -4.282  0.00  0.00    +0.000 A 
ATOM      2  C   UNL     1      -1.130  -0.435  -4.775  0.00  0.00    +0.002 A 
ATOM      3  C   UNL     1      -2.104   0.322  -4.159  0.00  0.00    +0.023 A 
ATOM      4  C   UNL     1      -1.794   1.081  -3.033  0.00  0.00    +0.036 A 
ATOM      5  C   UNL     1      -0.490   1.062  -2.546  0.00  0.00    -0.028 A 
ATOM      6  C   UNL     1       0.479   0.305  -3.164  0.00  0.00    +0.004 A 
ATOM      7  C   UNL     1      -0.487   1.968  -1.347  0.00  0.00    +0.050 C 
ATOM      8  C   UNL     1      -0.053   1.222  -0.079  0.00  0.00    +0.088 C 
ATOM      9  C   UNL     1       1.452   1.573   0.085  0.00  0.00    +0.074 C 
ATOM     10  C   UNL     1       1.774   2.504  -1.103  0.00  0.00    -0.049 C 
ATOM     11  C   UNL     1       1.487   2.369   1.369  0.00  0.00    +0.228 C 
ATOM     12  O   UNL     1       2.481   2.851   1.868  0.00  0.00    -0.275 OA
ATOM     13  N   UNL     1       0.249   2.460   1.870  0.00  0.00    -0.210 N 
ATOM     14  C   UNL     1      -0.692   1.850   1.140  0.00  0.00    +0.229 C 
ATOM     15  O   UNL     1      -1.872   1.807   1.413  0.00  0.00    -0.275 OA
ATOM     16  C   UNL     1      -1.899   2.473  -1.234  0.00  0.00    +0.211 C 
ATOM     17  O   UNL     1      -2.331   3.235  -0.395  0.00  0.00    -0.277 OA
ATOM     18  N   UNL     1      -2.592   1.914  -2.245  0.00  0.00    -0.286 N 
ATOM     19  H   UNL     1      -3.535   2.071  -2.407  0.00  0.00    +0.155 HD
ATOM     20  N   UNL     1       0.473   3.057  -1.481  0.00  0.00    +0.394 N 
ATOM     21  H   UNL     1       0.220   3.832  -0.857  0.00  0.00    -0.083 HD
ATOM     22  H   UNL     1       0.497   3.392  -2.451  0.00  0.00    -0.083 HD
ENDROOT
BRANCH  13  23
ATOM     23  C   UNL     1      -0.039   3.139   3.064  0.00  0.00    +0.048 A 
ATOM     24  C   UNL     1       0.105   4.518   3.130  0.00  0.00    +0.028 A 
ATOM     25  C   UNL     1      -0.178   5.188   4.305  0.00  0.00    +0.051 A 
ATOM     26  C   UNL     1      -0.606   4.486   5.420  0.00  0.00    +0.166 A 
ATOM     27  C   UNL     1      -0.751   3.102   5.356  0.00  0.00    +0.168 A 
ATOM     28  C   UNL     1      -0.472   2.432   4.177  0.00  0.00    +0.073 A 
ATOM     29  O   UNL     1      -1.179   2.652   6.572  0.00  0.00    -0.453 OA
ATOM     30  C   UNL     1      -1.687   3.813   7.255  0.00  0.00    +0.466 C 
ATOM     31  O   UNL     1      -0.944   4.902   6.676  0.00  0.00    -0.453 OA
ENDBRANCH  13  23
BRANCH  10  32
ATOM     32  C   UNL     1       2.744   3.605  -0.668  0.00  0.00    +0.080 C 
BRANCH  32  33
ATOM     33  C   UNL     1       3.140   4.427  -1.867  0.00  0.00    +0.209 C 
ATOM     34  O   UNL     1       2.691   4.160  -2.961  0.00  0.00    -0.276 OA
ATOM     35  N   UNL     1       3.994   5.460  -1.723  0.00  0.00    -0.329 N 
ATOM     36  H   UNL     1       4.354   5.674  -0.848  0.00  0.00    +0.145 HD
ATOM     37  H   UNL     1       4.249   5.989  -2.495  0.00  0.00    +0.145 HD
ENDBRANCH  32  33
ENDBRANCH  10  32
TORSDOF 3
