REMARK  Name = ZINC09057116
REMARK  10 active torsions:
REMARK  status: ('A' for Active; 'I' for Inactive)
REMARK    1  A    between atoms: C_1  and  C_2
REMARK    2  A    between atoms: C_2  and  O_3
REMARK    3  A    between atoms: O_3  and  C_4
REMARK    4  A    between atoms: C_7  and  C_10
REMARK    5  A    between atoms: C_20  and  C_22
REMARK    6  A    between atoms: C_25  and  O_28
REMARK    7  A    between atoms: O_28  and  C_29
REMARK    8  A    between atoms: C_29  and  C_30
REMARK    9  A    between atoms: C_31  and  C_33
REMARK   10  A    between atoms: C_38  and  C_39
REMARK                            x       y       z     vdW  Elec       q    Type
REMARK                         _______ _______ _______ _____ _____    ______ ____
ROOT
ATOM      1  C   UNL     1      -2.341   3.870  -0.138  0.00  0.00    +0.013 C 
ATOM      2  C   UNL     1      -3.517   3.214  -0.229  0.00  0.00    -0.024 C 
ATOM      3  C   UNL     1      -4.790   3.993  -0.359  0.00  0.00    +0.037 C 
ATOM      4  C   UNL     1      -6.046   3.153  -0.275  0.00  0.00    +0.005 C 
ATOM      5  C   UNL     1      -5.873   1.757  -0.870  0.00  0.00    +0.012 C 
ATOM      6  C   UNL     1      -4.826   1.011  -0.040  0.00  0.00    +0.066 C 
ATOM      7  C   UNL     1      -3.530   1.801  -0.195  0.00  0.00    +0.068 C 
ATOM      8  N   UNL     1      -2.559   0.959  -0.302  0.00  0.00    -0.181 NA
ATOM      9  N   UNL     1      -2.983  -0.365  -0.461  0.00  0.00    -0.181 N 
ATOM     10  C   UNL     1      -4.452  -0.348  -0.655  0.00  0.00    +0.140 C 
ATOM     11  C   UNL     1      -2.197  -1.460  -0.443  0.00  0.00    +0.267 C 
ATOM     12  O   UNL     1      -1.016  -1.355  -0.169  0.00  0.00    -0.268 OA
ENDROOT
BRANCH   1  16
ATOM     13  C   UNL     1       1.198   1.755   0.861  0.00  0.00    +0.121 A 
ATOM     14  C   UNL     1       1.214   2.680  -0.175  0.00  0.00    +0.046 A 
ATOM     15  C   UNL     1       0.069   3.373  -0.500  0.00  0.00    +0.011 A 
ATOM     16  C   UNL     1      -1.114   3.137   0.209  0.00  0.00    -0.024 A 
ATOM     17  C   UNL     1      -1.124   2.205   1.252  0.00  0.00    +0.011 A 
ATOM     18  C   UNL     1       0.027   1.520   1.572  0.00  0.00    +0.046 A 
BRANCH  13  19
ATOM     19  O   UNL     1       2.331   1.077   1.181  0.00  0.00    -0.492 OA
BRANCH  19  21
ATOM     20  C   UNL     1       3.609  -0.520   2.468  0.00  0.00    +0.048 C 
ATOM     21  C   UNL     1       2.245   0.141   2.257  0.00  0.00    +0.225 C 
ENDBRANCH  19  21
ENDBRANCH  13  19
ENDBRANCH   1  16
BRANCH  10  22
ATOM     22  C   UNL     1      -5.109  -1.480   0.093  0.00  0.00    -0.024 A 
ATOM     23  C   UNL     1      -4.562  -1.932   1.280  0.00  0.00    +0.009 A 
ATOM     24  C   UNL     1      -5.166  -2.965   1.970  0.00  0.00    +0.046 A 
ATOM     25  C   UNL     1      -6.315  -3.556   1.466  0.00  0.00    +0.121 A 
ATOM     26  C   UNL     1      -6.859  -3.104   0.273  0.00  0.00    +0.046 A 
ATOM     27  C   UNL     1      -6.254  -2.067  -0.411  0.00  0.00    +0.009 A 
BRANCH  25  28
ATOM     28  O   UNL     1      -6.908  -4.576   2.141  0.00  0.00    -0.492 OA
BRANCH  28  29
ATOM     29  C   UNL     1      -6.294  -4.989   3.363  0.00  0.00    +0.225 C 
ATOM     30  C   UNL     1      -7.097  -6.139   3.975  0.00  0.00    +0.048 C 
ENDBRANCH  28  29
ENDBRANCH  25  28
ENDBRANCH  10  22
BRANCH  11  31
ATOM     31  C   UNL     1      -2.769  -2.787  -0.754  0.00  0.00    +0.053 A 
ATOM     32  C   UNL     1      -3.476  -2.985  -1.937  0.00  0.00    +0.014 A 
ATOM     33  C   UNL     1      -4.006  -4.228  -2.226  0.00  0.00    +0.001 A 
ATOM     34  C   UNL     1      -3.846  -5.280  -1.341  0.00  0.00    +0.001 A 
ATOM     35  C   UNL     1      -3.152  -5.102  -0.160  0.00  0.00    +0.016 A 
ATOM     36  C   UNL     1      -2.607  -3.857   0.146  0.00  0.00    +0.075 A 
BRANCH  36  37
ATOM     37  C   UNL     1      -1.864  -3.661   1.409  0.00  0.00    +0.387 C 
ATOM     38  O   UNL     1      -1.490  -2.550   1.727  0.00  0.00    -0.241 OA
ATOM     39  O   UNL     1      -1.602  -4.714   2.207  0.00  0.00    -0.241 OA
ENDBRANCH  36  37
ENDBRANCH  11  31
TORSDOF 8
