REMARK  Name = ZINC09168043
REMARK  10 active torsions:
REMARK  status: ('A' for Active; 'I' for Inactive)
REMARK    1  A    between atoms: C_1  and  C_2
REMARK    2  A    between atoms: C_2  and  C_3
REMARK    3  A    between atoms: C_2  and  C_4
REMARK    4  A    between atoms: C_4  and  N_5
REMARK    5  A    between atoms: C_9  and  N_19
REMARK    6  A    between atoms: C_14  and  C_17
REMARK    7  A    between atoms: C_14  and  C_18
REMARK    8  A    between atoms: N_19  and  S_20
REMARK    9  A    between atoms: S_20  and  C_23
REMARK   10  A    between atoms: C_28  and  N_29
REMARK                            x       y       z     vdW  Elec       q    Type
REMARK                         _______ _______ _______ _____ _____    ______ ____
ROOT
ATOM      1  N   UNL     1      -2.596   4.359  -3.787  0.00  0.00    -0.267 N 
ATOM      2  C   UNL     1      -2.319   3.341  -2.861  0.00  0.00    +0.078 A 
ATOM      3  C   UNL     1      -1.032   3.156  -2.382  0.00  0.00    +0.029 A 
ATOM      4  C   UNL     1      -0.771   2.145  -1.478  0.00  0.00    +0.026 A 
ATOM      5  C   UNL     1      -1.797   1.314  -1.047  0.00  0.00    +0.052 A 
ATOM      6  C   UNL     1      -3.087   1.494  -1.528  0.00  0.00    +0.072 A 
ATOM      7  C   UNL     1      -3.352   2.511  -2.429  0.00  0.00    +0.144 A 
ATOM      8  O   UNL     1      -4.613   2.705  -2.897  0.00  0.00    -0.489 OA
ATOM      9  C   UNL     1      -5.339   3.813  -2.371  0.00  0.00    +0.244 C 
ATOM     10  C   UNL     1      -4.447   5.051  -2.300  0.00  0.00    +0.076 C 
ATOM     11  C   UNL     1      -3.645   5.184  -3.569  0.00  0.00    +0.229 C 
ATOM     12  O   UNL     1      -3.939   6.026  -4.391  0.00  0.00    -0.275 OA
ATOM     13  C   UNL     1      -5.320   6.295  -2.119  0.00  0.00    +0.024 C 
ATOM     14  C   UNL     1      -3.494   4.923  -1.111  0.00  0.00    +0.024 C 
ENDROOT
BRANCH   5  15
ATOM     15  N   UNL     1      -1.529   0.290  -0.132  0.00  0.00    -0.216 N 
ATOM     16  H   UNL     1      -1.880  -0.601  -0.285  0.00  0.00    +0.174 HD
BRANCH  15  17
ATOM     17  S   UNL     1      -0.613   0.599   1.212  0.00  0.00    +0.075 S 
ATOM     18  O   UNL     1      -0.614  -0.592   1.987  0.00  0.00    -0.150 OA
ATOM     19  O   UNL     1       0.586   1.209   0.754  0.00  0.00    -0.150 OA
BRANCH  17  20
ATOM     20  C   UNL     1      -1.468   1.816   2.157  0.00  0.00    +0.139 A 
ATOM     21  C   UNL     1      -0.887   3.050   2.381  0.00  0.00    +0.031 A 
ATOM     22  C   UNL     1      -1.560   4.007   3.118  0.00  0.00    +0.002 A 
ATOM     23  C   UNL     1      -2.809   3.725   3.640  0.00  0.00    +0.002 A 
ATOM     24  C   UNL     1      -3.387   2.489   3.420  0.00  0.00    +0.035 A 
ATOM     25  C   UNL     1      -2.717   1.534   2.678  0.00  0.00    +0.153 A 
BRANCH  25  26
ATOM     26  N   UNL     1      -3.336   0.210   2.443  0.00  0.00    +0.058 N 
ATOM     27  O   UNL     1      -4.374  -0.085   3.006  0.00  0.00    -0.126 OA
ATOM     28  O   UNL     1      -2.806  -0.584   1.686  0.00  0.00    -0.126 OA
ENDBRANCH  25  26
ENDBRANCH  17  20
ENDBRANCH  15  17
ENDBRANCH   5  15
BRANCH   1  29
ATOM     29  C   UNL     1      -1.758   4.527  -4.976  0.00  0.00    +0.116 C 
BRANCH  29  31
ATOM     30  C   UNL     1      -1.524   3.956  -7.397  0.00  0.00    +0.009 C 
ATOM     31  C   UNL     1      -2.325   3.686  -6.122  0.00  0.00    +0.001 C 
ATOM     32  C   UNL     1      -2.226   2.202  -5.763  0.00  0.00    +0.009 C 
ENDBRANCH  29  31
ENDBRANCH   1  29
TORSDOF 6
