REMARK  Name = ZINC24107497
REMARK  6 active torsions:
REMARK  status: ('A' for Active; 'I' for Inactive)
REMARK    1  A    between atoms: C_1  and  C_2
REMARK    2  A    between atoms: C_2  and  C_29
REMARK    3  A    between atoms: N_5  and  C_9
REMARK    4  A    between atoms: C_9  and  C_10
REMARK    5  A    between atoms: C_21  and  C_23
REMARK    6  A    between atoms: C_32  and  C_35
REMARK                            x       y       z     vdW  Elec       q    Type
REMARK                         _______ _______ _______ _____ _____    ______ ____
ROOT
ATOM      1  C   UNL     1      -2.885  -0.773   1.267  0.00  0.00    +0.214 C 
ENDROOT
BRANCH   1   2
ATOM      2  C   UNL     1      -1.512  -1.205   0.819  0.00  0.00    +0.238 C 
ATOM      3  O   UNL     1      -1.168  -2.361   0.948  0.00  0.00    -0.273 OA
ATOM      4  N   UNL     1      -0.666  -0.308   0.276  0.00  0.00    -0.261 N 
ATOM      5  C   UNL     1      -1.008   1.046   0.329  0.00  0.00    +0.050 A 
ATOM      6  C   UNL     1      -1.969   1.444   1.255  0.00  0.00    +0.024 A 
ATOM      7  C   UNL     1      -2.343   2.769   1.349  0.00  0.00    +0.002 A 
ATOM      8  C   UNL     1      -1.774   3.714   0.514  0.00  0.00    +0.001 A 
ATOM      9  C   UNL     1      -0.821   3.332  -0.410  0.00  0.00    +0.016 A 
ATOM     10  C   UNL     1      -0.433   2.001  -0.504  0.00  0.00    +0.029 A 
ATOM     11  S   UNL     1       0.795   1.548  -1.688  0.00  0.00    -0.121 S 
ATOM     12  C   UNL     1       0.639  -0.261  -1.780  0.00  0.00    +0.102 C 
ATOM     13  C   UNL     1       0.563  -0.795  -0.341  0.00  0.00    +0.122 C 
BRANCH  13  14
ATOM     14  C   UNL     1       0.558  -2.302  -0.358  0.00  0.00    -0.026 A 
ATOM     15  C   UNL     1      -0.308  -2.980  -1.195  0.00  0.00    +0.005 A 
ATOM     16  C   UNL     1      -0.311  -4.362  -1.214  0.00  0.00    +0.000 A 
ATOM     17  C   UNL     1       0.547  -5.066  -0.389  0.00  0.00    +0.000 A 
ATOM     18  C   UNL     1       1.409  -4.388   0.452  0.00  0.00    +0.000 A 
ATOM     19  C   UNL     1       1.415  -3.005   0.467  0.00  0.00    +0.005 A 
ENDBRANCH  13  14
ENDBRANCH   1   2
BRANCH   1  24
ATOM     20  C   UNL     1      -4.987  -4.544  -0.591  0.00  0.00    +0.047 C 
ATOM     21  C   UNL     1      -5.350  -3.397   0.354  0.00  0.00    +0.135 C 
ATOM     22  C   UNL     1      -4.542  -2.155   0.032  0.00  0.00    +0.251 C 
ATOM     23  O   UNL     1      -4.545  -1.527  -1.005  0.00  0.00    -0.272 OA
ATOM     24  N   UNL     1      -3.817  -1.896   1.138  0.00  0.00    -0.215 N 
ATOM     25  C   UNL     1      -4.057  -2.787   2.107  0.00  0.00    +0.310 C 
ATOM     26  O   UNL     1      -3.525  -2.759   3.199  0.00  0.00    -0.252 OA
ATOM     27  N   UNL     1      -4.955  -3.719   1.736  0.00  0.00    -0.281 N 
ATOM     28  H   UNL     1      -5.394  -4.589   2.245  0.00  0.00    +0.152 HD
BRANCH  21  29
ATOM     29  C   UNL     1      -6.825  -3.098   0.280  0.00  0.00    -0.015 A 
ATOM     30  C   UNL     1      -7.298  -2.188  -0.649  0.00  0.00    +0.007 A 
ATOM     31  C   UNL     1      -8.648  -1.914  -0.725  0.00  0.00    +0.019 A 
ATOM     32  C   UNL     1      -9.536  -2.547   0.146  0.00  0.00    +0.052 A 
ATOM     33  C   UNL     1      -9.051  -3.460   1.085  0.00  0.00    +0.019 A 
ATOM     34  C   UNL     1      -7.700  -3.729   1.147  0.00  0.00    +0.007 A 
BRANCH  32  35
ATOM     35  C   UNL     1     -10.938  -2.262   0.077  0.00  0.00    +0.099 C 
ATOM     36  N   UNL     1     -12.049  -2.036   0.022  0.00  0.00    -0.191 NA
ENDBRANCH  32  35
ENDBRANCH  21  29
ENDBRANCH   1  24
TORSDOF 5
