REMARK  Name = ZINC06019411
REMARK  7 active torsions:
REMARK  status: ('A' for Active; 'I' for Inactive)
REMARK    1  A    between atoms: C_1  and  P_2
REMARK    2  A    between atoms: P_2  and  C_4
REMARK    3  A    between atoms: P_2  and  C_8
REMARK    4  A    between atoms: C_4  and  C_5
REMARK    5  A    between atoms: C_5  and  C_6
REMARK    6  A    between atoms: C_8  and  C_9
REMARK    7  A    between atoms: C_9  and  C_10
REMARK                            x       y       z     vdW  Elec       q    Type
REMARK                         _______ _______ _______ _____ _____    ______ ____
ROOT
ATOM      1  C   UNL     1      -4.253   2.759  -1.520  0.00  0.00    +0.081 C 
ATOM      2  P   UNL     1      -4.070   1.820   0.031  0.00  0.00    +0.087 P 
ATOM      3  O   UNL     1      -4.104   2.753   1.179  0.00  0.00    -0.321 OA
ENDROOT
BRANCH   2   4
ATOM      4  C   UNL     1      -2.479   0.930   0.019  0.00  0.00    +0.080 C 
BRANCH   4   5
ATOM      5  C   UNL     1      -1.329   1.940   0.019  0.00  0.00    +0.132 C 
BRANCH   5   6
ATOM      6  C   UNL     1      -0.014   1.204   0.009  0.00  0.00    +0.356 C 
ATOM      7  O   UNL     1       0.002  -0.004   0.002  0.00  0.00    -0.246 OA
ATOM      8  O   UNL     1       1.139   1.891   0.001  0.00  0.00    -0.246 OA
ENDBRANCH   5   6
ENDBRANCH   4   5
ENDBRANCH   2   4
BRANCH   2   9
ATOM      9  C   UNL     1      -5.435   0.621   0.181  0.00  0.00    +0.080 C 
BRANCH   9  10
ATOM     10  C   UNL     1      -6.761   1.373   0.317  0.00  0.00    +0.132 C 
BRANCH  10  11
ATOM     11  C   UNL     1      -7.890   0.382   0.441  0.00  0.00    +0.356 C 
ATOM     12  O   UNL     1      -7.658  -0.803   0.422  0.00  0.00    -0.246 OA
ATOM     13  O   UNL     1      -9.153   0.817   0.571  0.00  0.00    -0.246 OA
ENDBRANCH  10  11
ENDBRANCH   9  10
ENDBRANCH   2   9
TORSDOF 6
