REMARK  Name = ZINC09272839
REMARK  12 active torsions:
REMARK  status: ('A' for Active; 'I' for Inactive)
REMARK    1  A    between atoms: C_1  and  C_2
REMARK    2  A    between atoms: C_2  and  N_56
REMARK    3  A    between atoms: C_3  and  C_4
REMARK    4  A    between atoms: C_3  and  N_56
REMARK    5  A    between atoms: C_5  and  C_6
REMARK    6  A    between atoms: C_5  and  N_56
REMARK    7  A    between atoms: C_6  and  N_7
REMARK    8  A    between atoms: C_8  and  C_26
REMARK    9  A    between atoms: C_10  and  C_15
REMARK   10  A    between atoms: C_11  and  O_14
REMARK   11  A    between atoms: C_15  and  C_17
REMARK   12  A    between atoms: C_20  and  N_23
REMARK                            x       y       z     vdW  Elec       q    Type
REMARK                         _______ _______ _______ _____ _____    ______ ____
ROOT
ATOM      1  N   UNL     1      -0.337   0.822   4.179  0.00  0.00    -0.285 N 
ATOM      2  C   UNL     1      -0.642  -0.308   5.064  0.00  0.00    +0.144 C 
ATOM      3  C   UNL     1       0.256  -0.153   6.269  0.00  0.00    +0.071 C 
ATOM      4  C   UNL     1       0.987   0.969   6.070  0.00  0.00    +0.188 C 
ATOM      5  C   UNL     1       0.613   1.567   4.771  0.00  0.00    +0.282 C 
ATOM      6  O   UNL     1       1.092   2.583   4.308  0.00  0.00    -0.267 OA
ENDROOT
BRANCH   2   7
ATOM      7  C   UNL     1      -0.346  -1.610   4.364  0.00  0.00    -0.022 A 
ATOM      8  C   UNL     1       0.862  -1.786   3.715  0.00  0.00    +0.008 A 
ATOM      9  C   UNL     1       1.137  -2.980   3.077  0.00  0.00    +0.038 A 
ATOM     10  C   UNL     1       0.198  -3.997   3.079  0.00  0.00    +0.123 A 
ATOM     11  C   UNL     1      -1.014  -3.818   3.725  0.00  0.00    +0.038 A 
ATOM     12  C   UNL     1      -1.284  -2.625   4.367  0.00  0.00    +0.008 A 
ATOM     13  F   UNL     1       0.463  -5.164   2.452  0.00  0.00    -0.205 F 
ENDBRANCH   2   7
BRANCH   4  14
ATOM     14  O   UNL     1       1.911   1.464   6.924  0.00  0.00    -0.502 OA
ATOM     15  H   UNL     1       2.305   2.300   6.542  0.00  0.00    +0.292 HD
ENDBRANCH   4  14
BRANCH   3  16
ATOM     16  C   UNL     1       0.320  -1.043   7.432  0.00  0.00    +0.195 C 
ATOM     17  O   UNL     1       1.331  -1.682   7.655  0.00  0.00    -0.287 OA
BRANCH  16  18
ATOM     18  C   UNL     1      -0.845  -1.164   8.335  0.00  0.00    +0.022 A 
ATOM     19  C   UNL     1      -2.023  -0.469   8.057  0.00  0.00    +0.014 A 
ATOM     20  C   UNL     1      -3.107  -0.590   8.901  0.00  0.00    +0.033 A 
ATOM     21  C   UNL     1      -3.026  -1.391  10.027  0.00  0.00    +0.126 A 
ATOM     22  C   UNL     1      -1.859  -2.079  10.311  0.00  0.00    +0.033 A 
ATOM     23  C   UNL     1      -0.769  -1.971   9.473  0.00  0.00    +0.014 A 
BRANCH  21  24
ATOM     24  N   UNL     1      -4.192  -1.511  10.931  0.00  0.00    +0.056 N 
ATOM     25  O   UNL     1      -4.123  -2.215  11.922  0.00  0.00    -0.126 OA
ATOM     26  O   UNL     1      -5.220  -0.907  10.683  0.00  0.00    -0.126 OA
ENDBRANCH  21  24
ENDBRANCH  16  18
ENDBRANCH   3  16
BRANCH   1  27
ATOM     27  C   UNL     1      -0.962   1.093   2.881  0.00  0.00    +0.090 C 
BRANCH  27  28
ATOM     28  C   UNL     1      -0.158   0.406   1.775  0.00  0.00    -0.060 C 
BRANCH  28  29
ATOM     29  N   UNL     1      -0.812   0.672   0.476  0.00  0.00    +0.380 N 
ATOM     30  H   UNL     1      -1.806   0.424   0.547  0.00  0.00    -0.082 HD
BRANCH  29  32
ATOM     31  C   UNL     1      -0.712  -1.583  -0.463  0.00  0.00    -0.017 C 
ATOM     32  C   UNL     1      -0.187  -0.150  -0.581  0.00  0.00    -0.082 C 
ENDBRANCH  29  32
BRANCH  29  33
ATOM     33  C   UNL     1      -0.697   2.105   0.136  0.00  0.00    -0.082 C 
ATOM     34  C   UNL     1      -1.745   2.443  -0.926  0.00  0.00    -0.017 C 
ENDBRANCH  29  33
ENDBRANCH  28  29
ENDBRANCH  27  28
ENDBRANCH   1  27
TORSDOF 10
