REMARK  Name = ZINC13123455
REMARK  4 active torsions:
REMARK  status: ('A' for Active; 'I' for Inactive)
REMARK    1  A    between atoms: C_1  and  C_2
REMARK    2  A    between atoms: C_11  and  C_25
REMARK    3  A    between atoms: C_11  and  C_26
REMARK    4  A    between atoms: C_15  and  C_17
REMARK                            x       y       z     vdW  Elec       q    Type
REMARK                         _______ _______ _______ _____ _____    ______ ____
ROOT
ATOM      1  C   UNL     1      -0.018   1.503   0.010  0.00  0.00    +0.068 C 
ATOM      2  C   UNL     1       0.002  -0.004   0.002  0.00  0.00    +0.066 A 
ATOM      3  C   UNL     1       0.008  -0.810  -1.127  0.00  0.00    +0.027 A 
ATOM      4  C   UNL     1       0.030  -2.116  -0.711  0.00  0.00    +0.122 A 
ATOM      5  N   UNL     1       0.033  -2.116   0.635  0.00  0.00    -0.263 N 
ATOM      6  H   UNL     1       0.044  -2.900   1.208  0.00  0.00    +0.190 HD
ATOM      7  N   UNL     1       0.023  -0.778   1.061  0.00  0.00    -0.177 NA
ATOM      8  N   UNL     1       0.049  -3.166  -1.621  0.00  0.00    -0.303 N 
ATOM      9  C   UNL     1       0.354  -2.891  -2.930  0.00  0.00    +0.017 C 
ATOM     10  C   UNL     1       0.720  -4.067  -3.807  0.00  0.00    +0.058 C 
ATOM     11  C   UNL     1       0.295  -3.787  -5.249  0.00  0.00    -0.023 C 
ATOM     12  C   UNL     1       0.998  -2.509  -5.719  0.00  0.00    +0.086 C 
ATOM     13  C   UNL     1       0.653  -1.390  -4.777  0.00  0.00    +0.162 C 
ATOM     14  C   UNL     1       0.342  -1.635  -3.427  0.00  0.00    +0.024 C 
ATOM     15  C   UNL     1      -0.008  -0.430  -2.580  0.00  0.00    +0.089 C 
ATOM     16  O   UNL     1       0.643  -0.247  -5.191  0.00  0.00    -0.292 OA
ATOM     17  C   UNL     1      -1.222  -3.595  -5.312  0.00  0.00    +0.011 C 
ATOM     18  C   UNL     1       0.704  -4.959  -6.144  0.00  0.00    +0.011 C 
ATOM     19  H   UNL     1      -0.148  -4.072  -1.337  0.00  0.00    +0.153 HD
ENDROOT
BRANCH  15  20
ATOM     20  C   UNL     1      -1.381   0.065  -2.955  0.00  0.00    -0.035 A 
ATOM     21  C   UNL     1      -2.477  -0.765  -2.809  0.00  0.00    +0.007 A 
ATOM     22  C   UNL     1      -3.737  -0.312  -3.151  0.00  0.00    +0.038 A 
ATOM     23  C   UNL     1      -3.902   0.972  -3.640  0.00  0.00    +0.123 A 
ATOM     24  C   UNL     1      -2.803   1.802  -3.786  0.00  0.00    +0.038 A 
ATOM     25  C   UNL     1      -1.545   1.349  -3.438  0.00  0.00    +0.007 A 
ATOM     26  F   UNL     1      -5.133   1.416  -3.976  0.00  0.00    -0.205 F 
ENDBRANCH  15  20
TORSDOF 1
