REMARK  Name = ZINC45275665
REMARK  8 active torsions:
REMARK  status: ('A' for Active; 'I' for Inactive)
REMARK    1  A    between atoms: C_1  and  C_2
REMARK    2  A    between atoms: C_2  and  C_4
REMARK    3  A    between atoms: C_2  and  O_23
REMARK    4  A    between atoms: N_6  and  C_7
REMARK    5  A    between atoms: O_23  and  C_24
REMARK    6  A    between atoms: C_24  and  C_26
REMARK    7  A    between atoms: C_28  and  N_33
REMARK    8  A    between atoms: C_31  and  N_32
REMARK                            x       y       z     vdW  Elec       q    Type
REMARK                         _______ _______ _______ _____ _____    ______ ____
ROOT
ATOM      1  C   UNL     1       1.556  -0.774  -1.289  0.00  0.00    +0.258 C 
ATOM      2  O   UNL     1       2.576  -1.369  -1.014  0.00  0.00    -0.271 OA
ATOM      3  N   UNL     1       1.194  -0.617  -2.578  0.00  0.00    -0.282 N 
ATOM      4  H   UNL     1       0.347  -0.198  -2.796  0.00  0.00    +0.155 HD
ENDROOT
BRANCH   3   5
ATOM      5  C   UNL     1       2.038  -1.056  -3.597  0.00  0.00    +0.034 A 
ATOM      6  C   UNL     1       2.122  -0.337  -4.784  0.00  0.00    +0.024 A 
ATOM      7  C   UNL     1       2.954  -0.762  -5.800  0.00  0.00    +0.014 A 
ATOM      8  C   UNL     1       3.715  -1.919  -5.639  0.00  0.00    +0.033 A 
ATOM      9  C   UNL     1       3.633  -2.650  -4.439  0.00  0.00    +0.035 A 
ATOM     10  C   UNL     1       2.797  -2.210  -3.420  0.00  0.00    +0.035 A 
ATOM     11  C   UNL     1       4.438  -3.878  -4.263  0.00  0.00    +0.195 C 
ATOM     12  O   UNL     1       4.367  -4.509  -3.227  0.00  0.00    -0.287 OA
ATOM     13  C   UNL     1       5.328  -4.336  -5.350  0.00  0.00    +0.033 A 
ATOM     14  C   UNL     1       6.089  -5.491  -5.194  0.00  0.00    +0.012 A 
ATOM     15  C   UNL     1       6.920  -5.913  -6.218  0.00  0.00    +0.001 A 
ATOM     16  C   UNL     1       7.000  -5.194  -7.396  0.00  0.00    +0.001 A 
ATOM     17  C   UNL     1       6.250  -4.044  -7.567  0.00  0.00    +0.012 A 
ATOM     18  C   UNL     1       5.409  -3.605  -6.548  0.00  0.00    +0.033 A 
ATOM     19  C   UNL     1       4.604  -2.378  -6.723  0.00  0.00    +0.195 C 
ATOM     20  O   UNL     1       4.675  -1.747  -7.760  0.00  0.00    -0.287 OA
ENDBRANCH   3   5
BRANCH   1  22
ATOM     21  C   UNL     1       0.676   1.316  -0.284  0.00  0.00    +0.062 C 
ATOM     22  C   UNL     1       0.692  -0.211  -0.190  0.00  0.00    +0.259 C 
BRANCH  22  23
ATOM     23  O   UNL     1       1.219  -0.605   1.079  0.00  0.00    -0.449 OA
BRANCH  23  24
ATOM     24  C   UNL     1       0.338  -0.756   2.087  0.00  0.00    +0.342 C 
ATOM     25  O   UNL     1      -0.846  -0.559   1.895  0.00  0.00    -0.245 OA
BRANCH  24  26
ATOM     26  C   UNL     1       0.809  -1.160   3.423  0.00  0.00    +0.082 A 
ATOM     27  C   UNL     1       2.178  -1.278   3.680  0.00  0.00    +0.049 A 
ATOM     28  C   UNL     1       2.612  -1.656   4.931  0.00  0.00    +0.127 A 
ATOM     29  C   UNL     1       1.699  -1.921   5.939  0.00  0.00    +0.034 A 
ATOM     30  C   UNL     1       0.344  -1.808   5.702  0.00  0.00    +0.026 A 
ATOM     31  C   UNL     1      -0.113  -1.422   4.448  0.00  0.00    +0.039 A 
BRANCH  31  32
ATOM     32  N   UNL     1      -1.476  -1.302   4.209  0.00  0.00    -0.357 N 
ATOM     33  H   UNL     1      -1.790  -0.963   3.357  0.00  0.00    +0.142 HD
ATOM     34  H   UNL     1      -2.113  -1.558   4.894  0.00  0.00    +0.142 HD
ENDBRANCH  31  32
BRANCH  28  35
ATOM     35  N   UNL     1       4.063  -1.782   5.200  0.00  0.00    +0.056 N 
ATOM     36  O   UNL     1       4.862  -1.552   4.323  0.00  0.00    -0.126 OA
ATOM     37  O   UNL     1       4.447  -2.113   6.297  0.00  0.00    -0.126 OA
ENDBRANCH  28  35
ENDBRANCH  24  26
ENDBRANCH  23  24
ENDBRANCH  22  23
ENDBRANCH   1  22
TORSDOF 7
