REMARK  Name = ZINC65182970
REMARK  9 active torsions:
REMARK  status: ('A' for Active; 'I' for Inactive)
REMARK    1  A    between atoms: C_1  and  C_2
REMARK    2  A    between atoms: C_5  and  C_9
REMARK    3  A    between atoms: N_11  and  C_12
REMARK    4  A    between atoms: N_11  and  C_13
REMARK    5  A    between atoms: C_13  and  C_14
REMARK    6  A    between atoms: C_14  and  C_15
REMARK    7  A    between atoms: C_18  and  C_21
REMARK    8  A    between atoms: C_26  and  O_31
REMARK    9  A    between atoms: O_31  and  C_32
REMARK                            x       y       z     vdW  Elec       q    Type
REMARK                         _______ _______ _______ _____ _____    ______ ____
ROOT
ATOM      1  C   UNL     1       2.357  -7.994   0.865  0.00  0.00    +0.139 C 
ATOM      2  N   UNL     1       1.496  -8.939   0.976  0.00  0.00    -0.072 NA
ATOM      3  O   UNL     1       2.121 -10.207   0.902  0.00  0.00    -0.367 OA
ATOM      4  C   UNL     1       3.525  -9.956   0.725  0.00  0.00    +0.318 C 
ATOM      5  N   UNL     1       3.631  -8.488   0.702  0.00  0.00    -0.291 N 
ATOM      6  H   UNL     1       4.443  -7.969   0.594  0.00  0.00    +0.151 HD
ENDROOT
BRANCH   4   7
ATOM      7  C   UNL     1       4.011 -10.547  -0.599  0.00  0.00    +0.165 C 
ATOM      8  C   UNL     1       3.838 -12.049  -0.594  0.00  0.00    +0.013 C 
ATOM      9  C   UNL     1       5.078 -12.570  -0.741  0.00  0.00    -0.000 A 
ATOM     10  C   UNL     1       5.577 -13.947  -0.812  0.00  0.00    +0.055 A 
ATOM     11  C   UNL     1       6.904 -14.169  -0.966  0.00  0.00    +0.121 A 
ATOM     12  C   UNL     1       7.834 -13.119  -1.062  0.00  0.00    +0.047 A 
ATOM     13  C   UNL     1       7.472 -11.819  -1.008  0.00  0.00    +0.029 A 
ATOM     14  C   UNL     1       6.059 -11.464  -0.843  0.00  0.00    +0.043 A 
ATOM     15  N   UNL     1       5.449 -10.306  -0.762  0.00  0.00    -0.373 N 
ATOM     16  H   UNL     1       5.877  -9.436  -0.803  0.00  0.00    +0.160 HD
BRANCH  11  17
ATOM     17  O   UNL     1       7.353 -15.450  -1.030  0.00  0.00    -0.495 OA
ATOM     18  C   UNL     1       8.760 -15.638  -1.193  0.00  0.00    +0.277 C 
ENDBRANCH  11  17
ENDBRANCH   4   7
BRANCH   1  19
ATOM     19  C   UNL     1       2.015  -6.527   0.902  0.00  0.00    +0.094 C 
BRANCH  19  20
ATOM     20  C   UNL     1       0.507  -6.360   1.097  0.00  0.00    +0.115 C 
BRANCH  20  23
ATOM     21  C   UNL     1      -0.129  -4.283  -0.007  0.00  0.00    +0.246 C 
ATOM     22  O   UNL     1      -0.213  -4.897  -1.053  0.00  0.00    -0.270 OA
ATOM     23  N   UNL     1       0.175  -4.933   1.133  0.00  0.00    -0.300 N 
ATOM     24  C   UNL     1       0.172  -4.214   2.409  0.00  0.00    +0.132 C 
BRANCH  21  29
ATOM     25  C   UNL     1      -1.026   1.402   0.077  0.00  0.00    +0.047 C 
ATOM     26  C   UNL     1      -0.791  -0.086   0.054  0.00  0.00    -0.015 A 
ATOM     27  C   UNL     1      -1.264  -0.874   1.088  0.00  0.00    +0.007 A 
ATOM     28  C   UNL     1      -1.052  -2.237   1.074  0.00  0.00    +0.013 A 
ATOM     29  C   UNL     1      -0.359  -2.823   0.013  0.00  0.00    +0.040 A 
ATOM     30  C   UNL     1       0.115  -2.024  -1.028  0.00  0.00    +0.051 A 
ATOM     31  C   UNL     1      -0.108  -0.660  -1.005  0.00  0.00    +0.127 A 
ATOM     32  F   UNL     1       0.346   0.114  -2.015  0.00  0.00    -0.205 F 
ENDBRANCH  21  29
ENDBRANCH  20  23
ENDBRANCH  19  20
ENDBRANCH   1  19
TORSDOF 6
