REMARK  Name = ZINC39325411
REMARK  10 active torsions:
REMARK  status: ('A' for Active; 'I' for Inactive)
REMARK    1  A    between atoms: C_1  and  O_2
REMARK    2  A    between atoms: O_2  and  C_3
REMARK    3  A    between atoms: C_7  and  C_17
REMARK    4  A    between atoms: C_14  and  O_15
REMARK    5  A    between atoms: O_15  and  C_16
REMARK    6  A    between atoms: C_17  and  N_18
REMARK    7  A    between atoms: N_18  and  C_19
REMARK    8  A    between atoms: N_18  and  S_27
REMARK    9  A    between atoms: C_19  and  C_20
REMARK   10  A    between atoms: S_27  and  C_30
REMARK                            x       y       z     vdW  Elec       q    Type
REMARK                         _______ _______ _______ _____ _____    ______ ____
ROOT
ATOM      1  N   UNL     1      -8.182  -1.024  -1.159  0.00  0.00    -0.171 NA
ENDROOT
BRANCH   1   2
ATOM      2  S   UNL     1      -8.243  -2.496  -1.916  0.00  0.00    +0.061 S 
ATOM      3  O   UNL     1      -9.549  -2.616  -2.465  0.00  0.00    -0.153 OA
ATOM      4  O   UNL     1      -7.070  -2.592  -2.712  0.00  0.00    -0.153 OA
BRANCH   2   5
ATOM      5  C   UNL     1      -8.106  -3.731  -0.667  0.00  0.00    +0.106 A 
ATOM      6  C   UNL     1      -6.874  -4.288  -0.379  0.00  0.00    +0.031 A 
ATOM      7  C   UNL     1      -6.766  -5.257   0.601  0.00  0.00    +0.040 A 
ATOM      8  C   UNL     1      -7.891  -5.668   1.295  0.00  0.00    +0.124 A 
ATOM      9  C   UNL     1      -9.124  -5.109   1.006  0.00  0.00    +0.040 A 
ATOM     10  C   UNL     1      -9.230  -4.137   0.029  0.00  0.00    +0.031 A 
ATOM     11  F   UNL     1      -7.786  -6.615   2.253  0.00  0.00    -0.205 F 
ENDBRANCH   2   5
ENDBRANCH   1   2
BRANCH   1  12
ATOM     12  C   UNL     1      -6.914  -0.294  -1.078  0.00  0.00    +0.126 C 
BRANCH  12  17
ATOM     13  C   UNL     1      -1.847   0.040   1.799  0.00  0.00    +0.162 A 
ATOM     14  C   UNL     1      -2.858   0.676   1.153  0.00  0.00    +0.059 A 
ATOM     15  C   UNL     1      -4.169   0.026   1.071  0.00  0.00    -0.003 A 
ATOM     16  C   UNL     1      -5.205   0.633   0.431  0.00  0.00    -0.003 C 
ATOM     17  C   UNL     1      -6.527  -0.106   0.390  0.00  0.00    +0.114 C 
ATOM     18  C   UNL     1      -6.590  -1.458   1.063  0.00  0.00    +0.225 C 
ATOM     19  O   UNL     1      -7.627  -2.095   1.060  0.00  0.00    -0.275 OA
ATOM     20  N   UNL     1      -5.514  -1.946   1.654  0.00  0.00    -0.284 N 
ATOM     21  C   UNL     1      -4.347  -1.299   1.693  0.00  0.00    +0.044 A 
ATOM     22  C   UNL     1      -3.248  -1.881   2.339  0.00  0.00    +0.073 A 
ATOM     23  C   UNL     1      -2.037  -1.228   2.381  0.00  0.00    +0.163 A 
ATOM     24  H   UNL     1      -5.575  -2.816   2.080  0.00  0.00    +0.155 HD
BRANCH  13  26
ATOM     25  C   UNL     1      -0.492   1.921   1.271  0.00  0.00    +0.277 C 
ATOM     26  O   UNL     1      -0.628   0.636   1.880  0.00  0.00    -0.491 OA
ENDBRANCH  13  26
BRANCH  23  27
ATOM     27  O   UNL     1      -0.994  -1.823   3.009  0.00  0.00    -0.491 OA
ATOM     28  C   UNL     1      -1.232  -3.109   3.585  0.00  0.00    +0.277 C 
ENDBRANCH  23  27
ENDBRANCH  12  17
ENDBRANCH   1  12
BRANCH   1  29
ATOM     29  C   UNL     1      -9.396  -0.452  -0.571  0.00  0.00    +0.144 C 
BRANCH  29  30
ATOM     30  C   UNL     1     -10.039   0.486  -1.559  0.00  0.00    -0.031 A 
ATOM     31  C   UNL     1      -9.687   1.823  -1.572  0.00  0.00    +0.008 A 
ATOM     32  C   UNL     1     -10.275   2.684  -2.478  0.00  0.00    +0.038 A 
ATOM     33  C   UNL     1     -11.219   2.208  -3.373  0.00  0.00    +0.123 A 
ATOM     34  C   UNL     1     -11.571   0.869  -3.358  0.00  0.00    +0.038 A 
ATOM     35  C   UNL     1     -10.977   0.009  -2.455  0.00  0.00    +0.008 A 
ATOM     36  F   UNL     1     -11.796   3.049  -4.258  0.00  0.00    -0.205 F 
ENDBRANCH  29  30
ENDBRANCH   1  29
TORSDOF 8
