REMARK  Name = ZINC39515493
REMARK  10 active torsions:
REMARK  status: ('A' for Active; 'I' for Inactive)
REMARK    1  A    between atoms: C_1  and  C_2
REMARK    2  A    between atoms: C_7  and  C_9
REMARK    3  A    between atoms: C_7  and  C_10
REMARK    4  A    between atoms: C_13  and  C_15
REMARK    5  A    between atoms: C_15  and  C_16
REMARK    6  A    between atoms: C_16  and  C_17
REMARK    7  A    between atoms: C_17  and  C_23
REMARK    8  A    between atoms: C_23  and  C_24
REMARK    9  A    between atoms: C_27  and  O_34
REMARK   10  A    between atoms: O_34  and  C_35
REMARK                            x       y       z     vdW  Elec       q    Type
REMARK                         _______ _______ _______ _____ _____    ______ ____
ROOT
ATOM      1  C   UNL     1      -6.137  -3.170  -0.849  0.00  0.00    +0.039 C 
ATOM      2  C   UNL     1      -6.794  -2.078  -1.722  0.00  0.00    +0.035 C 
ATOM      3  C   UNL     1      -6.496  -0.799  -0.904  0.00  0.00    +0.098 C 
ATOM      4  C   UNL     1      -6.322  -1.298   0.514  0.00  0.00    +0.214 C 
ATOM      5  O   UNL     1      -6.353  -0.600   1.505  0.00  0.00    -0.276 OA
ATOM      6  N   UNL     1      -6.128  -2.628   0.515  0.00  0.00    -0.309 N 
ATOM      7  H   UNL     1      -5.999  -3.162   1.315  0.00  0.00    +0.149 HD
ENDROOT
BRANCH   1   8
ATOM      8  C   UNL     1      -4.707  -3.437  -1.322  0.00  0.00    +0.035 C 
BRANCH   8   9
ATOM      9  C   UNL     1      -3.874  -2.162  -1.174  0.00  0.00    +0.098 C 
BRANCH   9  21
ATOM     10  C   UNL     1      -0.589   2.165  -1.558  0.00  0.00    +0.013 C 
ATOM     11  C   UNL     1      -0.425   0.671  -1.241  0.00  0.00    -0.014 C 
ATOM     12  C   UNL     1       0.283  -0.102  -2.388  0.00  0.00    +0.030 C 
ATOM     13  C   UNL     1      -0.136  -1.548  -2.022  0.00  0.00    +0.077 C 
ATOM     14  C   UNL     1       0.712  -1.976  -0.827  0.00  0.00    +0.029 C 
ATOM     15  C   UNL     1       0.613  -1.039   0.364  0.00  0.00    -0.033 C 
ATOM     16  C   UNL     1       0.375   0.423   0.036  0.00  0.00    +0.014 C 
ATOM     17  C   UNL     1      -0.465  -1.544   1.335  0.00  0.00    +0.011 C 
ATOM     18  C   UNL     1       1.960  -1.124   1.125  0.00  0.00    +0.011 C 
ATOM     19  N   UNL     1      -1.547  -1.438  -1.601  0.00  0.00    -0.298 N 
ATOM     20  C   UNL     1      -1.783  -0.061  -1.142  0.00  0.00    +0.114 C 
ATOM     21  C   UNL     1      -2.465  -2.425  -1.640  0.00  0.00    +0.216 C 
ATOM     22  O   UNL     1      -2.158  -3.524  -2.050  0.00  0.00    -0.276 OA
ENDBRANCH   9  21
ENDBRANCH   8   9
ENDBRANCH   1   8
BRANCH   1  23
ATOM     23  C   UNL     1      -6.960  -4.458  -0.901  0.00  0.00    +0.061 C 
BRANCH  23  24
ATOM     24  C   UNL     1      -8.322  -4.209  -0.305  0.00  0.00    -0.037 A 
ATOM     25  C   UNL     1      -9.357  -3.825  -1.102  0.00  0.00    +0.008 A 
ATOM     26  C   UNL     1     -10.622  -3.589  -0.572  0.00  0.00    +0.046 A 
ATOM     27  C   UNL     1     -10.863  -3.737   0.765  0.00  0.00    +0.128 A 
ATOM     28  C   UNL     1      -9.814  -4.134   1.619  0.00  0.00    +0.024 A 
ATOM     29  C   UNL     1      -8.529  -4.378   1.075  0.00  0.00    -0.011 A 
ATOM     30  C   UNL     1      -7.485  -4.779   1.926  0.00  0.00    +0.009 A 
ATOM     31  C   UNL     1      -7.723  -4.932   3.257  0.00  0.00    +0.001 A 
ATOM     32  C   UNL     1      -8.988  -4.698   3.791  0.00  0.00    +0.001 A 
ATOM     33  C   UNL     1     -10.020  -4.297   2.999  0.00  0.00    +0.012 A 
BRANCH  27  34
ATOM     34  O   UNL     1     -12.102  -3.503   1.267  0.00  0.00    -0.495 OA
ATOM     35  C   UNL     1     -13.113  -3.103   0.339  0.00  0.00    +0.277 C 
ENDBRANCH  27  34
ENDBRANCH  23  24
ENDBRANCH   1  23
TORSDOF 6
