REMARK  Name = ZINC13463181
REMARK  5 active torsions:
REMARK  status: ('A' for Active; 'I' for Inactive)
REMARK    1  A    between atoms: C_3  and  C_21
REMARK    2  A    between atoms: C_4  and  O_20
REMARK    3  A    between atoms: C_6  and  O_7
REMARK    4  A    between atoms: O_7  and  S_8
REMARK    5  A    between atoms: S_8  and  C_11
REMARK                            x       y       z     vdW  Elec       q    Type
REMARK                         _______ _______ _______ _____ _____    ______ ____
ROOT
ATOM      1  O   UNL     1       3.544   2.124  -0.019  0.00  0.00    -0.342 OA
ENDROOT
BRANCH   1   7
ATOM      2  C   UNL     1       1.165   2.098   0.002  0.00  0.00    +0.049 A 
ATOM      3  C   UNL     1      -0.017   1.395   0.010  0.00  0.00    +0.022 A 
ATOM      4  C   UNL     1       0.002  -0.004   0.002  0.00  0.00    +0.105 A 
ATOM      5  C   UNL     1       1.231  -0.683  -0.013  0.00  0.00    +0.135 A 
ATOM      6  C   UNL     1       2.413   0.036  -0.021  0.00  0.00    +0.094 A 
ATOM      7  C   UNL     1       2.382   1.423  -0.013  0.00  0.00    +0.160 A 
BRANCH   4   8
ATOM      8  C   UNL     1      -1.260  -0.760   0.009  0.00  0.00    +0.390 C 
ATOM      9  O   UNL     1      -1.241  -1.976   0.003  0.00  0.00    -0.240 OA
ATOM     10  O   UNL     1      -2.438  -0.105   0.024  0.00  0.00    -0.240 OA
ENDBRANCH   4   8
BRANCH   5  11
ATOM     11  O   UNL     1       1.259  -2.039  -0.021  0.00  0.00    -0.506 OA
ATOM     12  H   UNL     1       1.258  -2.428  -0.906  0.00  0.00    +0.292 HD
ENDBRANCH   5  11
ENDBRANCH   1   7
BRANCH   1  13
ATOM     13  S   UNL     1       4.061   2.452  -1.413  0.00  0.00    +0.154 S 
ATOM     14  O   UNL     1       5.364   2.993  -1.246  0.00  0.00    -0.131 OA
ATOM     15  O   UNL     1       3.807   1.310  -2.219  0.00  0.00    -0.131 OA
BRANCH  13  16
ATOM     16  C   UNL     1       3.055   3.752  -2.049  0.00  0.00    +0.165 A 
ATOM     17  C   UNL     1       1.914   3.452  -2.772  0.00  0.00    +0.072 A 
ATOM     18  C   UNL     1       1.122   4.473  -3.268  0.00  0.00    +0.037 A 
ATOM     19  C   UNL     1       1.476   5.792  -3.050  0.00  0.00    +0.021 A 
ATOM     20  C   UNL     1       2.620   6.091  -2.331  0.00  0.00    +0.037 A 
ATOM     21  C   UNL     1       3.409   5.071  -1.831  0.00  0.00    +0.072 A 
ATOM     22 CL   UNL     1       4.844   5.446  -0.929  0.00  0.00    -0.081 Cl
ATOM     23 BR   UNL     1       0.397   7.186  -3.733  0.00  0.00    -0.050 Br
ATOM     24 CL   UNL     1       1.473   1.797  -3.053  0.00  0.00    -0.081 Cl
ENDBRANCH  13  16
ENDBRANCH   1  13
TORSDOF 5
