REMARK  Name = ZINC40022439
REMARK  7 active torsions:
REMARK  status: ('A' for Active; 'I' for Inactive)
REMARK    1  A    between atoms: C_1  and  C_2
REMARK    2  A    between atoms: C_4  and  C_13
REMARK    3  A    between atoms: C_9  and  C_12
REMARK    4  A    between atoms: C_14  and  C_24
REMARK    5  A    between atoms: N_16  and  C_18
REMARK    6  A    between atoms: C_25  and  C_26
REMARK    7  A    between atoms: C_25  and  C_28
REMARK                            x       y       z     vdW  Elec       q    Type
REMARK                         _______ _______ _______ _____ _____    ______ ____
ROOT
ATOM      1  C   UNL     1      -0.475  -3.205  -2.566  0.00  0.00    +0.100 A 
ATOM      2  C   UNL     1      -0.860  -2.528  -3.813  0.00  0.00    +0.022 A 
ATOM      3  C   UNL     1      -0.543  -3.402  -4.842  0.00  0.00    +0.123 A 
ATOM      4  N   UNL     1      -0.017  -4.509  -4.292  0.00  0.00    -0.239 N 
ATOM      5  N   UNL     1       0.024  -4.372  -2.902  0.00  0.00    -0.166 NA
ENDROOT
BRANCH   1   9
ATOM      6  C   UNL     1      -0.401   0.666   0.581  0.00  0.00    +0.047 C 
ATOM      7  C   UNL     1      -0.581  -0.809   0.329  0.00  0.00    -0.008 A 
ATOM      8  C   UNL     1      -0.452  -1.306  -0.949  0.00  0.00    +0.017 A 
ATOM      9  C   UNL     1      -0.618  -2.669  -1.192  0.00  0.00    +0.003 A 
ATOM     10  C   UNL     1      -0.920  -3.524  -0.132  0.00  0.00    +0.017 A 
ATOM     11  C   UNL     1      -1.050  -3.019   1.140  0.00  0.00    -0.001 A 
ATOM     12  C   UNL     1      -0.873  -1.663   1.391  0.00  0.00    +0.127 A 
ATOM     13  O   UNL     1      -1.017  -1.385   2.716  0.00  0.00    -0.488 OA
ATOM     14  C   UNL     1      -1.727  -2.462   3.351  0.00  0.00    +0.175 C 
ATOM     15  C   UNL     1      -1.377  -3.678   2.467  0.00  0.00    +0.083 C 
ATOM     16  C   UNL     1      -1.236  -2.663   4.787  0.00  0.00    +0.052 C 
ENDBRANCH   1   9
BRANCH   4  17
ATOM     17  C   UNL     1       0.429  -5.629  -5.005  0.00  0.00    +0.065 A 
ATOM     18  C   UNL     1       0.349  -5.649  -6.391  0.00  0.00    +0.028 A 
ATOM     19  C   UNL     1       0.791  -6.754  -7.091  0.00  0.00    +0.002 A 
ATOM     20  C   UNL     1       1.311  -7.841  -6.413  0.00  0.00    +0.000 A 
ATOM     21  C   UNL     1       1.392  -7.825  -5.032  0.00  0.00    +0.002 A 
ATOM     22  C   UNL     1       0.958  -6.720  -4.327  0.00  0.00    +0.028 A 
ENDBRANCH   4  17
BRANCH   2  23
ATOM     23  C   UNL     1      -1.438  -1.239  -3.939  0.00  0.00    +0.035 C 
ATOM     24  C   UNL     1      -1.421  -0.591  -5.157  0.00  0.00    +0.114 C 
BRANCH  24  25
ATOM     25  C   UNL     1      -2.152   0.673  -5.328  0.00  0.00    +0.252 C 
ATOM     26  O   UNL     1      -2.772   1.147  -4.395  0.00  0.00    -0.270 OA
ATOM     27  N   UNL     1      -2.135   1.306  -6.517  0.00  0.00    -0.325 N 
ATOM     28  H   UNL     1      -1.640   0.928  -7.261  0.00  0.00    +0.145 HD
ATOM     29  H   UNL     1      -2.617   2.140  -6.630  0.00  0.00    +0.145 HD
ENDBRANCH  24  25
BRANCH  24  30
ATOM     30  C   UNL     1      -0.690  -1.149  -6.255  0.00  0.00    +0.104 C 
ATOM     31  N   UNL     1      -0.111  -1.592  -7.126  0.00  0.00    -0.191 NA
ENDBRANCH  24  30
ENDBRANCH   2  23
TORSDOF 5
