REMARK  Name = ZINC64623226
REMARK  9 active torsions:
REMARK  status: ('A' for Active; 'I' for Inactive)
REMARK    1  A    between atoms: C_1  and  C_2
REMARK    2  A    between atoms: C_5  and  C_8
REMARK    3  A    between atoms: C_15  and  O_20
REMARK    4  A    between atoms: O_20  and  C_21
REMARK    5  A    between atoms: N_27  and  C_28
REMARK    6  A    between atoms: C_31  and  O_36
REMARK    7  A    between atoms: C_32  and  O_34
REMARK    8  A    between atoms: O_34  and  C_35
REMARK    9  A    between atoms: O_36  and  C_37
REMARK                            x       y       z     vdW  Elec       q    Type
REMARK                         _______ _______ _______ _____ _____    ______ ____
ROOT
ATOM      1  C   UNL     1       0.467  -3.685   0.085  0.00  0.00    +0.134 C 
ATOM      2  C   UNL     1      -0.990  -4.156   0.128  0.00  0.00    +0.131 C 
ATOM      3  C   UNL     1      -1.387  -4.207   1.598  0.00  0.00    -0.035 C 
ATOM      4  C   UNL     1      -2.462  -3.438   1.723  0.00  0.00    +0.003 A 
ATOM      5  C   UNL     1      -3.333  -3.147   2.872  0.00  0.00    +0.055 A 
ATOM      6  C   UNL     1      -4.365  -2.287   2.653  0.00  0.00    +0.121 A 
ATOM      7  C   UNL     1      -4.632  -1.680   1.417  0.00  0.00    +0.047 A 
ATOM      8  C   UNL     1      -3.898  -1.882   0.293  0.00  0.00    +0.029 A 
ATOM      9  C   UNL     1      -2.754  -2.798   0.403  0.00  0.00    +0.043 A 
ATOM     10  N   UNL     1      -1.892  -3.197  -0.513  0.00  0.00    -0.375 N 
ATOM     11  C   UNL     1      -0.581  -4.958   2.629  0.00  0.00    +0.052 C 
ATOM     12  C   UNL     1       0.880  -4.502   2.467  0.00  0.00    +0.114 C 
ATOM     13  N   UNL     1       1.234  -4.497   1.043  0.00  0.00    -0.276 N 
ATOM     14  C   UNL     1       2.269  -5.242   0.607  0.00  0.00    +0.307 C 
ATOM     15  O   UNL     1       2.623  -5.172  -0.554  0.00  0.00    -0.252 OA
ATOM     16  N   UNL     1       2.912  -6.065   1.459  0.00  0.00    -0.269 N 
ATOM     17  H   UNL     1       2.590  -6.170   2.368  0.00  0.00    +0.156 HD
ATOM     18  H   UNL     1      -1.851  -2.911  -1.439  0.00  0.00    +0.160 HD
ENDROOT
BRANCH   1  23
ATOM     19  C   UNL     1       0.760   1.892   1.568  0.00  0.00    +0.044 C 
ATOM     20  C   UNL     1       0.684   0.438   1.181  0.00  0.00    -0.050 A 
ATOM     21  C   UNL     1       0.967   0.052  -0.116  0.00  0.00    +0.004 A 
ATOM     22  C   UNL     1       0.896  -1.282  -0.470  0.00  0.00    +0.006 A 
ATOM     23  C   UNL     1       0.544  -2.231   0.472  0.00  0.00    -0.025 A 
ATOM     24  C   UNL     1       0.263  -1.845   1.769  0.00  0.00    +0.006 A 
ATOM     25  C   UNL     1       0.337  -0.511   2.125  0.00  0.00    +0.004 A 
ENDBRANCH   1  23
BRANCH  16  26
ATOM     26  C   UNL     1       4.045  -6.771   1.032  0.00  0.00    +0.038 A 
ATOM     27  C   UNL     1       4.248  -7.001  -0.322  0.00  0.00    +0.027 A 
ATOM     28  C   UNL     1       5.365  -7.697  -0.746  0.00  0.00    +0.051 A 
ATOM     29  C   UNL     1       6.284  -8.165   0.179  0.00  0.00    +0.162 A 
ATOM     30  C   UNL     1       6.082  -7.935   1.537  0.00  0.00    +0.163 A 
ATOM     31  C   UNL     1       4.966  -7.234   1.961  0.00  0.00    +0.072 A 
BRANCH  30  32
ATOM     32  O   UNL     1       6.983  -8.395   2.446  0.00  0.00    -0.491 OA
ATOM     33  C   UNL     1       6.712  -8.123   3.823  0.00  0.00    +0.277 C 
ENDBRANCH  30  32
BRANCH  29  34
ATOM     34  O   UNL     1       7.383  -8.850  -0.239  0.00  0.00    -0.491 OA
ATOM     35  C   UNL     1       7.525  -9.049  -1.647  0.00  0.00    +0.277 C 
ENDBRANCH  29  34
ENDBRANCH  16  26
BRANCH   6  36
ATOM     36  O   UNL     1      -5.188  -1.998   3.696  0.00  0.00    -0.495 OA
ATOM     37  C   UNL     1      -6.264  -1.093   3.443  0.00  0.00    +0.277 C 
ENDBRANCH   6  36
TORSDOF 5
