REMARK  Name = ZINC13213031
REMARK  9 active torsions:
REMARK  status: ('A' for Active; 'I' for Inactive)
REMARK    1  A    between atoms: C_1  and  C_2
REMARK    2  A    between atoms: C_5  and  C_9
REMARK    3  A    between atoms: C_6  and  C_8
REMARK    4  A    between atoms: C_9  and  C_11
REMARK    5  A    between atoms: N_15  and  C_26
REMARK    6  A    between atoms: C_16  and  C_18
REMARK    7  A    between atoms: C_23  and  O_24
REMARK    8  A    between atoms: O_24  and  C_25
REMARK    9  A    between atoms: C_30  and  C_32
REMARK                            x       y       z     vdW  Elec       q    Type
REMARK                         _______ _______ _______ _____ _____    ______ ____
ROOT
ATOM      1  C   UNL     1       0.385  -5.253  -1.450  0.00  0.00    +0.077 C 
ATOM      2  C   UNL     1       0.479  -6.568  -1.758  0.00  0.00    +0.250 C 
ATOM      3  C   UNL     1       0.671  -6.713  -3.216  0.00  0.00    +0.292 C 
ATOM      4  O   UNL     1       0.790  -7.771  -3.802  0.00  0.00    -0.266 OA
ATOM      5  N   UNL     1       0.696  -5.501  -3.799  0.00  0.00    -0.253 N 
ATOM      6  C   UNL     1       0.514  -4.491  -2.749  0.00  0.00    +0.153 C 
ATOM      7  O   UNL     1       0.408  -7.587  -0.871  0.00  0.00    -0.282 OA
ENDROOT
BRANCH   6   8
ATOM      8  C   UNL     1      -0.737  -3.691  -3.006  0.00  0.00    +0.020 A 
ATOM      9  C   UNL     1      -1.786  -4.255  -3.707  0.00  0.00    +0.009 A 
ATOM     10  C   UNL     1      -2.934  -3.522  -3.944  0.00  0.00    +0.001 A 
ATOM     11  C   UNL     1      -3.035  -2.222  -3.481  0.00  0.00    +0.004 A 
ATOM     12  C   UNL     1      -1.989  -1.655  -2.780  0.00  0.00    +0.046 A 
ATOM     13  C   UNL     1      -0.838  -2.390  -2.536  0.00  0.00    +0.125 A 
BRANCH  13  14
ATOM     14  O   UNL     1       0.190  -1.836  -1.842  0.00  0.00    -0.495 OA
ATOM     15  C   UNL     1      -0.014  -0.521  -1.321  0.00  0.00    +0.277 C 
ENDBRANCH  13  14
ENDBRANCH   6   8
BRANCH   5  16
ATOM     16  C   UNL     1       0.860  -5.247  -5.163  0.00  0.00    +0.038 A 
ATOM     17  C   UNL     1       0.872  -3.938  -5.631  0.00  0.00    +0.023 A 
ATOM     18  C   UNL     1       1.034  -3.682  -6.980  0.00  0.00    +0.003 A 
ATOM     19  C   UNL     1       1.184  -4.723  -7.872  0.00  0.00    +0.015 A 
ATOM     20  C   UNL     1       1.174  -6.043  -7.413  0.00  0.00    +0.065 A 
ATOM     21  C   UNL     1       1.016  -6.302  -6.050  0.00  0.00    +0.038 A 
BRANCH  20  22
ATOM     22  C   UNL     1       1.335  -7.159  -8.364  0.00  0.00    +0.387 C 
ATOM     23  O   UNL     1       1.478  -6.930  -9.557  0.00  0.00    -0.241 OA
ATOM     24  O   UNL     1       1.326  -8.314  -7.960  0.00  0.00    -0.241 OA
ENDBRANCH  20  22
ENDBRANCH   5  16
BRANCH   1  25
ATOM     25  C   UNL     1       0.191  -4.679  -0.116  0.00  0.00    +0.195 C 
ATOM     26  O   UNL     1       0.236  -3.473   0.040  0.00  0.00    -0.287 OA
BRANCH  25  31
ATOM     27  C   UNL     1      -0.790  -8.127   4.386  0.00  0.00    +0.044 C 
ATOM     28  C   UNL     1      -0.534  -7.224   3.207  0.00  0.00    -0.050 A 
ATOM     29  C   UNL     1       0.693  -6.596   3.075  0.00  0.00    +0.004 A 
ATOM     30  C   UNL     1       0.935  -5.768   1.998  0.00  0.00    +0.012 A 
ATOM     31  C   UNL     1      -0.061  -5.565   1.041  0.00  0.00    +0.025 A 
ATOM     32  C   UNL     1      -1.296  -6.202   1.180  0.00  0.00    -0.039 A 
ATOM     33  C   UNL     1      -1.523  -7.031   2.259  0.00  0.00    +0.007 A 
ATOM     34  C   UNL     1      -2.377  -5.988   0.152  0.00  0.00    +0.044 C 
ENDBRANCH  25  31
ENDBRANCH   1  25
TORSDOF 6
