REMARK  Name = ZINC09243079
REMARK  11 active torsions:
REMARK  status: ('A' for Active; 'I' for Inactive)
REMARK    1  A    between atoms: C_1  and  C_2
REMARK    2  A    between atoms: C_2  and  C_3
REMARK    3  A    between atoms: C_2  and  C_4
REMARK    4  A    between atoms: C_7  and  C_10
REMARK    5  A    between atoms: C_13  and  C_31
REMARK    6  A    between atoms: N_20  and  C_21
REMARK    7  A    between atoms: C_21  and  C_22
REMARK    8  A    between atoms: C_22  and  C_23
REMARK    9  A    between atoms: C_26  and  O_29
REMARK   10  A    between atoms: O_29  and  C_30
REMARK   11  A    between atoms: C_36  and  O_37
REMARK                            x       y       z     vdW  Elec       q    Type
REMARK                         _______ _______ _______ _____ _____    ______ ____
ROOT
ATOM      1  C   UNL     1      -5.377  -2.009   0.024  0.00  0.00    +0.141 C 
ATOM      2  C   UNL     1      -5.407  -3.479   0.342  0.00  0.00    +0.035 A 
ATOM      3  C   UNL     1      -5.107  -4.494   1.258  0.00  0.00    +0.102 A 
ATOM      4  N   UNL     1      -5.490  -5.635   0.721  0.00  0.00    -0.173 NA
ATOM      5  N   UNL     1      -6.001  -5.442  -0.443  0.00  0.00    -0.272 N 
ATOM      6  H   UNL     1      -6.350  -6.139  -1.021  0.00  0.00    +0.189 HD
ATOM      7  C   UNL     1      -5.981  -4.110  -0.745  0.00  0.00    +0.126 A 
ATOM      8  C   UNL     1      -6.320  -3.095  -1.748  0.00  0.00    +0.265 C 
ATOM      9  O   UNL     1      -6.840  -3.327  -2.822  0.00  0.00    -0.268 OA
ATOM     10  N   UNL     1      -5.974  -1.869  -1.311  0.00  0.00    -0.285 N 
ENDROOT
BRANCH   1  14
ATOM     11  C   UNL     1      -1.348  -0.590  -0.011  0.00  0.00    -0.045 A 
ATOM     12  C   UNL     1      -1.776  -1.482  -0.978  0.00  0.00    +0.004 A 
ATOM     13  C   UNL     1      -3.079  -1.941  -0.966  0.00  0.00    +0.006 A 
ATOM     14  C   UNL     1      -3.956  -1.509   0.012  0.00  0.00    -0.022 A 
ATOM     15  C   UNL     1      -3.528  -0.618   0.979  0.00  0.00    +0.006 A 
ATOM     16  C   UNL     1      -2.223  -0.162   0.970  0.00  0.00    +0.004 A 
BRANCH  11  18
ATOM     17  C   UNL     1       1.032  -1.274   0.108  0.00  0.00    +0.012 C 
ATOM     18  C   UNL     1       0.073  -0.089  -0.024  0.00  0.00    +0.013 C 
ATOM     19  C   UNL     1       0.344   0.642  -1.340  0.00  0.00    +0.012 C 
ENDBRANCH  11  18
ENDBRANCH   1  14
BRANCH   3  20
ATOM     20  C   UNL     1      -4.475  -4.318   2.589  0.00  0.00    +0.044 A 
ATOM     21  C   UNL     1      -4.239  -3.039   3.087  0.00  0.00    +0.014 A 
ATOM     22  C   UNL     1      -3.651  -2.880   4.326  0.00  0.00    +0.001 A 
ATOM     23  C   UNL     1      -3.294  -3.987   5.075  0.00  0.00    +0.004 A 
ATOM     24  C   UNL     1      -3.523  -5.261   4.589  0.00  0.00    +0.046 A 
ATOM     25  C   UNL     1      -4.119  -5.434   3.350  0.00  0.00    +0.126 A 
BRANCH  25  26
ATOM     26  O   UNL     1      -4.351  -6.686   2.875  0.00  0.00    -0.506 OA
ATOM     27  H   UNL     1      -3.620  -7.052   2.358  0.00  0.00    +0.292 HD
ENDBRANCH  25  26
ENDBRANCH   3  20
BRANCH  10  28
ATOM     28  C   UNL     1      -6.160  -0.612  -2.040  0.00  0.00    +0.114 C 
BRANCH  28  29
ATOM     29  C   UNL     1      -4.921  -0.329  -2.892  0.00  0.00    +0.054 C 
BRANCH  29  30
ATOM     30  C   UNL     1      -5.112   0.964  -3.642  0.00  0.00    -0.046 A 
ATOM     31  C   UNL     1      -5.696   0.955  -4.896  0.00  0.00    +0.007 A 
ATOM     32  C   UNL     1      -5.872   2.139  -5.585  0.00  0.00    +0.046 A 
ATOM     33  C   UNL     1      -5.463   3.338  -5.019  0.00  0.00    +0.120 A 
ATOM     34  C   UNL     1      -4.878   3.344  -3.761  0.00  0.00    +0.046 A 
ATOM     35  C   UNL     1      -4.709   2.158  -3.073  0.00  0.00    +0.007 A 
BRANCH  33  36
ATOM     36  O   UNL     1      -5.635   4.504  -5.696  0.00  0.00    -0.495 OA
ATOM     37  C   UNL     1      -5.190   5.699  -5.051  0.00  0.00    +0.277 C 
ENDBRANCH  33  36
ENDBRANCH  29  30
ENDBRANCH  28  29
ENDBRANCH  10  28
TORSDOF 8
