REMARK  Name = ZINC09410608
REMARK  8 active torsions:
REMARK  status: ('A' for Active; 'I' for Inactive)
REMARK    1  A    between atoms: C_1  and  O_2
REMARK    2  A    between atoms: O_2  and  C_3
REMARK    3  A    between atoms: C_9  and  C_13
REMARK    4  A    between atoms: C_13  and  C_14
REMARK    5  A    between atoms: C_14  and  N_15
REMARK    6  A    between atoms: C_16  and  C_18
REMARK    7  A    between atoms: C_18  and  O_19
REMARK    8  A    between atoms: O_19  and  C_20
REMARK                            x       y       z     vdW  Elec       q    Type
REMARK                         _______ _______ _______ _____ _____    ______ ____
ROOT
ATOM      1  N   UNL     1       6.852   1.732  -1.491  0.00  0.00    -0.312 N 
ATOM      2  C   UNL     1       7.489   1.529  -2.661  0.00  0.00    +0.251 C 
ATOM      3  O   UNL     1       6.866   1.542  -3.702  0.00  0.00    -0.272 OA
ATOM      4  H   UNL     1       7.350   1.721  -0.659  0.00  0.00    +0.149 HD
ENDROOT
BRANCH   1   5
ATOM      5  C   UNL     1       5.406   1.968  -1.476  0.00  0.00    +0.109 C 
BRANCH   5   6
ATOM      6  C   UNL     1       4.937   2.166  -0.034  0.00  0.00    +0.056 C 
BRANCH   6  13
ATOM      7  C   UNL     1       1.210  -0.697  -0.013  0.00  0.00    +0.121 A 
ATOM      8  C   UNL     1       0.002  -0.004   0.002  0.00  0.00    +0.047 A 
ATOM      9  C   UNL     1      -0.017   1.373   0.010  0.00  0.00    +0.030 A 
ATOM     10  C   UNL     1       1.179   2.084   0.002  0.00  0.00    +0.047 A 
ATOM     11  C   UNL     1       2.400   1.388  -0.013  0.00  0.00    +0.006 A 
ATOM     12  C   UNL     1       2.407  -0.009  -0.021  0.00  0.00    +0.056 A 
ATOM     13  C   UNL     1       3.450   2.409  -0.018  0.00  0.00    -0.021 A 
ATOM     14  C   UNL     1       2.836   3.603  -0.006  0.00  0.00    +0.087 A 
ATOM     15  N   UNL     1       1.479   3.430   0.006  0.00  0.00    -0.360 N 
ATOM     16  H   UNL     1       0.826   4.147   0.017  0.00  0.00    +0.165 HD
BRANCH   7  18
ATOM     17  C   UNL     1      -0.062  -2.706  -0.013  0.00  0.00    +0.277 C 
ATOM     18  O   UNL     1       1.211  -2.057  -0.021  0.00  0.00    -0.495 OA
ENDBRANCH   7  18
ENDBRANCH   6  13
ENDBRANCH   5   6
ENDBRANCH   1   5
BRANCH   2  19
ATOM     19  C   UNL     1       8.976   1.286  -2.677  0.00  0.00    +0.324 C 
BRANCH  19  20
ATOM     20  O   UNL     1       9.415   1.100  -4.024  0.00  0.00    -0.481 OA
BRANCH  20  21
ATOM     21  C   UNL     1      10.739   0.869  -4.215  0.00  0.00    +0.143 A 
ATOM     22  C   UNL     1      11.593   0.822  -3.125  0.00  0.00    +0.094 A 
ATOM     23  C   UNL     1      12.945   0.586  -3.321  0.00  0.00    +0.143 A 
ATOM     24  C   UNL     1      13.433   0.396  -4.625  0.00  0.00    +0.023 A 
ATOM     25  C   UNL     1      12.558   0.446  -5.716  0.00  0.00    +0.035 A 
ATOM     26  C   UNL     1      11.227   0.674  -5.507  0.00  0.00    +0.083 A 
ATOM     27 CL   UNL     1      10.139   0.729  -6.858  0.00  0.00    -0.080 Cl
ATOM     28  C   UNL     1      14.867   0.145  -4.825  0.00  0.00    -0.027 A 
ATOM     29  C   UNL     1      15.668   0.114  -3.739  0.00  0.00    +0.041 A 
ATOM     30  C   UNL     1      15.105   0.311  -2.453  0.00  0.00    +0.341 A 
ATOM     31  O   UNL     1      15.835   0.274  -1.478  0.00  0.00    -0.245 OA
ATOM     32  O   UNL     1      13.797   0.536  -2.275  0.00  0.00    -0.422 OA
ATOM     33  C   UNL     1      17.154  -0.115  -3.831  0.00  0.00    +0.042 C 
ATOM     34  C   UNL     1      17.521  -0.730  -5.180  0.00  0.00    +0.005 C 
ATOM     35  C   UNL     1      16.886   0.121  -6.287  0.00  0.00    +0.005 C 
ATOM     36  C   UNL     1      15.371  -0.066  -6.226  0.00  0.00    +0.036 C 
ENDBRANCH  20  21
ENDBRANCH  19  20
ENDBRANCH   2  19
TORSDOF 7
