REMARK  Name = ZINC08749258
REMARK  8 active torsions:
REMARK  status: ('A' for Active; 'I' for Inactive)
REMARK    1  A    between atoms: C_1  and  C_2
REMARK    2  A    between atoms: C_7  and  C_9
REMARK    3  A    between atoms: C_7  and  C_30
REMARK    4  A    between atoms: C_7  and  N_65
REMARK    5  A    between atoms: C_9  and  N_10
REMARK    6  A    between atoms: C_11  and  C_13
REMARK    7  A    between atoms: N_18  and  S_20
REMARK    8  A    between atoms: S_20  and  C_23
REMARK                            x       y       z     vdW  Elec       q    Type
REMARK                         _______ _______ _______ _____ _____    ______ ____
ROOT
ATOM      1  N   UNL     1       1.184   1.664   0.002  0.00  0.00    -0.316 N 
ATOM      2  C   UNL     1       0.098   0.868   0.070  0.00  0.00    +0.217 C 
ATOM      3  O   UNL     1       0.232  -0.330   0.197  0.00  0.00    -0.275 OA
ATOM      4  H   UNL     1       1.077   2.623  -0.100  0.00  0.00    +0.149 HD
ENDROOT
BRANCH   2   5
ATOM      5  C   UNL     1      -1.282   1.467  -0.018  0.00  0.00    +0.091 C 
ATOM      6  C   UNL     1      -1.437   2.199  -1.354  0.00  0.00    +0.015 C 
ATOM      7  C   UNL     1      -2.827   2.835  -1.431  0.00  0.00    +0.018 C 
ATOM      8  C   UNL     1      -3.892   1.737  -1.355  0.00  0.00    +0.109 C 
ATOM      9  N   UNL     1      -3.661   0.937  -0.144  0.00  0.00    -0.176 NA
ATOM     10  C   UNL     1      -2.330   0.353   0.074  0.00  0.00    +0.122 C 
BRANCH   9  11
ATOM     11  S   UNL     1      -4.877   0.697   0.954  0.00  0.00    +0.061 S 
ATOM     12  O   UNL     1      -4.251   0.411   2.197  0.00  0.00    -0.153 OA
ATOM     13  O   UNL     1      -5.790   1.773   0.790  0.00  0.00    -0.153 OA
BRANCH  11  14
ATOM     14  C   UNL     1      -5.732  -0.766   0.472  0.00  0.00    +0.106 A 
ATOM     15  C   UNL     1      -6.811  -0.685  -0.388  0.00  0.00    +0.031 A 
ATOM     16  C   UNL     1      -7.479  -1.832  -0.771  0.00  0.00    +0.040 A 
ATOM     17  C   UNL     1      -7.074  -3.063  -0.283  0.00  0.00    +0.124 A 
ATOM     18  C   UNL     1      -5.997  -3.143   0.584  0.00  0.00    +0.040 A 
ATOM     19  C   UNL     1      -5.327  -1.995   0.960  0.00  0.00    +0.031 A 
ATOM     20  F   UNL     1      -7.731  -4.185  -0.651  0.00  0.00    -0.205 F 
ENDBRANCH  11  14
ENDBRANCH   9  11
ENDBRANCH   2   5
BRANCH   1  21
ATOM     21  C   UNL     1       2.525   1.081   0.082  0.00  0.00    +0.094 C 
BRANCH  21  22
ATOM     22  C   UNL     1       3.571   2.193  -0.020  0.00  0.00    -0.013 C 
BRANCH  22  29
ATOM     23  C   UNL     1       3.347   5.799   4.409  0.00  0.00    +0.007 C 
ATOM     24  C   UNL     1       3.776   4.694   3.441  0.00  0.00    -0.018 C 
ATOM     25  C   UNL     1       4.038   5.298   2.059  0.00  0.00    -0.015 C 
ATOM     26  C   UNL     1       4.408   4.180   1.081  0.00  0.00    -0.078 C 
ATOM     27  C   UNL     1       3.073   2.579   2.317  0.00  0.00    -0.078 C 
ATOM     28  C   UNL     1       2.663   3.649   3.331  0.00  0.00    -0.015 C 
ATOM     29  N   UNL     1       3.286   3.221   1.002  0.00  0.00    +0.386 N 
ATOM     30  H   UNL     1       2.433   3.727   0.737  0.00  0.00    -0.081 HD
ENDBRANCH  22  29
BRANCH  22  31
ATOM     31  C   UNL     1       4.946   1.610   0.184  0.00  0.00    -0.022 A 
ATOM     32  C   UNL     1       5.930   1.405  -0.725  0.00  0.00    +0.009 A 
ATOM     33  C   UNL     1       7.125   0.850  -0.305  0.00  0.00    +0.008 A 
ATOM     34  C   UNL     1       7.277   0.528   1.003  0.00  0.00    +0.045 A 
ATOM     35  S   UNL     1       5.703   1.018   1.689  0.00  0.00    -0.103 S 
ENDBRANCH  22  31
ENDBRANCH  21  22
ENDBRANCH   1  21
TORSDOF 7
