REMARK  Name = ZINC63908551
REMARK  3 active torsions:
REMARK  status: ('A' for Active; 'I' for Inactive)
REMARK    1  A    between atoms: C_7  and  C_10
REMARK    2  A    between atoms: C_16  and  C_18
REMARK    3  A    between atoms: C_18  and  C_19
REMARK                            x       y       z     vdW  Elec       q    Type
REMARK                         _______ _______ _______ _____ _____    ______ ____
ROOT
ATOM      1  C   UNL     1       0.691  -3.186  -0.024  0.00  0.00    +0.020 C 
ATOM      2  C   UNL     1       0.947  -4.041   1.219  0.00  0.00    +0.027 C 
ATOM      3  C   UNL     1      -0.035  -5.218   1.235  0.00  0.00    +0.108 C 
ATOM      4  N   UNL     1       0.081  -5.948  -0.035  0.00  0.00    -0.301 N 
ATOM      5  C   UNL     1      -0.058  -5.202  -1.293  0.00  0.00    +0.108 C 
ATOM      6  C   UNL     1       0.924  -4.026  -1.281  0.00  0.00    +0.027 C 
ATOM      7  C   UNL     1       0.311  -7.276  -0.045  0.00  0.00    +0.217 C 
ATOM      8  O   UNL     1       0.425  -7.879   1.001  0.00  0.00    -0.276 OA
ENDROOT
BRANCH   1  15
ATOM      9  C   UNL     1      -0.016   1.348   0.009  0.00  0.00    +0.001 A 
ATOM     10  C   UNL     1       1.166   2.101   0.002  0.00  0.00    +0.002 A 
ATOM     11  C   UNL     1       2.391   1.535  -0.013  0.00  0.00    +0.026 A 
ATOM     12  C   UNL     1       2.529   0.120  -0.022  0.00  0.00    +0.043 A 
ATOM     13  N   UNL     1       3.587  -0.654  -0.037  0.00  0.00    -0.380 N 
ATOM     14  C   UNL     1       3.143  -2.053  -0.041  0.00  0.00    +0.145 C 
ATOM     15  C   UNL     1       1.631  -2.008  -0.025  0.00  0.00    -0.038 C 
ATOM     16  C   UNL     1       1.295  -0.698  -0.014  0.00  0.00    -0.001 A 
ATOM     17  C   UNL     1       0.002  -0.004   0.002  0.00  0.00    +0.010 A 
ATOM     18  H   UNL     1       4.509  -0.353  -0.045  0.00  0.00    +0.160 HD
ENDBRANCH   1  15
BRANCH   7  19
ATOM     19  C   UNL     1       0.428  -8.010  -1.355  0.00  0.00    +0.119 C 
BRANCH  19  20
ATOM     20  C   UNL     1       0.687  -9.494  -1.087  0.00  0.00    +0.146 C 
ATOM     21  C   UNL     1       0.916 -10.212  -2.391  0.00  0.00    +0.231 C 
ATOM     22  O   UNL     1       2.058 -10.427  -2.739  0.00  0.00    -0.274 OA
ATOM     23  N   UNL     1      -0.072 -10.622  -3.179  0.00  0.00    -0.284 N 
ATOM     24  C   UNL     1      -1.434 -10.572  -2.898  0.00  0.00    +0.047 A 
ATOM     25  C   UNL     1      -2.348 -10.712  -3.938  0.00  0.00    +0.024 A 
ATOM     26  C   UNL     1      -3.704 -10.656  -3.686  0.00  0.00    +0.002 A 
ATOM     27  C   UNL     1      -4.171 -10.460  -2.399  0.00  0.00    +0.001 A 
ATOM     28  C   UNL     1      -3.275 -10.323  -1.355  0.00  0.00    +0.016 A 
ATOM     29  C   UNL     1      -1.913 -10.383  -1.602  0.00  0.00    +0.030 A 
ATOM     30  S   UNL     1      -0.760 -10.229  -0.265  0.00  0.00    -0.110 S 
ATOM     31  H   UNL     1       0.181 -10.994  -4.039  0.00  0.00    +0.155 HD
ENDBRANCH  19  20
ENDBRANCH   7  19
TORSDOF 3
