REMARK  Name = ZINC10785771
REMARK  10 active torsions:
REMARK  status: ('A' for Active; 'I' for Inactive)
REMARK    1  A    between atoms: C_1  and  C_2
REMARK    2  A    between atoms: N_11  and  C_12
REMARK    3  A    between atoms: C_12  and  C_13
REMARK    4  A    between atoms: C_13  and  C_14
REMARK    5  A    between atoms: C_14  and  N_52
REMARK    6  A    between atoms: C_15  and  N_52
REMARK    7  A    between atoms: C_16  and  N_52
REMARK    8  A    between atoms: C_17  and  C_19
REMARK    9  A    between atoms: C_21  and  N_28
REMARK   10  A    between atoms: C_23  and  N_25
REMARK                            x       y       z     vdW  Elec       q    Type
REMARK                         _______ _______ _______ _____ _____    ______ ____
ROOT
ATOM      1  C   UNL     1       1.619  -1.870  -6.380  0.00  0.00    +0.046 C 
ATOM      2  C   UNL     1       0.265  -2.268  -5.850  0.00  0.00    -0.023 A 
ATOM      3  C   UNL     1      -0.359  -3.380  -6.353  0.00  0.00    +0.025 A 
ATOM      4  C   UNL     1      -1.606  -3.781  -5.893  0.00  0.00    +0.042 A 
ATOM      5  C   UNL     1      -2.233  -3.043  -4.904  0.00  0.00    +0.037 A 
ATOM      6  C   UNL     1      -1.615  -1.928  -4.396  0.00  0.00    +0.042 A 
ATOM      7  C   UNL     1      -0.346  -1.490  -4.841  0.00  0.00    +0.083 A 
ATOM      8  N   UNL     1       0.130  -0.376  -4.243  0.00  0.00    -0.224 NA
ATOM      9  C   UNL     1      -0.536   0.264  -3.310  0.00  0.00    +0.168 A 
ATOM     10  S   UNL     1      -2.021  -0.720  -3.159  0.00  0.00    -0.052 S 
ATOM     11  N   UNL     1      -0.177   1.406  -2.615  0.00  0.00    -0.246 N 
ATOM     12  C   UNL     1       1.002   2.008  -2.871  0.00  0.00    +0.252 C 
ATOM     13  O   UNL     1       1.722   1.583  -3.753  0.00  0.00    -0.270 OA
ATOM     14 CL   UNL     1      -2.370  -5.195  -6.551  0.00  0.00    -0.083 Cl
ENDROOT
BRANCH  12  15
ATOM     15  C   UNL     1       1.419   3.183  -2.078  0.00  0.00    +0.042 A 
ATOM     16  C   UNL     1       1.185   3.220  -0.702  0.00  0.00    +0.046 A 
ATOM     17  C   UNL     1       1.582   4.317   0.033  0.00  0.00    +0.129 A 
ATOM     18  C   UNL     1       2.200   5.386  -0.592  0.00  0.00    +0.065 A 
ATOM     19  C   UNL     1       2.430   5.358  -1.956  0.00  0.00    +0.129 A 
ATOM     20  C   UNL     1       2.043   4.264  -2.702  0.00  0.00    +0.046 A 
BRANCH  19  21
ATOM     21  N   UNL     1       3.092   6.505  -2.616  0.00  0.00    +0.057 N 
ATOM     22  O   UNL     1       3.296   6.483  -3.817  0.00  0.00    -0.126 OA
ATOM     23  O   UNL     1       3.434   7.472  -1.959  0.00  0.00    -0.126 OA
ENDBRANCH  19  21
BRANCH  17  24
ATOM     24  N   UNL     1       1.341   4.355   1.493  0.00  0.00    +0.057 N 
ATOM     25  O   UNL     1       1.687   5.325   2.143  0.00  0.00    -0.126 OA
ATOM     26  O   UNL     1       0.797   3.415   2.045  0.00  0.00    -0.126 OA
ENDBRANCH  17  24
ENDBRANCH  12  15
BRANCH  11  27
ATOM     27  C   UNL     1      -1.078   1.961  -1.602  0.00  0.00    +0.114 C 
BRANCH  27  28
ATOM     28  C   UNL     1      -1.103   1.039  -0.382  0.00  0.00    +0.001 C 
BRANCH  28  29
ATOM     29  C   UNL     1      -1.920   1.693   0.735  0.00  0.00    -0.078 C 
BRANCH  29  32
ATOM     30  C   UNL     1      -2.512   1.495   3.074  0.00  0.00    -0.097 C 
ATOM     31  C   UNL     1      -2.678  -0.431   1.616  0.00  0.00    -0.097 C 
ATOM     32  N   UNL     1      -1.917   0.801   1.913  0.00  0.00    +0.376 N 
ATOM     33  H   UNL     1      -0.947   0.547   2.137  0.00  0.00    -0.083 HD
ENDBRANCH  29  32
ENDBRANCH  28  29
ENDBRANCH  27  28
ENDBRANCH  11  27
TORSDOF 7
