REMARK  Name = ZINC63363142
REMARK  7 active torsions:
REMARK  status: ('A' for Active; 'I' for Inactive)
REMARK    1  A    between atoms: C_4  and  N_7
REMARK    2  A    between atoms: N_7  and  C_8
REMARK    3  A    between atoms: C_8  and  N_10
REMARK    4  A    between atoms: N_10  and  N_11
REMARK    5  A    between atoms: C_12  and  C_14
REMARK    6  A    between atoms: C_14  and  S_15
REMARK    7  A    between atoms: S_15  and  C_16
REMARK                            x       y       z     vdW  Elec       q    Type
REMARK                         _______ _______ _______ _____ _____    ______ ____
ROOT
ATOM      1  N   UNL     1       6.023  -1.921   0.136  0.00  0.00    -0.234 N 
ATOM      2  C   UNL     1       7.201  -2.571   0.222  0.00  0.00    +0.239 C 
ATOM      3  O   UNL     1       7.221  -3.780   0.307  0.00  0.00    -0.273 OA
ATOM      4  H   UNL     1       6.006  -0.954   0.068  0.00  0.00    +0.173 HD
ENDROOT
BRANCH   1   5
ATOM      5  N   UNL     1       4.822  -2.644   0.144  0.00  0.00    -0.246 N 
ATOM      6  H   UNL     1       4.839  -3.611   0.212  0.00  0.00    +0.172 HD
BRANCH   5   7
ATOM      7  C   UNL     1       3.644  -1.995   0.058  0.00  0.00    +0.151 C 
ATOM      8  S   UNL     1       2.178  -2.877   0.068  0.00  0.00    -0.017 S 
BRANCH   7   9
ATOM      9  N   UNL     1       3.621  -0.650  -0.036  0.00  0.00    -0.296 N 
ATOM     10  H   UNL     1       4.451  -0.156  -0.123  0.00  0.00    +0.154 HD
BRANCH   9  14
ATOM     11  C   UNL     1      -0.014   1.382   0.046  0.00  0.00    +0.000 A 
ATOM     12  C   UNL     1       0.205   0.326   0.911  0.00  0.00    +0.002 A 
ATOM     13  C   UNL     1       1.410  -0.350   0.886  0.00  0.00    +0.023 A 
ATOM     14  C   UNL     1       2.400   0.032  -0.009  0.00  0.00    +0.033 A 
ATOM     15  C   UNL     1       2.176   1.093  -0.877  0.00  0.00    +0.023 A 
ATOM     16  C   UNL     1       0.970   1.764  -0.847  0.00  0.00    +0.002 A 
ENDBRANCH   9  14
ENDBRANCH   7   9
ENDBRANCH   5   7
ENDBRANCH   1   5
BRANCH   2  17
ATOM     17  C   UNL     1       8.492  -1.794   0.213  0.00  0.00    +0.174 C 
BRANCH  17  18
ATOM     18  S   UNL     1       9.890  -2.943   0.342  0.00  0.00    -0.075 S 
BRANCH  18  19
ATOM     19  C   UNL     1      11.306  -1.895   0.319  0.00  0.00    +0.208 C 
ATOM     20  N   UNL     1      11.116  -0.600   0.228  0.00  0.00    -0.227 NA
ATOM     21  C   UNL     1      12.291   0.266   0.289  0.00  0.00    +0.252 C 
ATOM     22  C   UNL     1      13.454  -0.552  -0.254  0.00  0.00    +0.117 C 
ATOM     23  C   UNL     1      14.068   0.248  -1.169  0.00  0.00    +0.025 A 
ATOM     24  C   UNL     1      15.257   0.093  -1.923  0.00  0.00    +0.012 A 
ATOM     25  C   UNL     1      15.590   1.095  -2.780  0.00  0.00    +0.001 A 
ATOM     26  C   UNL     1      14.835   2.259  -2.960  0.00  0.00    +0.002 A 
ATOM     27  C   UNL     1      13.683   2.517  -2.286  0.00  0.00    +0.026 A 
ATOM     28  C   UNL     1      13.246   1.488  -1.328  0.00  0.00    +0.046 A 
ATOM     29  N   UNL     1      12.216   1.461  -0.539  0.00  0.00    -0.358 N 
ATOM     30  N   UNL     1      13.617  -1.835   0.084  0.00  0.00    -0.147 NA
ATOM     31  N   UNL     1      12.530  -2.472   0.402  0.00  0.00    -0.122 NA
ATOM     32  H   UNL     1      11.512   2.127  -0.507  0.00  0.00    +0.162 HD
ENDBRANCH  18  19
ENDBRANCH  17  18
ENDBRANCH   2  17
TORSDOF 7
