REMARK  Name = ZINC15869697
REMARK  5 active torsions:
REMARK  status: ('A' for Active; 'I' for Inactive)
REMARK    1  A    between atoms: C_4  and  C_7
REMARK    2  A    between atoms: C_15  and  C_18
REMARK    3  A    between atoms: C_18  and  N_19
REMARK    4  A    between atoms: N_19  and  S_20
REMARK    5  A    between atoms: S_20  and  C_23
REMARK                            x       y       z     vdW  Elec       q    Type
REMARK                         _______ _______ _______ _____ _____    ______ ____
ROOT
ATOM      1  C   UNL     1      -0.016   1.344   0.009  0.00  0.00    +0.251 C 
ATOM      2  O   UNL     1       0.947   2.081   0.079  0.00  0.00    -0.270 OA
ATOM      3  N   UNL     1       0.161   0.010  -0.077  0.00  0.00    -0.267 N 
ATOM      4  C   UNL     1      -0.916  -0.983  -0.051  0.00  0.00    +0.118 C 
ATOM      5  C   UNL     1      -0.212  -2.344  -0.180  0.00  0.00    +0.056 C 
ATOM      6  C   UNL     1       1.258  -2.004  -0.273  0.00  0.00    -0.024 A 
ATOM      7  C   UNL     1       1.397  -0.626  -0.212  0.00  0.00    +0.040 A 
ATOM      8  C   UNL     1       2.676  -0.070  -0.284  0.00  0.00    +0.028 A 
ATOM      9  C   UNL     1       3.781  -0.884  -0.418  0.00  0.00    -0.030 A 
ATOM     10  C   UNL     1       3.632  -2.257  -0.482  0.00  0.00    +0.005 A 
ATOM     11  C   UNL     1       2.369  -2.815  -0.402  0.00  0.00    +0.006 A 
ENDROOT
BRANCH   1  15
ATOM     12  C   UNL     1      -3.940   2.969   0.023  0.00  0.00    +0.000 A 
ATOM     13  C   UNL     1      -3.762   1.599   0.106  0.00  0.00    +0.001 A 
ATOM     14  C   UNL     1      -2.490   1.065   0.102  0.00  0.00    +0.013 A 
ATOM     15  C   UNL     1      -1.382   1.909   0.014  0.00  0.00    +0.037 A 
ATOM     16  C   UNL     1      -1.569   3.290  -0.064  0.00  0.00    +0.013 A 
ATOM     17  C   UNL     1      -2.846   3.811  -0.065  0.00  0.00    +0.001 A 
ENDBRANCH   1  15
BRANCH   9  18
ATOM     18  C   UNL     1       5.157  -0.274  -0.495  0.00  0.00    +0.141 C 
BRANCH  18  19
ATOM     19  N   UNL     1       5.714  -0.152   0.854  0.00  0.00    -0.186 NA
ATOM     20  H   UNL     1       5.134  -0.237   1.627  0.00  0.00    +0.148 HD
BRANCH  19  21
ATOM     21  S   UNL     1       7.332   0.132   1.060  0.00  0.00    +0.061 S 
ATOM     22  O   UNL     1       7.554   0.225   2.460  0.00  0.00    -0.153 OA
ATOM     23  O   UNL     1       8.017  -0.806   0.241  0.00  0.00    -0.153 OA
BRANCH  21  24
ATOM     24  C   UNL     1       7.671   1.726   0.390  0.00  0.00    +0.133 A 
ATOM     25  C   UNL     1       8.081   2.729   1.203  0.00  0.00    +0.031 A 
ATOM     26  C   UNL     1       8.358   4.003   0.707  0.00  0.00    +0.004 A 
ATOM     27  C   UNL     1       8.229   4.295  -0.610  0.00  0.00    +0.031 A 
ATOM     28  C   UNL     1       7.803   3.293  -1.520  0.00  0.00    +0.102 A 
ATOM     29  C   UNL     1       7.519   1.958  -1.002  0.00  0.00    +0.126 A 
ATOM     30  N   UNL     1       7.138   1.119  -1.964  0.00  0.00    -0.189 NA
ATOM     31  S   UNL     1       7.160   1.942  -3.297  0.00  0.00    +0.117 S 
ATOM     32  N   UNL     1       7.614   3.370  -2.836  0.00  0.00    -0.191 NA
ENDBRANCH  21  24
ENDBRANCH  19  21
ENDBRANCH  18  19
ENDBRANCH   9  18
TORSDOF 5
