REMARK  Name = ZINC40986353
REMARK  12 active torsions:
REMARK  status: ('A' for Active; 'I' for Inactive)
REMARK    1  A    between atoms: C_1  and  C_2
REMARK    2  A    between atoms: C_5  and  C_8
REMARK    3  A    between atoms: C_8  and  S_9
REMARK    4  A    between atoms: S_9  and  C_12
REMARK    5  A    between atoms: C_15  and  C_19
REMARK    6  A    between atoms: N_21  and  C_22
REMARK    7  A    between atoms: C_22  and  C_23
REMARK    8  A    between atoms: C_23  and  C_25
REMARK    9  A    between atoms: C_23  and  N_32
REMARK   10  A    between atoms: C_28  and  C_31
REMARK   11  A    between atoms: N_32  and  C_33
REMARK   12  A    between atoms: N_32  and  C_34
REMARK                            x       y       z     vdW  Elec       q    Type
REMARK                         _______ _______ _______ _____ _____    ______ ____
ROOT
ATOM      1  C   UNL     1       1.467  -6.508   0.280  0.00  0.00    +0.272 A 
ATOM      2  N   UNL     1       1.339  -7.199   1.396  0.00  0.00    -0.219 NA
ATOM      3  C   UNL     1       1.348  -8.521   1.383  0.00  0.00    +0.130 A 
ATOM      4  C   UNL     1       1.496  -9.185   0.160  0.00  0.00    +0.092 A 
ATOM      5  C   UNL     1       1.629  -8.410  -1.000  0.00  0.00    +0.146 A 
ATOM      6  N   UNL     1       1.604  -7.091  -0.894  0.00  0.00    -0.199 NA
ATOM      7 CL   UNL     1       1.816  -9.167  -2.551  0.00  0.00    -0.061 Cl
ENDROOT
BRANCH   4   8
ATOM      8  C   UNL     1       1.513 -10.661   0.094  0.00  0.00    +0.248 C 
ATOM      9  O   UNL     1       1.642 -11.220  -0.978  0.00  0.00    -0.270 OA
ATOM     10  N   UNL     1       1.384 -11.387   1.222  0.00  0.00    -0.312 N 
ATOM     11  H   UNL     1       1.281 -10.941   2.077  0.00  0.00    +0.149 HD
BRANCH  10  12
ATOM     12  C   UNL     1       1.400 -12.851   1.156  0.00  0.00    +0.094 C 
BRANCH  12  13
ATOM     13  C   UNL     1       1.351 -13.425   2.573  0.00  0.00    -0.021 C 
BRANCH  13  14
ATOM     14  C   UNL     1       0.040 -13.057   3.219  0.00  0.00    -0.059 A 
ATOM     15  C   UNL     1      -1.101 -13.781   2.929  0.00  0.00    +0.002 A 
ATOM     16  C   UNL     1      -2.303 -13.444   3.521  0.00  0.00    +0.003 A 
ATOM     17  C   UNL     1      -2.365 -12.382   4.404  0.00  0.00    -0.050 A 
ATOM     18  C   UNL     1      -1.224 -11.659   4.696  0.00  0.00    +0.003 A 
ATOM     19  C   UNL     1      -0.020 -11.999   4.106  0.00  0.00    +0.002 A 
ATOM     20  C   UNL     1      -3.676 -12.014   5.049  0.00  0.00    +0.044 C 
ENDBRANCH  13  14
BRANCH  13  21
ATOM     21  N   UNL     1       1.474 -14.888   2.513  0.00  0.00    +0.382 N 
ATOM     22  C   UNL     1       2.752 -15.246   1.885  0.00  0.00    -0.096 C 
ATOM     23  C   UNL     1       1.425 -15.439   3.874  0.00  0.00    -0.096 C 
ATOM     24  H   UNL     1       0.714 -15.267   1.969  0.00  0.00    -0.082 HD
ENDBRANCH  13  21
ENDBRANCH  12  13
ENDBRANCH  10  12
ENDBRANCH   4   8
BRANCH   1  25
ATOM     25  S   UNL     1       1.447  -4.748   0.360  0.00  0.00    +0.036 S 
ATOM     26  O   UNL     1       2.180  -4.324  -0.781  0.00  0.00    -0.166 OA
ATOM     27  O   UNL     1       1.903  -4.439   1.670  0.00  0.00    -0.166 OA
BRANCH  25  28
ATOM     28  C   UNL     1      -0.300  -4.293   0.184  0.00  0.00    +0.210 C 
BRANCH  28  33
ATOM     29  C   UNL     1      -0.827   1.458   0.395  0.00  0.00    +0.044 C 
ATOM     30  C   UNL     1      -0.690  -0.042   0.340  0.00  0.00    -0.050 A 
ATOM     31  C   UNL     1      -0.491  -0.673  -0.874  0.00  0.00    +0.003 A 
ATOM     32  C   UNL     1      -0.365  -2.049  -0.924  0.00  0.00    +0.005 A 
ATOM     33  C   UNL     1      -0.437  -2.793   0.239  0.00  0.00    -0.026 A 
ATOM     34  C   UNL     1      -0.634  -2.161   1.452  0.00  0.00    +0.005 A 
ATOM     35  C   UNL     1      -0.756  -0.785   1.503  0.00  0.00    +0.003 A 
ENDBRANCH  28  33
ENDBRANCH  25  28
ENDBRANCH   1  25
TORSDOF 8
