REMARK  Name = ZINC35697744
REMARK  11 active torsions:
REMARK  status: ('A' for Active; 'I' for Inactive)
REMARK    1  A    between atoms: C_1  and  C_2
REMARK    2  A    between atoms: C_2  and  O_3
REMARK    3  A    between atoms: O_3  and  C_4
REMARK    4  A    between atoms: C_4  and  C_6
REMARK    5  A    between atoms: N_11  and  C_13
REMARK    6  A    between atoms: C_15  and  C_16
REMARK    7  A    between atoms: C_21  and  C_37
REMARK    8  A    between atoms: C_22  and  C_33
REMARK    9  A    between atoms: C_23  and  C_26
REMARK   10  A    between atoms: C_33  and  O_35
REMARK   11  A    between atoms: O_35  and  C_36
REMARK                            x       y       z     vdW  Elec       q    Type
REMARK                         _______ _______ _______ _____ _____    ______ ____
ROOT
ATOM      1  C   UNL     1       5.862  -1.710   6.422  0.00  0.00    +0.048 C 
ATOM      2  C   UNL     1       6.583  -2.355   7.366  0.00  0.00    +0.072 C 
ATOM      3  S   UNL     1       7.378  -1.002   8.210  0.00  0.00    -0.060 S 
ATOM      4  C   UNL     1       6.744   0.268   7.314  0.00  0.00    +0.166 C 
ATOM      5  N   UNL     1       6.919   1.571   7.404  0.00  0.00    -0.230 NA
ATOM      6  C   UNL     1       6.344   2.465   6.615  0.00  0.00    +0.053 C 
ATOM      7  C   UNL     1       5.489   2.063   5.607  0.00  0.00    +0.082 C 
ATOM      8  C   UNL     1       5.240   0.580   5.443  0.00  0.00    +0.150 C 
ATOM      9  N   UNL     1       5.944  -0.332   6.383  0.00  0.00    -0.267 N 
ATOM     10  C   UNL     1       6.624   3.932   6.819  0.00  0.00    +0.066 C 
ENDROOT
BRANCH   8  11
ATOM     11  C   UNL     1       5.641   0.194   4.043  0.00  0.00    -0.021 A 
ATOM     12  C   UNL     1       6.979   0.120   3.703  0.00  0.00    +0.006 A 
ATOM     13  C   UNL     1       7.347  -0.234   2.418  0.00  0.00    +0.002 A 
ATOM     14  C   UNL     1       6.378  -0.513   1.473  0.00  0.00    +0.020 A 
ATOM     15  C   UNL     1       5.039  -0.439   1.813  0.00  0.00    +0.041 A 
ATOM     16  C   UNL     1       4.671  -0.091   3.101  0.00  0.00    +0.025 A 
ATOM     17 CL   UNL     1       3.821  -0.790   0.626  0.00  0.00    -0.084 Cl
ENDBRANCH   8  11
BRANCH   1  20
ATOM     18  C   UNL     1       4.841  -3.776   5.618  0.00  0.00    +0.241 C 
ATOM     19  O   UNL     1       5.321  -4.405   6.718  0.00  0.00    -0.271 OA
ATOM     20  C   UNL     1       5.024  -2.450   5.467  0.00  0.00    +0.091 C 
BRANCH  18  25
ATOM     21  C   UNL     1       3.866  -6.860   4.127  0.00  0.00    +0.115 C 
ATOM     22  C   UNL     1       3.748  -6.457   2.655  0.00  0.00    +0.018 C 
ATOM     23  C   UNL     1       4.649  -5.251   2.381  0.00  0.00    +0.020 C 
ATOM     24  C   UNL     1       4.190  -4.070   3.244  0.00  0.00    +0.108 C 
ATOM     25  N   UNL     1       4.161  -4.495   4.650  0.00  0.00    -0.297 N 
ATOM     26  C   UNL     1       3.399  -5.699   5.010  0.00  0.00    +0.122 C 
BRANCH  21  27
ATOM     27  C   UNL     1       3.004  -8.069   4.388  0.00  0.00    +0.312 C 
ATOM     28  O   UNL     1       2.362  -8.558   3.489  0.00  0.00    -0.250 OA
BRANCH  27  29
ATOM     29  O   UNL     1       2.949  -8.600   5.619  0.00  0.00    -0.465 OA
BRANCH  29  31
ATOM     30  C   UNL     1       2.178 -10.206   7.252  0.00  0.00    +0.048 C 
ATOM     31  C   UNL     1       2.112  -9.745   5.795  0.00  0.00    +0.229 C 
ENDBRANCH  29  31
ENDBRANCH  27  29
ENDBRANCH  21  27
ENDBRANCH  18  25
ENDBRANCH   1  20
BRANCH   7  32
ATOM     32  C   UNL     1       4.874   2.997   4.766  0.00  0.00    +0.339 C 
ATOM     33  O   UNL     1       5.089   4.188   4.916  0.00  0.00    -0.245 OA
BRANCH  32  34
ATOM     34  O   UNL     1       4.041   2.579   3.787  0.00  0.00    -0.465 OA
ATOM     35  C   UNL     1       3.448   3.587   2.965  0.00  0.00    +0.280 C 
ENDBRANCH  32  34
ENDBRANCH   7  32
TORSDOF 8
