REMARK  Name = ZINC55503140
REMARK  4 active torsions:
REMARK  status: ('A' for Active; 'I' for Inactive)
REMARK    1  A    between atoms: C_1  and  C_2
REMARK    2  A    between atoms: C_8  and  C_19
REMARK    3  A    between atoms: C_12  and  C_13
REMARK    4  A    between atoms: C_22  and  N_25
REMARK                            x       y       z     vdW  Elec       q    Type
REMARK                         _______ _______ _______ _____ _____    ______ ____
ROOT
ATOM      1  C   UNL     1      -0.429   1.482   0.028  0.00  0.00    +0.046 C 
ATOM      2  C   UNL     1      -0.223  -0.011   0.008  0.00  0.00    -0.021 A 
ATOM      3  C   UNL     1      -0.289  -0.714  -1.205  0.00  0.00    +0.075 A 
ATOM      4  C   UNL     1      -0.540  -0.207  -2.524  0.00  0.00    +0.260 A 
ATOM      5  O   UNL     1      -0.731   0.983  -2.703  0.00  0.00    -0.267 OA
ATOM      6  N   UNL     1      -0.561  -1.064  -3.561  0.00  0.00    -0.306 N 
ATOM      7  H   UNL     1      -0.730  -0.725  -4.455  0.00  0.00    +0.170 HD
ATOM      8  C   UNL     1      -0.348  -2.403  -3.381  0.00  0.00    +0.142 A 
ATOM      9  N   UNL     1      -0.115  -2.894  -2.180  0.00  0.00    -0.222 NA
ATOM     10  C   UNL     1      -0.081  -2.107  -1.116  0.00  0.00    +0.117 A 
ATOM     11  S   UNL     1       0.192  -2.369   0.619  0.00  0.00    -0.068 S 
ATOM     12  C   UNL     1       0.033  -0.677   1.164  0.00  0.00    +0.025 A 
ENDROOT
BRANCH  12  13
ATOM     13  C   UNL     1       0.149  -0.135   2.534  0.00  0.00    -0.011 A 
ATOM     14  C   UNL     1      -0.511  -0.760   3.593  0.00  0.00    +0.009 A 
ATOM     15  C   UNL     1      -0.398  -0.249   4.870  0.00  0.00    +0.001 A 
ATOM     16  C   UNL     1       0.367   0.880   5.101  0.00  0.00    +0.000 A 
ATOM     17  C   UNL     1       1.024   1.504   4.055  0.00  0.00    +0.001 A 
ATOM     18  C   UNL     1       0.925   1.000   2.775  0.00  0.00    +0.009 A 
ENDBRANCH  12  13
BRANCH   8  19
ATOM     19  C   UNL     1      -0.379  -3.309  -4.545  0.00  0.00    +0.017 A 
ATOM     20  C   UNL     1      -0.620  -2.798  -5.824  0.00  0.00    +0.013 A 
ATOM     21  C   UNL     1      -0.648  -3.647  -6.908  0.00  0.00    +0.024 A 
ATOM     22  C   UNL     1      -0.437  -5.010  -6.732  0.00  0.00    +0.035 A 
ATOM     23  C   UNL     1      -0.198  -5.522  -5.461  0.00  0.00    +0.024 A 
ATOM     24  C   UNL     1      -0.163  -4.679  -4.372  0.00  0.00    +0.013 A 
BRANCH  22  25
ATOM     25  N   UNL     1      -0.466  -5.867  -7.833  0.00  0.00    -0.270 N 
ATOM     26  C   UNL     1       0.008  -5.450  -9.024  0.00  0.00    +0.301 C 
ATOM     27  O   UNL     1       0.379  -4.301  -9.162  0.00  0.00    -0.253 OA
ATOM     28  N   UNL     1       0.071  -6.308 -10.062  0.00  0.00    -0.313 N 
ATOM     29  H   UNL     1      -0.828  -6.763  -7.742  0.00  0.00    +0.156 HD
ATOM     30  H   UNL     1      -0.225  -7.225  -9.951  0.00  0.00    +0.146 HD
ATOM     31  H   UNL     1       0.412  -6.008 -10.919  0.00  0.00    +0.146 HD
ENDBRANCH  22  25
ENDBRANCH   8  19
TORSDOF 3
