REMARK  Name = ZINC38732087
REMARK  4 active torsions:
REMARK  status: ('A' for Active; 'I' for Inactive)
REMARK    1  A    between atoms: C_13  and  C_15
REMARK    2  A    between atoms: C_21  and  C_23
REMARK    3  A    between atoms: N_25  and  N_26
REMARK    4  A    between atoms: N_26  and  C_27
REMARK                            x       y       z     vdW  Elec       q    Type
REMARK                         _______ _______ _______ _____ _____    ______ ____
ROOT
ATOM      1  C   UNL     1      -0.032  -6.653   1.157  0.00  0.00    +0.087 C 
ATOM      2  C   UNL     1      -0.792  -6.391  -0.145  0.00  0.00    +0.013 C 
ATOM      3  C   UNL     1      -2.098  -7.188  -0.143  0.00  0.00    +0.001 C 
ATOM      4  C   UNL     1      -1.784  -8.681  -0.028  0.00  0.00    +0.001 C 
ATOM      5  C   UNL     1      -1.025  -8.943   1.274  0.00  0.00    +0.013 C 
ATOM      6  C   UNL     1       0.281  -8.146   1.272  0.00  0.00    +0.088 C 
ENDROOT
BRANCH   1  19
ATOM      7  C   UNL     1       0.361   0.741   4.463  0.00  0.00    +0.005 A 
ATOM      8  C   UNL     1       1.575   1.417   4.467  0.00  0.00    +0.018 A 
ATOM      9  C   UNL     1       2.722   0.747   4.092  0.00  0.00    +0.084 A 
ATOM     10  N   UNL     1       2.678  -0.522   3.732  0.00  0.00    -0.350 N 
ATOM     11  C   UNL     1       1.541  -1.200   3.715  0.00  0.00    +0.099 A 
ATOM     12  C   UNL     1       0.346  -0.588   4.081  0.00  0.00    +0.042 A 
ATOM     13  N   UNL     1       1.541  -2.535   3.328  0.00  0.00    -0.314 N 
ATOM     14  C   UNL     1       0.313  -3.338   3.411  0.00  0.00    +0.125 C 
ATOM     15  C   UNL     1       0.026  -3.940   2.030  0.00  0.00    +0.126 C 
ATOM     16  N   UNL     1       1.254  -4.574   1.530  0.00  0.00    -0.298 N 
ATOM     17  C   UNL     1       2.482  -3.771   1.447  0.00  0.00    +0.126 C 
ATOM     18  C   UNL     1       2.768  -3.167   2.823  0.00  0.00    +0.125 C 
ATOM     19  C   UNL     1       1.254  -5.868   1.155  0.00  0.00    +0.219 C 
ATOM     20  O   UNL     1       2.289  -6.402   0.816  0.00  0.00    -0.275 OA
ATOM     21  H   UNL     1       3.499  -0.968   3.472  0.00  0.00    +0.166 HD
ENDBRANCH   1  19
BRANCH   6  22
ATOM     22  C   UNL     1       1.029  -8.405   2.555  0.00  0.00    +0.233 C 
ATOM     23  O   UNL     1       1.286  -7.485   3.303  0.00  0.00    -0.274 OA
ATOM     24  N   UNL     1       1.413  -9.657   2.871  0.00  0.00    -0.236 N 
ATOM     25  H   UNL     1       1.207 -10.393   2.273  0.00  0.00    +0.173 HD
BRANCH  24  26
ATOM     26  N   UNL     1       2.108  -9.898   4.063  0.00  0.00    -0.264 N 
ATOM     27  H   UNL     1       2.313  -9.162   4.662  0.00  0.00    +0.170 HD
BRANCH  26  28
ATOM     28  C   UNL     1       2.505 -11.196   4.391  0.00  0.00    +0.045 A 
ATOM     29  C   UNL     1       2.217 -12.250   3.532  0.00  0.00    +0.024 A 
ATOM     30  C   UNL     1       2.611 -13.532   3.858  0.00  0.00    +0.003 A 
ATOM     31  C   UNL     1       3.292 -13.769   5.038  0.00  0.00    +0.015 A 
ATOM     32  C   UNL     1       3.581 -12.723   5.895  0.00  0.00    +0.020 A 
ATOM     33  C   UNL     1       3.194 -11.436   5.572  0.00  0.00    +0.039 A 
ATOM     34 BR   UNL     1       4.513 -13.052   7.508  0.00  0.00    -0.050 Br
ENDBRANCH  26  28
ENDBRANCH  24  26
ENDBRANCH   6  22
TORSDOF 4
