REMARK  Name = ZINC40980692
REMARK  14 active torsions:
REMARK  status: ('A' for Active; 'I' for Inactive)
REMARK    1  A    between atoms: C_1  and  C_2
REMARK    2  A    between atoms: C_2  and  C_3
REMARK    3  A    between atoms: C_3  and  S_4
REMARK    4  A    between atoms: S_4  and  C_5
REMARK    5  A    between atoms: C_10  and  C_20
REMARK    6  A    between atoms: C_12  and  C_16
REMARK    7  A    between atoms: C_13  and  C_15
REMARK    8  A    between atoms: C_16  and  O_18
REMARK    9  A    between atoms: O_18  and  C_19
REMARK   10  A    between atoms: C_23  and  O_28
REMARK   11  A    between atoms: C_24  and  O_26
REMARK   12  A    between atoms: O_26  and  C_27
REMARK   13  A    between atoms: O_28  and  C_29
REMARK   14  A    between atoms: C_29  and  C_30
REMARK                            x       y       z     vdW  Elec       q    Type
REMARK                         _______ _______ _______ _____ _____    ______ ____
ROOT
ATOM      1  C   UNL     1      -3.140  -2.839  -0.439  0.00  0.00    +0.210 A 
ATOM      2  N   UNL     1      -4.161  -1.972  -0.378  0.00  0.00    -0.187 NA
ATOM      3  C   UNL     1      -5.274  -2.623  -0.173  0.00  0.00    +0.219 A 
ATOM      4  N   UNL     1      -4.981  -3.944  -0.093  0.00  0.00    -0.220 N 
ATOM      5  N   UNL     1      -3.603  -4.060  -0.275  0.00  0.00    -0.141 NA
ATOM      6  C   UNL     1      -5.982  -4.981   0.141  0.00  0.00    +0.179 C 
ATOM      7  C   UNL     1      -7.359  -4.395  -0.024  0.00  0.00    +0.082 C 
ATOM      8  C   UNL     1      -7.588  -3.075  -0.102  0.00  0.00    +0.020 C 
ATOM      9  N   UNL     1      -6.574  -2.152  -0.047  0.00  0.00    -0.287 N 
ATOM     10  C   UNL     1      -9.007  -2.590  -0.255  0.00  0.00    +0.061 C 
ATOM     11  H   UNL     1      -6.758  -1.208   0.075  0.00  0.00    +0.155 HD
ENDROOT
BRANCH   6  12
ATOM     12  C   UNL     1      -5.830  -5.520   1.540  0.00  0.00    -0.015 A 
ATOM     13  C   UNL     1      -5.971  -4.674   2.624  0.00  0.00    +0.010 A 
ATOM     14  C   UNL     1      -5.832  -5.163   3.910  0.00  0.00    +0.050 A 
ATOM     15  C   UNL     1      -5.551  -6.505   4.114  0.00  0.00    +0.162 A 
ATOM     16  C   UNL     1      -5.409  -7.357   3.023  0.00  0.00    +0.162 A 
ATOM     17  C   UNL     1      -5.554  -6.861   1.737  0.00  0.00    +0.055 A 
BRANCH  16  18
ATOM     18  O   UNL     1      -5.133  -8.674   3.218  0.00  0.00    -0.491 OA
ATOM     19  C   UNL     1      -5.001  -9.489   2.051  0.00  0.00    +0.277 C 
ENDBRANCH  16  18
BRANCH  15  20
ATOM     20  O   UNL     1      -5.414  -6.988   5.378  0.00  0.00    -0.484 OA
BRANCH  20  21
ATOM     21  C   UNL     1      -5.573  -6.056   6.449  0.00  0.00    +0.267 C 
BRANCH  21  22
ATOM     22  C   UNL     1      -5.387  -6.766   7.765  0.00  0.00    +0.025 A 
ATOM     23  C   UNL     1      -5.103  -8.119   7.786  0.00  0.00    +0.010 A 
ATOM     24  C   UNL     1      -4.933  -8.771   8.993  0.00  0.00    +0.001 A 
ATOM     25  C   UNL     1      -5.046  -8.072  10.180  0.00  0.00    +0.003 A 
ATOM     26  C   UNL     1      -5.330  -6.719  10.161  0.00  0.00    +0.039 A 
ATOM     27  C   UNL     1      -5.495  -6.064   8.953  0.00  0.00    +0.130 A 
ATOM     28  F   UNL     1      -5.767  -4.740   8.933  0.00  0.00    -0.205 F 
ENDBRANCH  21  22
ENDBRANCH  20  21
ENDBRANCH  15  20
ENDBRANCH   6  12
BRANCH   7  29
ATOM     29  C   UNL     1      -8.461  -5.276  -0.101  0.00  0.00    +0.339 C 
ATOM     30  O   UNL     1      -8.655  -5.919  -1.116  0.00  0.00    -0.245 OA
BRANCH  29  31
ATOM     31  O   UNL     1      -9.297  -5.404   0.950  0.00  0.00    -0.465 OA
ATOM     32  C   UNL     1     -10.391  -6.312   0.803  0.00  0.00    +0.280 C 
ENDBRANCH  29  31
ENDBRANCH   7  29
BRANCH   1  33
ATOM     33  S   UNL     1      -1.450  -2.414  -0.703  0.00  0.00    -0.084 S 
BRANCH  33  34
ATOM     34  C   UNL     1      -1.471  -0.606  -0.850  0.00  0.00    +0.077 C 
BRANCH  34  36
ATOM     35  C   UNL     1      -0.065   1.428  -1.209  0.00  0.00    +0.004 C 
ATOM     36  C   UNL     1      -0.048  -0.097  -1.085  0.00  0.00    +0.008 C 
ENDBRANCH  34  36
ENDBRANCH  33  34
ENDBRANCH   1  33
TORSDOF 10
