REMARK  Name = ZINC35810249
REMARK  13 active torsions:
REMARK  status: ('A' for Active; 'I' for Inactive)
REMARK    1  A    between atoms: C_1  and  C_2
REMARK    2  A    between atoms: C_6  and  C_8
REMARK    3  A    between atoms: C_8  and  N_9
REMARK    4  A    between atoms: C_11  and  C_24
REMARK    5  A    between atoms: C_13  and  C_16
REMARK    6  A    between atoms: C_20  and  O_22
REMARK    7  A    between atoms: O_22  and  C_23
REMARK    8  A    between atoms: C_24  and  N_25
REMARK    9  A    between atoms: N_25  and  C_26
REMARK   10  A    between atoms: C_26  and  C_27
REMARK   11  A    between atoms: C_27  and  C_28
REMARK   12  A    between atoms: C_27  and  C_29
REMARK   13  A    between atoms: C_30  and  C_32
REMARK                            x       y       z     vdW  Elec       q    Type
REMARK                         _______ _______ _______ _____ _____    ______ ____
ROOT
ATOM      1  N   UNL     1       1.319  -1.581   2.571  0.00  0.00    +0.383 N 
ATOM      2  C   UNL     1       1.106  -2.512   3.709  0.00  0.00    -0.073 C 
ATOM      3  C   UNL     1       2.388  -2.385   4.561  0.00  0.00    -0.005 C 
ATOM      4  C   UNL     1       2.963  -0.997   4.215  0.00  0.00    +0.005 C 
ATOM      5  C   UNL     1       1.981  -0.400   3.184  0.00  0.00    -0.070 C 
ATOM      6  H   UNL     1       1.920  -2.001   1.877  0.00  0.00    -0.081 HD
ENDROOT
BRANCH   4   7
ATOM      7  C   UNL     1       3.020  -0.132   5.448  0.00  0.00    -0.042 A 
ATOM      8  C   UNL     1       1.855   0.389   5.981  0.00  0.00    +0.004 A 
ATOM      9  C   UNL     1       1.903   1.183   7.112  0.00  0.00    +0.004 A 
ATOM     10  C   UNL     1       3.117   1.457   7.713  0.00  0.00    +0.045 A 
ATOM     11  C   UNL     1       4.287   0.935   7.181  0.00  0.00    +0.120 A 
ATOM     12  C   UNL     1       4.235   0.135   6.049  0.00  0.00    +0.049 A 
BRANCH  11  13
ATOM     13  O   UNL     1       5.481   1.204   7.770  0.00  0.00    -0.495 OA
ATOM     14  C   UNL     1       5.458   2.031   8.936  0.00  0.00    +0.277 C 
ENDBRANCH  11  13
ENDBRANCH   4   7
BRANCH   1  15
ATOM     15  C   UNL     1       0.034  -1.197   1.974  0.00  0.00    -0.043 C 
BRANCH  15  21
ATOM     16  C   UNL     1       0.611   3.424   0.141  0.00  0.00    +0.044 C 
ATOM     17  C   UNL     1       0.553   1.933  -0.072  0.00  0.00    -0.050 A 
ATOM     18  C   UNL     1       0.724   1.409  -1.340  0.00  0.00    +0.003 A 
ATOM     19  C   UNL     1       0.670   0.042  -1.535  0.00  0.00    +0.000 A 
ATOM     20  C   UNL     1       0.447  -0.802  -0.463  0.00  0.00    +0.002 A 
ATOM     21  C   UNL     1       0.278  -0.278   0.805  0.00  0.00    -0.064 A 
ATOM     22  C   UNL     1       0.335   1.090   1.001  0.00  0.00    +0.005 A 
ENDBRANCH  15  21
ENDBRANCH   1  15
BRANCH   3  23
ATOM     23  C   UNL     1       2.047  -2.466   6.050  0.00  0.00    +0.110 C 
BRANCH  23  24
ATOM     24  N   UNL     1       1.569  -3.814   6.369  0.00  0.00    -0.297 N 
ATOM     25  C   UNL     1       0.255  -4.101   6.283  0.00  0.00    +0.247 C 
ATOM     26  O   UNL     1      -0.543  -3.222   6.021  0.00  0.00    -0.270 OA
BRANCH  25  27
ATOM     27  C   UNL     1      -0.216  -5.484   6.508  0.00  0.00    +0.037 A 
ATOM     28  C   UNL     1       0.274  -6.226   7.583  0.00  0.00    +0.013 A 
ATOM     29  C   UNL     1      -0.170  -7.516   7.787  0.00  0.00    +0.001 A 
ATOM     30  C   UNL     1      -1.098  -8.075   6.928  0.00  0.00    +0.000 A 
ATOM     31  C   UNL     1      -1.588  -7.346   5.859  0.00  0.00    +0.001 A 
ATOM     32  C   UNL     1      -1.157  -6.053   5.647  0.00  0.00    +0.013 A 
ENDBRANCH  25  27
BRANCH  24  33
ATOM     33  C   UNL     1       2.519  -4.850   6.781  0.00  0.00    +0.111 C 
BRANCH  33  34
ATOM     34  C   UNL     1       2.835  -4.689   8.270  0.00  0.00    +0.000 C 
ATOM     35  C   UNL     1       3.685  -5.871   8.741  0.00  0.00    +0.009 C 
ATOM     36  C   UNL     1       3.607  -3.386   8.489  0.00  0.00    +0.009 C 
ENDBRANCH  33  34
ENDBRANCH  24  33
ENDBRANCH  23  24
ENDBRANCH   3  23
TORSDOF 9
