REMARK  Name = ZINC34747070
REMARK  9 active torsions:
REMARK  status: ('A' for Active; 'I' for Inactive)
REMARK    1  A    between atoms: C_1  and  C_2
REMARK    2  A    between atoms: C_2  and  C_3
REMARK    3  A    between atoms: C_2  and  C_4
REMARK    4  A    between atoms: C_4  and  N_5
REMARK    5  A    between atoms: N_18  and  C_21
REMARK    6  A    between atoms: C_21  and  C_22
REMARK    7  A    between atoms: N_24  and  C_25
REMARK    8  A    between atoms: C_33  and  C_35
REMARK    9  A    between atoms: C_33  and  C_36
REMARK                            x       y       z     vdW  Elec       q    Type
REMARK                         _______ _______ _______ _____ _____    ______ ____
ROOT
ATOM      1  N   UNL     1      -1.609   0.122   2.524  0.00  0.00    -0.280 N 
ATOM      2  C   UNL     1      -1.340   1.326   3.062  0.00  0.00    +0.264 A 
ATOM      3  O   UNL     1      -1.874   2.331   2.625  0.00  0.00    -0.267 OA
ATOM      4  C   UNL     1      -0.418   1.411   4.153  0.00  0.00    +0.076 A 
ATOM      5  C   UNL     1       0.020   2.599   4.883  0.00  0.00    -0.018 A 
ATOM      6  C   UNL     1       0.907   2.413   5.885  0.00  0.00    +0.021 A 
ATOM      7  S   UNL     1       1.207   0.668   5.915  0.00  0.00    -0.071 S 
ATOM      8  C   UNL     1       0.139   0.192   4.579  0.00  0.00    +0.118 A 
ATOM      9  N   UNL     1      -0.170  -0.964   4.003  0.00  0.00    -0.208 NA
ATOM     10  C   UNL     1      -1.026  -1.013   3.003  0.00  0.00    +0.202 A 
ATOM     11  N   UNL     1      -1.331  -2.224   2.432  0.00  0.00    -0.304 N 
ATOM     12  C   UNL     1      -0.522  -2.764   1.328  0.00  0.00    +0.089 C 
ATOM     13  C   UNL     1      -0.135  -4.207   1.670  0.00  0.00    -0.059 C 
ATOM     14  N   UNL     1      -1.347  -4.980   1.969  0.00  0.00    +0.387 N 
ATOM     15  C   UNL     1      -1.995  -4.448   3.174  0.00  0.00    -0.059 C 
ATOM     16  C   UNL     1      -2.471  -3.020   2.911  0.00  0.00    +0.089 C 
ATOM     17  C   UNL     1       1.492   3.478   6.760  0.00  0.00    +0.203 C 
ATOM     18  O   UNL     1       1.204   4.750   6.159  0.00  0.00    -0.368 OA
ATOM     19  C   UNL     1      -0.165   4.901   5.772  0.00  0.00    +0.068 C 
ATOM     20  C   UNL     1      -0.474   4.008   4.567  0.00  0.00    +0.071 C 
ATOM     21  C   UNL     1      -1.069   4.506   6.942  0.00  0.00    +0.041 C 
ATOM     22  C   UNL     1      -0.429   6.362   5.402  0.00  0.00    +0.041 C 
ATOM     23  H   UNL     1      -1.985  -4.917   1.190  0.00  0.00    -0.081 HD
ENDROOT
BRANCH   1  24
ATOM     24  C   UNL     1      -2.551   0.029   1.406  0.00  0.00    +0.131 C 
BRANCH  24  26
ATOM     25  C   UNL     1      -4.417   0.993   2.761  0.00  0.00    +0.009 C 
ATOM     26  C   UNL     1      -3.961  -0.220   1.947  0.00  0.00    +0.003 C 
ATOM     27  C   UNL     1      -4.923  -0.441   0.779  0.00  0.00    +0.009 C 
ENDBRANCH  24  26
ENDBRANCH   1  24
BRANCH  14  28
ATOM     28  C   UNL     1      -0.986  -6.387   2.189  0.00  0.00    +0.019 C 
BRANCH  28  29
ATOM     29  C   UNL     1      -2.239  -7.204   2.374  0.00  0.00    +0.197 C 
ATOM     30  O   UNL     1      -3.325  -6.667   2.327  0.00  0.00    -0.278 OA
ATOM     31  N   UNL     1      -2.152  -8.531   2.591  0.00  0.00    -0.314 N 
ATOM     32  H   UNL     1      -1.283  -8.960   2.629  0.00  0.00    +0.149 HD
BRANCH  31  33
ATOM     33  C   UNL     1      -3.370  -9.325   2.772  0.00  0.00    +0.073 C 
ATOM     34  C   UNL     1      -3.808  -9.262   4.236  0.00  0.00    +0.022 C 
ATOM     35  C   UNL     1      -5.080 -10.091   4.424  0.00  0.00    +0.002 C 
ATOM     36  C   UNL     1      -4.802 -11.546   4.037  0.00  0.00    +0.000 C 
ATOM     37  C   UNL     1      -4.364 -11.608   2.572  0.00  0.00    +0.002 C 
ATOM     38  C   UNL     1      -3.092 -10.779   2.384  0.00  0.00    +0.022 C 
ENDBRANCH  31  33
ENDBRANCH  28  29
ENDBRANCH  14  28
TORSDOF 5
