REMARK  Name = ZINC16572958
REMARK  16 active torsions:
REMARK  status: ('A' for Active; 'I' for Inactive)
REMARK    1  A    between atoms: C_1  and  C_2
REMARK    2  A    between atoms: C_2  and  N_70
REMARK    3  A    between atoms: C_3  and  C_4
REMARK    4  A    between atoms: C_3  and  N_70
REMARK    5  A    between atoms: C_5  and  C_6
REMARK    6  A    between atoms: C_5  and  N_70
REMARK    7  A    between atoms: C_6  and  C_7
REMARK    8  A    between atoms: C_7  and  C_8
REMARK    9  A    between atoms: C_8  and  C_10
REMARK   10  A    between atoms: C_8  and  N_11
REMARK   11  A    between atoms: C_12  and  C_14
REMARK   12  A    between atoms: C_16  and  C_28
REMARK   13  A    between atoms: N_18  and  C_19
REMARK   14  A    between atoms: C_22  and  N_25
REMARK   15  A    between atoms: C_31  and  C_35
REMARK   16  A    between atoms: C_32  and  C_34
REMARK                            x       y       z     vdW  Elec       q    Type
REMARK                         _______ _______ _______ _____ _____    ______ ____
ROOT
ATOM      1  C   UNL     1       0.764  -0.842  -0.447  0.00  0.00    +0.130 A 
ATOM      2  C   UNL     1       1.580   0.188  -0.015  0.00  0.00    +0.063 A 
ATOM      3  C   UNL     1       0.739   1.312   0.083  0.00  0.00    +0.094 A 
ATOM      4  N   UNL     1      -0.472   0.936  -0.272  0.00  0.00    -0.166 NA
ATOM      5  N   UNL     1      -0.490  -0.309  -0.584  0.00  0.00    -0.227 N 
ENDROOT
BRANCH   3   6
ATOM      6  C   UNL     1       1.145   2.675   0.508  0.00  0.00    +0.002 A 
ATOM      7  C   UNL     1       2.486   2.959   0.756  0.00  0.00    +0.010 A 
ATOM      8  C   UNL     1       2.858   4.228   1.151  0.00  0.00    +0.004 A 
ATOM      9  C   UNL     1       1.902   5.217   1.301  0.00  0.00    -0.047 A 
ATOM     10  C   UNL     1       0.569   4.939   1.057  0.00  0.00    -0.047 A 
ATOM     11  C   UNL     1       0.187   3.675   0.655  0.00  0.00    +0.013 A 
ATOM     12  C   UNL     1      -0.467   6.021   1.223  0.00  0.00    +0.044 C 
ATOM     13  C   UNL     1       2.314   6.601   1.733  0.00  0.00    +0.044 C 
ENDBRANCH   3   6
BRANCH   5  14
ATOM     14  C   UNL     1      -1.623  -1.017  -1.004  0.00  0.00    +0.066 A 
ATOM     15  C   UNL     1      -2.424  -0.509  -2.020  0.00  0.00    +0.030 A 
ATOM     16  C   UNL     1      -3.537  -1.212  -2.435  0.00  0.00    +0.035 A 
ATOM     17  C   UNL     1      -3.862  -2.415  -1.834  0.00  0.00    +0.126 A 
ATOM     18  C   UNL     1      -3.070  -2.920  -0.819  0.00  0.00    +0.035 A 
ATOM     19  C   UNL     1      -1.952  -2.225  -0.403  0.00  0.00    +0.030 A 
BRANCH  17  20
ATOM     20  N   UNL     1      -5.060  -3.163  -2.278  0.00  0.00    +0.056 N 
ATOM     21  O   UNL     1      -5.347  -4.221  -1.749  0.00  0.00    -0.126 OA
ATOM     22  O   UNL     1      -5.758  -2.719  -3.172  0.00  0.00    -0.126 OA
ENDBRANCH  17  20
ENDBRANCH   5  14
BRANCH   1  24
ATOM     23  N   UNL     1       0.277  -3.102  -1.231  0.00  0.00    -0.308 N 
ATOM     24  C   UNL     1       1.163  -2.233  -0.706  0.00  0.00    +0.263 C 
ATOM     25  O   UNL     1       2.294  -2.600  -0.446  0.00  0.00    -0.269 OA
ATOM     26  H   UNL     1      -0.605  -2.796  -1.493  0.00  0.00    +0.149 HD
BRANCH  23  27
ATOM     27  C   UNL     1       0.646  -4.509  -1.405  0.00  0.00    +0.070 C 
ATOM     28  C   UNL     1       1.023  -4.760  -2.866  0.00  0.00    +0.028 C 
BRANCH  27  29
ATOM     29  C   UNL     1      -0.540  -5.399  -1.025  0.00  0.00    +0.020 C 
BRANCH  29  30
ATOM     30  C   UNL     1      -0.824  -5.256   0.472  0.00  0.00    -0.017 C 
BRANCH  30  31
ATOM     31  C   UNL     1      -1.935  -6.228   0.875  0.00  0.00    -0.079 C 
BRANCH  31  32
ATOM     32  N   UNL     1      -2.189  -6.083   2.323  0.00  0.00    +0.379 N 
ATOM     33  H   UNL     1      -1.290  -6.012   2.814  0.00  0.00    -0.082 HD
BRANCH  32  35
ATOM     34  C   UNL     1      -3.031  -4.613   4.088  0.00  0.00    -0.017 C 
ATOM     35  C   UNL     1      -2.974  -4.857   2.579  0.00  0.00    -0.082 C 
ENDBRANCH  32  35
BRANCH  32  36
ATOM     36  C   UNL     1      -2.920  -7.265   2.829  0.00  0.00    -0.082 C 
ATOM     37  C   UNL     1      -1.932  -8.424   2.980  0.00  0.00    -0.017 C 
ENDBRANCH  32  36
ENDBRANCH  31  32
ENDBRANCH  30  31
ENDBRANCH  29  30
ENDBRANCH  27  29
ENDBRANCH  23  27
ENDBRANCH   1  24
TORSDOF 11
