REMARK  Name = ZINC06198117
REMARK  7 active torsions:
REMARK  status: ('A' for Active; 'I' for Inactive)
REMARK    1  A    between atoms: C_1  and  C_2
REMARK    2  A    between atoms: C_2  and  C_3
REMARK    3  A    between atoms: C_10  and  C_15
REMARK    4  A    between atoms: C_15  and  C_17
REMARK    5  A    between atoms: C_15  and  N_64
REMARK    6  A    between atoms: N_21  and  C_22
REMARK    7  A    between atoms: C_22  and  C_23
REMARK                            x       y       z     vdW  Elec       q    Type
REMARK                         _______ _______ _______ _____ _____    ______ ____
ROOT
ATOM      1  C   UNL     1       1.654   6.576  -1.453  0.00  0.00    +0.039 C 
ENDROOT
BRANCH   1   9
ATOM      2  C   UNL     1      -4.459   5.651  -1.187  0.00  0.00    -0.047 A 
ATOM      3  C   UNL     1      -4.712   5.899  -2.530  0.00  0.00    +0.005 A 
ATOM      4  C   UNL     1      -3.687   6.226  -3.390  0.00  0.00    +0.026 A 
ATOM      5  C   UNL     1      -2.383   6.309  -2.911  0.00  0.00    +0.049 A 
ATOM      6  C   UNL     1      -2.131   6.058  -1.550  0.00  0.00    -0.001 A 
ATOM      7  C   UNL     1      -3.187   5.728  -0.694  0.00  0.00    +0.013 A 
ATOM      8  C   UNL     1      -0.756   6.149  -1.054  0.00  0.00    +0.017 A 
ATOM      9  C   UNL     1       0.228   6.474  -1.930  0.00  0.00    +0.011 A 
ATOM     10  C   UNL     1      -0.080   6.722  -3.284  0.00  0.00    +0.251 A 
ATOM     11  O   UNL     1       0.818   7.017  -4.053  0.00  0.00    -0.268 OA
ATOM     12  N   UNL     1      -1.339   6.636  -3.749  0.00  0.00    -0.322 N 
ATOM     13  H   UNL     1      -1.520   6.810  -4.717  0.00  0.00    +0.169 HD
BRANCH   2  15
ATOM     14  C   UNL     1      -6.180   6.572   0.341  0.00  0.00    +0.009 C 
ATOM     15  C   UNL     1      -5.597   5.295  -0.266  0.00  0.00    +0.032 C 
ENDBRANCH   2  15
ENDBRANCH   1   9
BRANCH   1  25
ATOM     16  C   UNL     1       3.556   8.067  -1.279  0.00  0.00    -0.072 C 
ATOM     17  C   UNL     1       4.214   9.250  -1.990  0.00  0.00    +0.017 C 
ATOM     18  C   UNL     1       3.290  10.441  -1.972  0.00  0.00    -0.048 A 
ATOM     19  C   UNL     1       3.820  11.693  -2.242  0.00  0.00    +0.004 A 
ATOM     20  C   UNL     1       3.007  12.809  -2.241  0.00  0.00    +0.000 A 
ATOM     21  C   UNL     1       1.659  12.678  -1.967  0.00  0.00    +0.000 A 
ATOM     22  C   UNL     1       1.131  11.432  -1.696  0.00  0.00    +0.002 A 
ATOM     23  C   UNL     1       1.946  10.309  -1.696  0.00  0.00    -0.061 A 
ATOM     24  C   UNL     1       1.325   8.972  -1.390  0.00  0.00    -0.041 C 
ATOM     25  N   UNL     1       2.208   7.889  -1.855  0.00  0.00    +0.392 N 
ATOM     26  H   UNL     1       2.273   7.925  -2.879  0.00  0.00    -0.080 HD
ENDBRANCH   1  25
BRANCH   1  27
ATOM     27  C   UNL     1       2.475   5.483  -2.087  0.00  0.00    +0.143 A 
ATOM     28  N   UNL     1       2.974   5.482  -3.299  0.00  0.00    -0.115 NA
ATOM     29  N   UNL     1       3.610   4.375  -3.467  0.00  0.00    -0.023 NA
ATOM     30  N   UNL     1       3.534   3.671  -2.391  0.00  0.00    -0.044 NA
ATOM     31  N   UNL     1       2.838   4.318  -1.519  0.00  0.00    -0.226 N 
BRANCH  31  32
ATOM     32  C   UNL     1       2.508   3.871  -0.164  0.00  0.00    +0.182 C 
BRANCH  32  33
ATOM     33  C   UNL     1       3.643   4.213   0.768  0.00  0.00    -0.026 A 
ATOM     34  C   UNL     1       3.649   5.423   1.434  0.00  0.00    +0.005 A 
ATOM     35  C   UNL     1       4.690   5.737   2.288  0.00  0.00    +0.000 A 
ATOM     36  C   UNL     1       5.727   4.842   2.472  0.00  0.00    +0.000 A 
ATOM     37  C   UNL     1       5.718   3.629   1.809  0.00  0.00    +0.000 A 
ATOM     38  C   UNL     1       4.678   3.315   0.955  0.00  0.00    +0.005 A 
ENDBRANCH  32  33
ENDBRANCH  31  32
ENDBRANCH   1  27
TORSDOF 6
