REMARK  Name = ZINC08955678
REMARK  6 active torsions:
REMARK  status: ('A' for Active; 'I' for Inactive)
REMARK    1  A    between atoms: C_1  and  N_2
REMARK    2  A    between atoms: C_3  and  S_16
REMARK    3  A    between atoms: N_4  and  C_5
REMARK    4  A    between atoms: C_9  and  C_11
REMARK    5  A    between atoms: S_16  and  C_17
REMARK    6  A    between atoms: N_22  and  C_25
REMARK                            x       y       z     vdW  Elec       q    Type
REMARK                         _______ _______ _______ _____ _____    ______ ____
ROOT
ATOM      1  C   UNL     1      -0.689  -2.216  -2.484  0.00  0.00    +0.127 C 
ATOM      2  N   UNL     1      -0.053  -1.977  -1.186  0.00  0.00    -0.327 N 
ATOM      3  C   UNL     1       0.328  -0.706  -0.831  0.00  0.00    +0.155 C 
ATOM      4  N   UNL     1       1.008  -0.509   0.276  0.00  0.00    -0.226 NA
ATOM      5  H   UNL     1       0.099  -2.717  -0.577  0.00  0.00    +0.148 HD
ENDROOT
BRANCH   4   6
ATOM      6  C   UNL     1       1.543   0.724   0.541  0.00  0.00    +0.067 A 
ATOM      7  C   UNL     1       2.617   1.200  -0.214  0.00  0.00    +0.029 A 
ATOM      8  C   UNL     1       3.151   2.442   0.058  0.00  0.00    +0.022 A 
ATOM      9  C   UNL     1       2.623   3.217   1.077  0.00  0.00    +0.053 A 
ATOM     10  C   UNL     1       1.559   2.751   1.830  0.00  0.00    +0.075 A 
ATOM     11  C   UNL     1       1.012   1.513   1.563  0.00  0.00    +0.041 A 
ATOM     12 CL   UNL     1       3.301   4.780   1.414  0.00  0.00    -0.083 Cl
BRANCH  10  13
ATOM     13  C   UNL     1       0.992   3.601   2.938  0.00  0.00    +0.419 C 
ATOM     14  F   UNL     1      -0.068   2.923   3.549  0.00  0.00    -0.166 F 
ATOM     15  F   UNL     1       1.989   3.858   3.885  0.00  0.00    -0.166 F 
ATOM     16  F   UNL     1       0.529   4.810   2.408  0.00  0.00    -0.166 F 
ENDBRANCH  10  13
ENDBRANCH   4   6
BRANCH   3  17
ATOM     17  S   UNL     1      -0.095   0.660  -1.860  0.00  0.00    -0.077 S 
BRANCH  17  18
ATOM     18  C   UNL     1      -0.013  -0.015  -3.542  0.00  0.00    +0.149 C 
ATOM     19  C   UNL     1      -0.111   1.116  -4.586  0.00  0.00    +0.120 C 
ATOM     20  C   UNL     1       1.204   1.027  -5.330  0.00  0.00    +0.228 C 
ATOM     21  O   UNL     1       1.543   1.745  -6.246  0.00  0.00    -0.275 OA
ATOM     22  N   UNL     1       1.934   0.030  -4.815  0.00  0.00    -0.209 N 
ATOM     23  C   UNL     1       1.346  -0.627  -3.804  0.00  0.00    +0.240 C 
ATOM     24  O   UNL     1       1.825  -1.561  -3.196  0.00  0.00    -0.274 OA
BRANCH  22  25
ATOM     25  C   UNL     1       3.209  -0.303  -5.295  0.00  0.00    +0.045 A 
ATOM     26  C   UNL     1       3.375  -0.690  -6.619  0.00  0.00    +0.025 A 
ATOM     27  C   UNL     1       4.631  -1.016  -7.090  0.00  0.00    +0.023 A 
ATOM     28  C   UNL     1       5.725  -0.959  -6.245  0.00  0.00    +0.059 A 
ATOM     29  C   UNL     1       5.563  -0.574  -4.925  0.00  0.00    +0.061 A 
ATOM     30  C   UNL     1       4.308  -0.240  -4.450  0.00  0.00    +0.045 A 
ATOM     31 CL   UNL     1       6.938  -0.502  -3.866  0.00  0.00    -0.082 Cl
ATOM     32 CL   UNL     1       7.303  -1.371  -6.840  0.00  0.00    -0.082 Cl
ENDBRANCH  22  25
ENDBRANCH  17  18
ENDBRANCH   3  17
TORSDOF 5
