REMARK  Name = ZINC35424859
REMARK  9 active torsions:
REMARK  status: ('A' for Active; 'I' for Inactive)
REMARK    1  A    between atoms: C_1  and  C_2
REMARK    2  A    between atoms: C_5  and  O_8
REMARK    3  A    between atoms: O_8  and  C_9
REMARK    4  A    between atoms: N_12  and  C_23
REMARK    5  A    between atoms: C_23  and  C_24
REMARK    6  A    between atoms: N_26  and  C_27
REMARK    7  A    between atoms: C_31  and  C_32
REMARK    8  A    between atoms: C_32  and  O_34
REMARK    9  A    between atoms: O_34  and  C_35
REMARK                            x       y       z     vdW  Elec       q    Type
REMARK                         _______ _______ _______ _____ _____    ______ ____
ROOT
ATOM      1  C   UNL     1       0.190  -4.713   0.923  0.00  0.00    +0.267 A 
ATOM      2  C   UNL     1       0.326  -6.173   1.012  0.00  0.00    +0.225 A 
ATOM      3  N   UNL     1       0.370  -7.117   0.110  0.00  0.00    -0.143 NA
ATOM      4  N   UNL     1       0.512  -8.344   0.773  0.00  0.00    -0.203 N 
ATOM      5  C   UNL     1       0.550  -8.090   2.098  0.00  0.00    +0.352 A 
ATOM      6  O   UNL     1       0.667  -8.917   2.985  0.00  0.00    -0.244 OA
ATOM      7  N   UNL     1       0.437  -6.760   2.264  0.00  0.00    -0.238 N 
ATOM      8  C   UNL     1       0.415  -5.942   3.392  0.00  0.00    +0.079 A 
ATOM      9  C   UNL     1       0.525  -6.497   4.659  0.00  0.00    +0.028 A 
ATOM     10  C   UNL     1       0.503  -5.683   5.774  0.00  0.00    +0.002 A 
ATOM     11  C   UNL     1       0.372  -4.310   5.636  0.00  0.00    +0.002 A 
ATOM     12  C   UNL     1       0.262  -3.742   4.386  0.00  0.00    +0.030 A 
ATOM     13  C   UNL     1       0.282  -4.554   3.246  0.00  0.00    +0.092 A 
ATOM     14  N   UNL     1       0.180  -3.988   2.013  0.00  0.00    -0.208 NA
ENDROOT
BRANCH   1  15
ATOM     15  O   UNL     1       0.080  -4.117  -0.288  0.00  0.00    -0.435 OA
BRANCH  15  20
ATOM     16  C   UNL     1       0.043   1.513  -0.469  0.00  0.00    +0.044 C 
ATOM     17  C   UNL     1       0.053   0.006  -0.421  0.00  0.00    -0.050 A 
ATOM     18  C   UNL     1       1.194  -0.664  -0.021  0.00  0.00    +0.007 A 
ATOM     19  C   UNL     1       1.206  -2.045   0.025  0.00  0.00    +0.046 A 
ATOM     20  C   UNL     1       0.071  -2.759  -0.331  0.00  0.00    +0.131 A 
ATOM     21  C   UNL     1      -1.073  -2.084  -0.733  0.00  0.00    +0.046 A 
ATOM     22  C   UNL     1      -1.081  -0.703  -0.771  0.00  0.00    +0.007 A 
ENDBRANCH  15  20
ENDBRANCH   1  15
BRANCH   4  23
ATOM     23  C   UNL     1       0.602  -9.663   0.142  0.00  0.00    +0.244 C 
BRANCH  23  24
ATOM     24  C   UNL     1      -0.780 -10.244  -0.009  0.00  0.00    +0.239 C 
ATOM     25  O   UNL     1      -1.746  -9.617   0.373  0.00  0.00    -0.273 OA
ATOM     26  N   UNL     1      -0.943 -11.459  -0.568  0.00  0.00    -0.283 N 
ATOM     27  H   UNL     1      -0.168 -11.994  -0.800  0.00  0.00    +0.155 HD
BRANCH  26  28
ATOM     28  C   UNL     1      -2.227 -11.947  -0.815  0.00  0.00    +0.055 A 
ATOM     29  C   UNL     1      -3.361 -11.296  -0.371  0.00  0.00    +0.032 A 
ATOM     30  C   UNL     1      -4.575 -11.828  -0.647  0.00  0.00    +0.048 A 
ATOM     31  S   UNL     1      -4.232 -13.225  -1.514  0.00  0.00    -0.088 S 
ATOM     32  C   UNL     1      -2.453 -13.123  -1.530  0.00  0.00    +0.117 A 
BRANCH  32  33
ATOM     33  C   UNL     1      -1.514 -14.005  -2.115  0.00  0.00    +0.347 C 
ATOM     34  O   UNL     1      -0.323 -13.774  -2.023  0.00  0.00    -0.244 OA
BRANCH  33  35
ATOM     35  O   UNL     1      -1.940 -15.104  -2.774  0.00  0.00    -0.464 OA
ATOM     36  C   UNL     1      -0.937 -15.950  -3.339  0.00  0.00    +0.280 C 
ENDBRANCH  33  35
ENDBRANCH  32  33
ENDBRANCH  26  28
ENDBRANCH  23  24
ENDBRANCH   4  23
TORSDOF 7
