REMARK  Name = ZINC43721100
REMARK  6 active torsions:
REMARK  status: ('A' for Active; 'I' for Inactive)
REMARK    1  A    between atoms: C_8  and  N_9
REMARK    2  A    between atoms: C_11  and  C_13
REMARK    3  A    between atoms: C_15  and  O_25
REMARK    4  A    between atoms: C_17  and  O_24
REMARK    5  A    between atoms: C_19  and  C_22
REMARK    6  A    between atoms: C_22  and  O_23
REMARK                            x       y       z     vdW  Elec       q    Type
REMARK                         _______ _______ _______ _____ _____    ______ ____
ROOT
ATOM      1  C   UNL     1      -0.018   1.512   0.010  0.00  0.00    +0.096 C 
ATOM      2  N   UNL     1       1.202   1.918   0.001  0.00  0.00    -0.254 NA
ATOM      3  C   UNL     1       2.120   0.911  -0.013  0.00  0.00    +0.125 A 
ATOM      4  C   UNL     1       1.477  -0.328  -0.014  0.00  0.00    +0.084 A 
ATOM      5  N   UNL     1       2.180  -1.438  -0.027  0.00  0.00    -0.217 NA
ATOM      6  C   UNL     1       3.508  -1.399  -0.040  0.00  0.00    +0.215 A 
ATOM      7  N   UNL     1       4.170  -0.252  -0.040  0.00  0.00    -0.198 NA
ATOM      8  C   UNL     1       3.530   0.912  -0.027  0.00  0.00    +0.147 A 
ATOM      9  N   UNL     1       4.217  -2.587  -0.053  0.00  0.00    -0.327 N 
ATOM     10  C   UNL     1       0.002  -0.004   0.002  0.00  0.00    +0.112 C 
ATOM     11  H   UNL     1       3.745  -3.434  -0.052  0.00  0.00    +0.145 HD
ATOM     12  H   UNL     1       5.187  -2.572  -0.062  0.00  0.00    +0.145 HD
ENDROOT
BRANCH  10  13
ATOM     13  C   UNL     1      -0.684  -0.547  -1.253  0.00  0.00    +0.164 C 
ATOM     14  C   UNL     1      -2.184  -0.157  -1.268  0.00  0.00    +0.175 C 
ATOM     15  C   UNL     1      -2.796  -1.257  -2.168  0.00  0.00    +0.176 C 
ATOM     16  C   UNL     1      -1.766  -2.402  -2.120  0.00  0.00    +0.175 C 
ATOM     17  O   UNL     1      -0.708  -1.990  -1.236  0.00  0.00    -0.365 OA
BRANCH  15  18
ATOM     18  O   UNL     1      -2.954  -0.779  -3.505  0.00  0.00    -0.386 OA
ATOM     19  H   UNL     1      -3.334  -1.428  -4.113  0.00  0.00    +0.210 HD
ENDBRANCH  15  18
BRANCH  14  20
ATOM     20  O   UNL     1      -2.737  -0.208   0.049  0.00  0.00    -0.387 OA
ATOM     21  H   UNL     1      -3.673   0.028   0.092  0.00  0.00    +0.210 HD
ENDBRANCH  14  20
BRANCH  16  22
ATOM     22  C   UNL     1      -2.427  -3.675  -1.589  0.00  0.00    +0.190 C 
BRANCH  22  23
ATOM     23  O   UNL     1      -1.498  -4.759  -1.657  0.00  0.00    -0.392 OA
ATOM     24  H   UNL     1      -1.850  -5.600  -1.337  0.00  0.00    +0.210 HD
ENDBRANCH  22  23
ENDBRANCH  16  22
ENDBRANCH  10  13
BRANCH   8  25
ATOM     25  N   UNL     1       4.234   2.103  -0.027  0.00  0.00    -0.341 N 
ATOM     26  H   UNL     1       3.758   2.947  -0.018  0.00  0.00    +0.144 HD
ATOM     27  H   UNL     1       5.204   2.093  -0.037  0.00  0.00    +0.144 HD
ENDBRANCH   8  25
TORSDOF 6
