REMARK  Name = ZINC40914215
REMARK  10 active torsions:
REMARK  status: ('A' for Active; 'I' for Inactive)
REMARK    1  A    between atoms: C_1  and  C_2
REMARK    2  A    between atoms: C_2  and  O_3
REMARK    3  A    between atoms: O_3  and  C_4
REMARK    4  A    between atoms: C_6  and  C_20
REMARK    5  A    between atoms: C_9  and  O_10
REMARK    6  A    between atoms: O_10  and  C_11
REMARK    7  A    between atoms: C_11  and  C_12
REMARK    8  A    between atoms: C_16  and  C_18
REMARK    9  A    between atoms: C_22  and  C_31
REMARK   10  A    between atoms: C_23  and  C_30
REMARK                            x       y       z     vdW  Elec       q    Type
REMARK                         _______ _______ _______ _____ _____    ______ ____
ROOT
ATOM      1  C   UNL     1       0.752  -1.729  -1.085  0.00  0.00    +0.163 A 
ATOM      2  C   UNL     1       0.136  -2.640  -0.242  0.00  0.00    +0.055 A 
ATOM      3  C   UNL     1       0.334  -3.996  -0.427  0.00  0.00    -0.014 A 
ATOM      4  C   UNL     1       1.147  -4.446  -1.450  0.00  0.00    +0.025 A 
ATOM      5  C   UNL     1       1.765  -3.542  -2.295  0.00  0.00    +0.063 A 
ATOM      6  C   UNL     1       1.565  -2.181  -2.119  0.00  0.00    +0.176 A 
ATOM      7 BR   UNL     1       2.878  -4.161  -3.693  0.00  0.00    -0.046 Br
ENDROOT
BRANCH   3   8
ATOM      8  C   UNL     1      -0.337  -4.986   0.490  0.00  0.00    +0.177 C 
ATOM      9  C   UNL     1       0.710  -5.811   1.191  0.00  0.00    +0.060 C 
ATOM     10  C   UNL     1       0.941  -7.099   0.902  0.00  0.00    +0.018 C 
ATOM     11  N   UNL     1       0.226  -7.774  -0.057  0.00  0.00    -0.287 N 
ATOM     12  C   UNL     1      -0.924  -7.166  -0.542  0.00  0.00    +0.218 A 
ATOM     13  N   UNL     1      -1.205  -5.863  -0.291  0.00  0.00    -0.221 N 
ATOM     14  N   UNL     1      -2.422  -5.592  -0.913  0.00  0.00    -0.156 NA
ATOM     15  C   UNL     1      -2.804  -6.702  -1.495  0.00  0.00    +0.247 A 
ATOM     16  N   UNL     1      -1.892  -7.653  -1.268  0.00  0.00    -0.201 NA
ATOM     17  C   UNL     1       2.022  -7.832   1.654  0.00  0.00    +0.061 C 
ATOM     18  H   UNL     1       0.513  -8.642  -0.382  0.00  0.00    +0.155 HD
BRANCH   9  19
ATOM     19  C   UNL     1       1.487  -5.196   2.202  0.00  0.00    +0.241 C 
ATOM     20  O   UNL     1       1.037  -5.077   3.327  0.00  0.00    -0.271 OA
ATOM     21  N   UNL     1       2.724  -4.744   1.919  0.00  0.00    -0.325 N 
ATOM     22  H   UNL     1       3.083  -4.840   1.023  0.00  0.00    +0.145 HD
ATOM     23  H   UNL     1       3.257  -4.323   2.612  0.00  0.00    +0.145 HD
ENDBRANCH   9  19
ENDBRANCH   3   8
BRANCH   1  24
ATOM     24  O   UNL     1       0.558  -0.395  -0.904  0.00  0.00    -0.489 OA
BRANCH  24  26
ATOM     25  C   UNL     1      -0.387   1.523   0.223  0.00  0.00    +0.048 C 
ATOM     26  C   UNL     1      -0.290  -0.003   0.178  0.00  0.00    +0.226 C 
ENDBRANCH  24  26
ENDBRANCH   1  24
BRANCH   6  27
ATOM     27  O   UNL     1       2.168  -1.290  -2.951  0.00  0.00    -0.483 OA
BRANCH  27  28
ATOM     28  C   UNL     1       3.465  -0.823  -2.573  0.00  0.00    +0.264 C 
BRANCH  28  29
ATOM     29  C   UNL     1       3.970   0.149  -3.608  0.00  0.00    -0.010 A 
ATOM     30  C   UNL     1       4.699  -0.310  -4.689  0.00  0.00    +0.007 A 
ATOM     31  C   UNL     1       5.162   0.582  -5.638  0.00  0.00    +0.001 A 
ATOM     32  C   UNL     1       4.897   1.932  -5.506  0.00  0.00    +0.003 A 
ATOM     33  C   UNL     1       4.168   2.390  -4.425  0.00  0.00    -0.050 A 
ATOM     34  C   UNL     1       3.700   1.498  -3.478  0.00  0.00    +0.010 A 
ATOM     35  C   UNL     1       3.879   3.862  -4.281  0.00  0.00    +0.044 C 
ENDBRANCH  28  29
ENDBRANCH  27  28
ENDBRANCH   6  27
TORSDOF 7
