REMARK  Name = ZINC12428885
REMARK  5 active torsions:
REMARK  status: ('A' for Active; 'I' for Inactive)
REMARK    1  A    between atoms: C_3  and  C_10
REMARK    2  A    between atoms: C_5  and  N_7
REMARK    3  A    between atoms: N_19  and  C_31
REMARK    4  A    between atoms: C_20  and  N_30
REMARK    5  A    between atoms: C_21  and  C_22
REMARK                            x       y       z     vdW  Elec       q    Type
REMARK                         _______ _______ _______ _____ _____    ______ ____
ROOT
ATOM      1  C   UNL     1       0.225   1.099  -0.091  0.00  0.00    +0.092 C 
ATOM      2  C   UNL     1       1.633   1.545   0.209  0.00  0.00    +0.025 C 
ATOM      3  C   UNL     1       1.870   2.579   1.044  0.00  0.00    +0.024 C 
ATOM      4  C   UNL     1       3.279   3.026   1.348  0.00  0.00    +0.052 C 
ATOM      5  C   UNL     1       4.178   2.752   0.140  0.00  0.00    +0.014 C 
ATOM      6  C   UNL     1       4.124   1.253  -0.174  0.00  0.00    +0.080 C 
ATOM      7  C   UNL     1       2.692   0.854  -0.406  0.00  0.00    +0.162 C 
ATOM      8  O   UNL     1       2.446  -0.084  -1.139  0.00  0.00    -0.292 OA
ATOM      9  N   UNL     1       0.833   3.248   1.639  0.00  0.00    -0.261 N 
ATOM     10  C   UNL     1      -0.408   2.664   1.741  0.00  0.00    +0.101 C 
ATOM     11  C   UNL     1      -0.740   1.624   0.930  0.00  0.00    +0.062 C 
ENDROOT
BRANCH  11  12
ATOM     12  C   UNL     1      -2.008   1.032   1.051  0.00  0.00    +0.250 C 
ATOM     13  O   UNL     1      -2.834   1.510   1.808  0.00  0.00    -0.270 OA
ATOM     14  N   UNL     1      -2.310  -0.066   0.330  0.00  0.00    -0.261 N 
ATOM     15  C   UNL     1      -3.564  -0.652   0.450  0.00  0.00    +0.165 A 
ATOM     16  N   UNL     1      -4.579  -0.290   1.210  0.00  0.00    -0.233 NA
ATOM     17  C   UNL     1      -5.713  -0.962   1.201  0.00  0.00    +0.120 A 
ATOM     18  C   UNL     1      -5.814  -2.047   0.396  0.00  0.00    +0.068 A 
ATOM     19  S   UNL     1      -4.195  -2.054  -0.358  0.00  0.00    -0.061 S 
ATOM     20  H   UNL     1      -1.652  -0.447  -0.272  0.00  0.00    +0.157 HD
ENDBRANCH  11  12
BRANCH   9  21
ATOM     21  C   UNL     1       1.038   4.537   2.148  0.00  0.00    +0.040 A 
ATOM     22  C   UNL     1       1.277   5.596   1.283  0.00  0.00    +0.026 A 
ATOM     23  C   UNL     1       1.474   6.867   1.787  0.00  0.00    +0.040 A 
ATOM     24  C   UNL     1       1.444   7.083   3.154  0.00  0.00    +0.124 A 
ATOM     25  C   UNL     1       1.211   6.027   4.019  0.00  0.00    +0.040 A 
ATOM     26  C   UNL     1       1.008   4.756   3.519  0.00  0.00    +0.026 A 
ATOM     27  F   UNL     1       1.642   8.326   3.645  0.00  0.00    -0.205 F 
ENDBRANCH   9  21
BRANCH   1  30
ATOM     28  C   UNL     1      -0.571   3.432  -2.951  0.00  0.00    +0.003 A 
ATOM     29  C   UNL     1      -0.209   2.966  -1.700  0.00  0.00    +0.005 A 
ATOM     30  C   UNL     1      -0.174   1.607  -1.453  0.00  0.00    -0.033 A 
ATOM     31  C   UNL     1      -0.510   0.713  -2.453  0.00  0.00    +0.037 A 
ATOM     32  C   UNL     1      -0.876   1.179  -3.702  0.00  0.00    +0.126 A 
ATOM     33  C   UNL     1      -0.906   2.539  -3.951  0.00  0.00    +0.033 A 
BRANCH  32  34
ATOM     34  N   UNL     1      -1.235   0.223  -4.773  0.00  0.00    +0.056 N 
ATOM     35  O   UNL     1      -1.208  -0.975  -4.553  0.00  0.00    -0.126 OA
ATOM     36  O   UNL     1      -1.558   0.633  -5.873  0.00  0.00    -0.126 OA
ENDBRANCH  32  34
ENDBRANCH   1  30
BRANCH  10  37
ATOM     37  N   UNL     1      -1.311   3.131   2.662  0.00  0.00    -0.346 N 
ATOM     38  H   UNL     1      -1.339   4.076   2.878  0.00  0.00    +0.143 HD
ATOM     39  H   UNL     1      -1.922   2.516   3.096  0.00  0.00    +0.143 HD
ENDBRANCH  10  37
TORSDOF 5
