REMARK  Name = ZINC40129928
REMARK  11 active torsions:
REMARK  status: ('A' for Active; 'I' for Inactive)
REMARK    1  A    between atoms: C_1  and  C_2
REMARK    2  A    between atoms: C_2  and  O_3
REMARK    3  A    between atoms: O_3  and  C_4
REMARK    4  A    between atoms: C_6  and  C_13
REMARK    5  A    between atoms: C_9  and  O_10
REMARK    6  A    between atoms: O_10  and  C_11
REMARK    7  A    between atoms: C_14  and  C_15
REMARK    8  A    between atoms: N_17  and  S_18
REMARK    9  A    between atoms: S_18  and  C_21
REMARK   10  A    between atoms: C_21  and  C_22
REMARK   11  A    between atoms: C_22  and  N_23
REMARK                            x       y       z     vdW  Elec       q    Type
REMARK                         _______ _______ _______ _____ _____    ______ ____
ROOT
ATOM      1  C   UNL     1       1.625  -7.168  -0.034  0.00  0.00    +0.288 C 
ATOM      2  O   UNL     1       2.870  -6.638  -0.038  0.00  0.00    -0.265 OA
ATOM      3  N   UNL     1       1.466  -8.463  -0.039  0.00  0.00    -0.091 NA
ENDROOT
BRANCH   3   4
ATOM      4  S   UNL     1       2.789  -9.459  -0.051  0.00  0.00    +0.074 S 
ATOM      5  O   UNL     1       3.435  -9.190  -1.288  0.00  0.00    -0.151 OA
ATOM      6  O   UNL     1       3.448  -9.201   1.182  0.00  0.00    -0.151 OA
BRANCH   4   7
ATOM      7  C   UNL     1       2.107 -11.140  -0.055  0.00  0.00    +0.212 C 
BRANCH   7   8
ATOM      8  C   UNL     1       3.252 -12.155  -0.065  0.00  0.00    +0.142 C 
BRANCH   8   9
ATOM      9  N   UNL     1       2.702 -13.513  -0.069  0.00  0.00    -0.232 N 
ATOM     10  C   UNL     1       2.416 -14.221   1.039  0.00  0.00    +0.254 C 
ATOM     11  O   UNL     1       2.572 -13.842   2.182  0.00  0.00    -0.270 OA
ATOM     12  C   UNL     1       1.881 -15.537   0.631  0.00  0.00    +0.049 A 
ATOM     13  C   UNL     1       1.429 -16.652   1.318  0.00  0.00    +0.014 A 
ATOM     14  C   UNL     1       0.979 -17.758   0.613  0.00  0.00    +0.001 A 
ATOM     15  C   UNL     1       0.978 -17.754  -0.770  0.00  0.00    +0.001 A 
ATOM     16  C   UNL     1       1.427 -16.645  -1.470  0.00  0.00    +0.014 A 
ATOM     17  C   UNL     1       1.880 -15.533  -0.778  0.00  0.00    +0.049 A 
ATOM     18  C   UNL     1       2.410 -14.213  -1.179  0.00  0.00    +0.254 C 
ATOM     19  O   UNL     1       2.559 -13.826  -2.321  0.00  0.00    -0.270 OA
ENDBRANCH   8   9
ENDBRANCH   7   8
ENDBRANCH   4   7
ENDBRANCH   3   4
BRANCH   1  21
ATOM     20  C   UNL     1       0.617  -4.949  -0.018  0.00  0.00    +0.013 C 
ATOM     21  C   UNL     1       0.453  -6.286  -0.024  0.00  0.00    +0.074 C 
BRANCH  20  24
ATOM     22  C   UNL     1      -1.498  -1.849   0.006  0.00  0.00    +0.164 A 
ATOM     23  C   UNL     1      -0.391  -2.676  -0.003  0.00  0.00    +0.057 A 
ATOM     24  C   UNL     1      -0.559  -4.064  -0.008  0.00  0.00    -0.020 A 
ATOM     25  C   UNL     1      -1.847  -4.609  -0.004  0.00  0.00    +0.031 A 
ATOM     26  C   UNL     1      -2.947  -3.778   0.005  0.00  0.00    +0.087 A 
ATOM     27  C   UNL     1      -2.779  -2.399   0.016  0.00  0.00    +0.180 A 
ATOM     28 CL   UNL     1      -4.545  -4.456   0.009  0.00  0.00    -0.080 Cl
BRANCH  27  29
ATOM     29  O   UNL     1      -3.866  -1.584   0.030  0.00  0.00    -0.490 OA
ATOM     30  C   UNL     1      -4.397  -1.188  -1.236  0.00  0.00    +0.277 C 
ENDBRANCH  27  29
BRANCH  22  31
ATOM     31  O   UNL     1      -1.339  -0.499   0.012  0.00  0.00    -0.489 OA
BRANCH  31  33
ATOM     32  C   UNL     1      -0.019   1.526   0.010  0.00  0.00    +0.048 C 
ATOM     33  C   UNL     1       0.002  -0.004   0.002  0.00  0.00    +0.226 C 
ENDBRANCH  31  33
ENDBRANCH  22  31
ENDBRANCH  20  24
ENDBRANCH   1  21
TORSDOF 9
