REMARK  Name = ZINC63314949
REMARK  6 active torsions:
REMARK  status: ('A' for Active; 'I' for Inactive)
REMARK    1  A    between atoms: C_3  and  S_30
REMARK    2  A    between atoms: C_6  and  C_7
REMARK    3  A    between atoms: C_7  and  N_8
REMARK    4  A    between atoms: C_9  and  C_11
REMARK    5  A    between atoms: C_11  and  N_12
REMARK    6  A    between atoms: S_30  and  N_33
REMARK                            x       y       z     vdW  Elec       q    Type
REMARK                         _______ _______ _______ _____ _____    ______ ____
ROOT
ATOM      1  N   UNL     1      -4.569  -2.696  -3.016  0.00  0.00    -0.291 N 
ATOM      2  C   UNL     1      -5.161  -3.032  -4.179  0.00  0.00    +0.303 C 
ATOM      3  O   UNL     1      -4.701  -2.636  -5.232  0.00  0.00    -0.253 OA
ATOM      4  N   UNL     1      -6.264  -3.807  -4.174  0.00  0.00    -0.283 N 
ATOM      5  C   UNL     1      -6.882  -4.182  -2.898  0.00  0.00    +0.114 C 
ATOM      6  C   UNL     1      -6.939  -5.717  -2.787  0.00  0.00    +0.052 C 
ATOM      7  C   UNL     1      -7.444  -6.228  -4.114  0.00  0.00    -0.035 C 
ATOM      8  C   UNL     1      -8.437  -7.055  -4.415  0.00  0.00    +0.001 A 
ATOM      9  C   UNL     1      -9.334  -7.858  -3.568  0.00  0.00    +0.030 A 
ATOM     10  C   UNL     1     -10.273  -8.596  -4.219  0.00  0.00    +0.042 A 
ATOM     11  C   UNL     1     -10.408  -8.614  -5.612  0.00  0.00    +0.022 A 
ATOM     12  C   UNL     1      -9.621  -7.913  -6.467  0.00  0.00    +0.027 A 
ATOM     13  C   UNL     1      -8.592  -7.106  -5.901  0.00  0.00    +0.043 A 
ATOM     14  N   UNL     1      -7.694  -6.362  -6.476  0.00  0.00    -0.376 N 
ATOM     15  C   UNL     1      -6.827  -5.800  -5.440  0.00  0.00    +0.124 C 
ATOM     16  C   UNL     1      -6.838  -4.264  -5.450  0.00  0.00    +0.138 C 
ATOM     17 CL   UNL     1     -11.360  -9.565  -3.274  0.00  0.00    -0.084 Cl
ATOM     18  H   UNL     1      -4.976  -2.950  -2.173  0.00  0.00    +0.151 HD
ATOM     19  H   UNL     1      -7.613  -6.206  -7.430  0.00  0.00    +0.160 HD
ENDROOT
BRANCH   1  20
ATOM     20  C   UNL     1      -3.310  -1.948  -3.025  0.00  0.00    +0.201 C 
BRANCH  20  22
ATOM     21  N   UNL     1      -1.720  -1.026  -1.369  0.00  0.00    -0.310 N 
ATOM     22  C   UNL     1      -2.862  -1.701  -1.607  0.00  0.00    +0.231 C 
ATOM     23  O   UNL     1      -3.529  -2.111  -0.680  0.00  0.00    -0.274 OA
ATOM     24  H   UNL     1      -1.187  -0.698  -2.110  0.00  0.00    +0.149 HD
BRANCH  21  25
ATOM     25  C   UNL     1      -1.285  -0.786   0.010  0.00  0.00    +0.139 C 
BRANCH  25  31
ATOM     26  C   UNL     1      -0.008   1.366   0.011  0.00  0.00    +0.007 A 
ATOM     27  C   UNL     1       1.181   2.073   0.003  0.00  0.00    +0.029 A 
ATOM     28  C   UNL     1       2.386   1.397  -0.015  0.00  0.00    +0.105 A 
ATOM     29  C   UNL     1       2.404   0.015  -0.025  0.00  0.00    +0.029 A 
ATOM     30  C   UNL     1       1.216  -0.692  -0.016  0.00  0.00    +0.007 A 
ATOM     31  C   UNL     1       0.010  -0.016   0.001  0.00  0.00    -0.030 A 
BRANCH  28  32
ATOM     32  S   UNL     1       3.901   2.298  -0.026  0.00  0.00    +0.056 S 
ATOM     33  O   UNL     1       4.880   1.439  -0.594  0.00  0.00    -0.153 OA
ATOM     34  O   UNL     1       3.607   3.579  -0.565  0.00  0.00    -0.153 OA
BRANCH  32  35
ATOM     35  N   UNL     1       4.340   2.538   1.552  0.00  0.00    -0.204 NA
ATOM     36  H   UNL     1       3.781   2.196   2.268  0.00  0.00    +0.144 HD
ATOM     37  H   UNL     1       5.155   3.020   1.761  0.00  0.00    +0.144 HD
ENDBRANCH  32  35
ENDBRANCH  28  32
ENDBRANCH  25  31
ENDBRANCH  21  25
ENDBRANCH  20  22
ENDBRANCH   1  20
TORSDOF 6
