REMARK  Name = ZINC40004255
REMARK  7 active torsions:
REMARK  status: ('A' for Active; 'I' for Inactive)
REMARK    1  A    between atoms: C_1  and  C_2
REMARK    2  A    between atoms: C_5  and  C_8
REMARK    3  A    between atoms: C_9  and  C_19
REMARK    4  A    between atoms: N_11  and  C_13
REMARK    5  A    between atoms: N_23  and  N_27
REMARK    6  A    between atoms: C_28  and  C_30
REMARK    7  A    between atoms: C_35  and  O_36
REMARK                            x       y       z     vdW  Elec       q    Type
REMARK                         _______ _______ _______ _____ _____    ______ ____
ROOT
ATOM      1  C   UNL     1       1.550  -4.697   2.094  0.00  0.00    +0.032 C 
ATOM      2  C   UNL     1       2.130  -5.626   2.898  0.00  0.00    +0.079 C 
ATOM      3  C   UNL     1       2.962  -5.439   4.101  0.00  0.00    +0.275 C 
ATOM      4  O   UNL     1       3.232  -4.330   4.524  0.00  0.00    -0.267 OA
ATOM      5  N   UNL     1       3.399  -6.535   4.697  0.00  0.00    -0.169 N 
ATOM      6  C   UNL     1       3.096  -7.762   4.224  0.00  0.00    +0.138 C 
ATOM      7  S   UNL     1       3.562  -9.287   4.848  0.00  0.00    -0.026 S 
ATOM      8  S   UNL     1       2.087  -7.410   2.794  0.00  0.00    -0.059 S 
ENDROOT
BRANCH   1  10
ATOM      9  C   UNL     1       0.061  -4.254  -0.021  0.00  0.00    +0.100 A 
ATOM     10  C   UNL     1       0.750  -5.123   0.941  0.00  0.00    +0.022 A 
ATOM     11  C   UNL     1       0.494  -6.423   0.544  0.00  0.00    +0.123 A 
ATOM     12  N   UNL     1      -0.278  -6.372  -0.558  0.00  0.00    -0.239 N 
ATOM     13  N   UNL     1      -0.540  -5.039  -0.888  0.00  0.00    -0.166 NA
BRANCH   9  18
ATOM     14  C   UNL     1      -0.018   1.503   0.010  0.00  0.00    +0.044 C 
ATOM     15  C   UNL     1       0.002  -0.004   0.002  0.00  0.00    -0.050 A 
ATOM     16  C   UNL     1       0.006  -0.686  -1.201  0.00  0.00    +0.004 A 
ATOM     17  C   UNL     1       0.025  -2.066  -1.215  0.00  0.00    +0.010 A 
ATOM     18  C   UNL     1       0.041  -2.772  -0.013  0.00  0.00    +0.003 A 
ATOM     19  C   UNL     1       0.037  -2.079   1.196  0.00  0.00    +0.010 A 
ATOM     20  C   UNL     1       0.023  -0.699   1.198  0.00  0.00    +0.004 A 
ENDBRANCH   9  18
BRANCH  12  21
ATOM     21  C   UNL     1      -0.753  -7.486  -1.263  0.00  0.00    +0.065 A 
ATOM     22  C   UNL     1      -0.436  -8.768  -0.833  0.00  0.00    +0.028 A 
ATOM     23  C   UNL     1      -0.905  -9.864  -1.530  0.00  0.00    +0.002 A 
ATOM     24  C   UNL     1      -1.689  -9.685  -2.655  0.00  0.00    +0.000 A 
ATOM     25  C   UNL     1      -2.006  -8.410  -3.086  0.00  0.00    +0.002 A 
ATOM     26  C   UNL     1      -1.545  -7.310  -2.390  0.00  0.00    +0.028 A 
ENDBRANCH  12  21
ENDBRANCH   1  10
BRANCH   5  27
ATOM     27  N   UNL     1       4.195  -6.420   5.844  0.00  0.00    -0.222 N 
ATOM     28  C   UNL     1       3.671  -6.685   7.057  0.00  0.00    +0.264 C 
ATOM     29  O   UNL     1       2.507  -7.024   7.156  0.00  0.00    -0.269 OA
ATOM     30  H   UNL     1       5.123  -6.150   5.765  0.00  0.00    +0.174 HD
BRANCH  28  31
ATOM     31  C   UNL     1       4.508  -6.564   8.265  0.00  0.00    +0.079 A 
ATOM     32  C   UNL     1       5.844  -6.170   8.157  0.00  0.00    +0.017 A 
ATOM     33  C   UNL     1       6.622  -6.058   9.289  0.00  0.00    +0.001 A 
ATOM     34  C   UNL     1       6.085  -6.337  10.536  0.00  0.00    +0.004 A 
ATOM     35  C   UNL     1       4.766  -6.728  10.657  0.00  0.00    +0.046 A 
ATOM     36  C   UNL     1       3.967  -6.838   9.529  0.00  0.00    +0.129 A 
BRANCH  36  37
ATOM     37  O   UNL     1       2.670  -7.217   9.647  0.00  0.00    -0.506 OA
ATOM     38  H   UNL     1       2.534  -8.173   9.600  0.00  0.00    +0.292 HD
ENDBRANCH  36  37
ENDBRANCH  28  31
ENDBRANCH   5  27
TORSDOF 6
