REMARK  Name = ZINC28157163
REMARK  7 active torsions:
REMARK  status: ('A' for Active; 'I' for Inactive)
REMARK    1  A    between atoms: C_1  and  C_2
REMARK    2  A    between atoms: C_5  and  C_39
REMARK    3  A    between atoms: C_6  and  N_8
REMARK    4  A    between atoms: C_9  and  C_11
REMARK    5  A    between atoms: C_11  and  C_12
REMARK    6  A    between atoms: C_20  and  C_32
REMARK    7  A    between atoms: C_23  and  C_25
REMARK                            x       y       z     vdW  Elec       q    Type
REMARK                         _______ _______ _______ _____ _____    ______ ____
ROOT
ATOM      1  C   UNL     1       0.494  -2.692  -0.023  0.00  0.00    +0.150 C 
ATOM      2  C   UNL     1      -0.934  -2.162  -0.012  0.00  0.00    +0.252 C 
ATOM      3  O   UNL     1      -1.901  -2.899  -0.011  0.00  0.00    -0.272 OA
ATOM      4  N   UNL     1      -1.048  -0.863   0.001  0.00  0.00    -0.157 NA
ATOM      5  C   UNL     1      -0.021  -0.022  -0.005  0.00  0.00    +0.170 C 
ATOM      6  S   UNL     1       1.407  -1.097  -0.019  0.00  0.00    -0.078 S 
ATOM      7  N   UNL     1      -0.050   1.343   0.003  0.00  0.00    -0.195 N 
ATOM      8  C   UNL     1      -1.264   2.174   0.008  0.00  0.00    +0.136 C 
ATOM      9  C   UNL     1      -0.716   3.615   0.020  0.00  0.00    +0.087 C 
ATOM     10  C   UNL     1       0.785   3.434   0.011  0.00  0.00    +0.069 C 
ATOM     11  N   UNL     1       1.067   2.177   0.002  0.00  0.00    -0.182 NA
ENDROOT
BRANCH  10  12
ATOM     12  C   UNL     1       1.774   4.527   0.011  0.00  0.00    -0.002 A 
ATOM     13  C   UNL     1       1.349   5.858   0.016  0.00  0.00    +0.012 A 
ATOM     14  C   UNL     1       2.278   6.876   0.022  0.00  0.00    +0.039 A 
ATOM     15  C   UNL     1       3.632   6.582   0.013  0.00  0.00    +0.123 A 
ATOM     16  C   UNL     1       4.061   5.264   0.003  0.00  0.00    +0.039 A 
ATOM     17  C   UNL     1       3.141   4.237   0.002  0.00  0.00    +0.012 A 
ATOM     18  F   UNL     1       4.539   7.584   0.013  0.00  0.00    -0.205 F 
ENDBRANCH  10  12
BRANCH   8  19
ATOM     19  C   UNL     1      -2.082   1.926  -1.232  0.00  0.00    -0.025 A 
ATOM     20  C   UNL     1      -1.453   1.737  -2.449  0.00  0.00    +0.008 A 
ATOM     21  C   UNL     1      -2.202   1.504  -3.586  0.00  0.00    +0.038 A 
ATOM     22  C   UNL     1      -3.584   1.470  -3.510  0.00  0.00    +0.123 A 
ATOM     23  C   UNL     1      -4.214   1.664  -2.292  0.00  0.00    +0.038 A 
ATOM     24  C   UNL     1      -3.462   1.892  -1.155  0.00  0.00    +0.008 A 
ATOM     25  F   UNL     1      -4.318   1.248  -4.622  0.00  0.00    -0.205 F 
ENDBRANCH   8  19
BRANCH   1  26
ATOM     26  C   UNL     1       0.795  -3.511   1.234  0.00  0.00    +0.120 C 
BRANCH  26  28
ATOM     27  N   UNL     1       2.735  -4.677   2.233  0.00  0.00    -0.285 N 
ATOM     28  C   UNL     1       2.240  -3.940   1.219  0.00  0.00    +0.219 C 
ATOM     29  O   UNL     1       2.958  -3.622   0.295  0.00  0.00    -0.275 OA
ATOM     30  H   UNL     1       2.111  -4.889   3.114  0.00  0.00    +0.155 HD
BRANCH  27  36
ATOM     31  C   UNL     1       6.598  -6.071  -0.469  0.00  0.00    +0.044 C 
ATOM     32  C   UNL     1       5.938  -5.858   0.869  0.00  0.00    -0.049 A 
ATOM     33  C   UNL     1       6.625  -6.153   2.033  0.00  0.00    +0.004 A 
ATOM     34  C   UNL     1       6.024  -5.959   3.263  0.00  0.00    +0.005 A 
ATOM     35  C   UNL     1       4.734  -5.470   3.332  0.00  0.00    -0.029 A 
ATOM     36  C   UNL     1       4.041  -5.173   2.166  0.00  0.00    +0.037 A 
ATOM     37  C   UNL     1       4.647  -5.374   0.932  0.00  0.00    +0.027 A 
ATOM     38  C   UNL     1       4.078  -5.260   4.673  0.00  0.00    +0.045 C 
ENDBRANCH  27  36
ENDBRANCH  26  28
ENDBRANCH   1  26
TORSDOF 5
