REMARK  Name = ZINC21548905
REMARK  5 active torsions:
REMARK  status: ('A' for Active; 'I' for Inactive)
REMARK    1  A    between atoms: C_1  and  C_2
REMARK    2  A    between atoms: N_5  and  C_7
REMARK    3  A    between atoms: C_25  and  C_27
REMARK    4  A    between atoms: C_33  and  O_38
REMARK    5  A    between atoms: O_38  and  C_39
REMARK                            x       y       z     vdW  Elec       q    Type
REMARK                         _______ _______ _______ _____ _____    ______ ____
ROOT
ATOM      1  C   UNL     1       4.313  -1.636   0.722  0.00  0.00    +0.068 C 
ATOM      2  C   UNL     1       3.747  -0.345   0.190  0.00  0.00    +0.068 A 
ATOM      3  C   UNL     1       4.383   0.515  -0.693  0.00  0.00    +0.043 A 
ATOM      4  C   UNL     1       3.537   1.583  -0.944  0.00  0.00    +0.141 A 
ATOM      5  N   UNL     1       2.405   1.363  -0.205  0.00  0.00    -0.216 N 
ATOM      6  N   UNL     1       2.570   0.154   0.483  0.00  0.00    -0.169 NA
ATOM      7  N   UNL     1       3.908   2.574  -1.781  0.00  0.00    -0.328 N 
ATOM      8  C   UNL     1       5.061   2.626  -2.421  0.00  0.00    +0.105 C 
ATOM      9  C   UNL     1       5.309   3.736  -3.271  0.00  0.00    +0.043 C 
ATOM     10  C   UNL     1       6.472   3.840  -3.951  0.00  0.00    +0.013 C 
ATOM     11  C   UNL     1       7.482   2.789  -3.801  0.00  0.00    -0.004 A 
ATOM     12  C   UNL     1       8.699   2.855  -4.485  0.00  0.00    +0.010 A 
ATOM     13  C   UNL     1       9.627   1.850  -4.322  0.00  0.00    +0.001 A 
ATOM     14  C   UNL     1       9.359   0.776  -3.485  0.00  0.00    +0.002 A 
ATOM     15  C   UNL     1       8.163   0.696  -2.804  0.00  0.00    +0.024 A 
ATOM     16  C   UNL     1       7.212   1.699  -2.953  0.00  0.00    +0.043 A 
ATOM     17  N   UNL     1       6.008   1.640  -2.281  0.00  0.00    -0.274 N 
ATOM     18  C   UNL     1       5.727   0.504  -1.385  0.00  0.00    +0.152 C 
ATOM     19  H   UNL     1       3.169   3.377  -1.912  0.00  0.00    +0.169 HD
ENDROOT
BRANCH  18  20
ATOM     20  C   UNL     1       5.821  -0.756  -2.206  0.00  0.00    +0.060 A 
ATOM     21  C   UNL     1       6.522  -1.810  -1.750  0.00  0.00    +0.205 A 
ATOM     22  O   UNL     1       6.636  -2.955  -2.431  0.00  0.00    -0.462 OA
ATOM     23  C   UNL     1       6.063  -3.138  -3.638  0.00  0.00    +0.139 A 
ATOM     24  C   UNL     1       6.206  -4.340  -4.322  0.00  0.00    +0.050 A 
ATOM     25  C   UNL     1       5.611  -4.506  -5.554  0.00  0.00    +0.049 A 
ATOM     26  C   UNL     1       4.864  -3.481  -6.126  0.00  0.00    +0.121 A 
ATOM     27  C   UNL     1       4.711  -2.279  -5.461  0.00  0.00    +0.061 A 
ATOM     28  C   UNL     1       5.309  -2.103  -4.215  0.00  0.00    +0.068 A 
ATOM     29  C   UNL     1       5.174  -0.837  -3.467  0.00  0.00    +0.198 A 
ATOM     30  O   UNL     1       4.533   0.099  -3.913  0.00  0.00    -0.287 OA
BRANCH  26  31
ATOM     31  O   UNL     1       4.283  -3.662  -7.342  0.00  0.00    -0.495 OA
ATOM     32  C   UNL     1       4.482  -4.928  -7.973  0.00  0.00    +0.277 C 
ENDBRANCH  26  31
ENDBRANCH  18  20
BRANCH   5  33
ATOM     33  C   UNL     1       1.280   2.195  -0.153  0.00  0.00    +0.068 A 
ATOM     34  C   UNL     1       0.012   1.643  -0.032  0.00  0.00    +0.029 A 
ATOM     35  C   UNL     1      -1.097   2.466   0.015  0.00  0.00    +0.022 A 
ATOM     36  C   UNL     1      -0.943   3.840  -0.048  0.00  0.00    +0.041 A 
ATOM     37  C   UNL     1       0.320   4.392  -0.168  0.00  0.00    +0.022 A 
ATOM     38  C   UNL     1       1.431   3.574  -0.221  0.00  0.00    +0.029 A 
ATOM     39 CL   UNL     1      -2.337   4.872   0.018  0.00  0.00    -0.084 Cl
ENDBRANCH   5  33
TORSDOF 3
