REMARK  Name = ZINC13576647
REMARK  5 active torsions:
REMARK  status: ('A' for Active; 'I' for Inactive)
REMARK    1  A    between atoms: C_1  and  C_2
REMARK    2  A    between atoms: C_2  and  N_3
REMARK    3  A    between atoms: C_16  and  C_18
REMARK    4  A    between atoms: N_20  and  C_27
REMARK    5  A    between atoms: N_23  and  C_26
REMARK                            x       y       z     vdW  Elec       q    Type
REMARK                         _______ _______ _______ _____ _____    ______ ____
ROOT
ATOM      1  N   UNL     1      -0.584   0.514   1.131  0.00  0.00    +0.388 N 
ATOM      2  C   UNL     1       0.469   1.476   0.778  0.00  0.00    -0.073 C 
ATOM      3  C   UNL     1       1.673   1.283   1.710  0.00  0.00    +0.019 C 
ATOM      4  C   UNL     1       2.013  -0.186   1.727  0.00  0.00    -0.022 A 
ATOM      5  C   UNL     1       3.211  -0.849   2.189  0.00  0.00    +0.003 A 
ATOM      6  C   UNL     1       4.403  -0.378   2.749  0.00  0.00    +0.010 A 
ATOM      7  C   UNL     1       5.350  -1.316   3.076  0.00  0.00    +0.001 A 
ATOM      8  C   UNL     1       5.147  -2.671   2.865  0.00  0.00    +0.002 A 
ATOM      9  C   UNL     1       3.979  -3.165   2.312  0.00  0.00    +0.026 A 
ATOM     10  C   UNL     1       2.999  -2.235   1.970  0.00  0.00    +0.047 A 
ATOM     11  N   UNL     1       1.758  -2.375   1.417  0.00  0.00    -0.359 N 
ATOM     12  H   UNL     1       1.352  -3.219   1.163  0.00  0.00    +0.166 HD
ATOM     13  C   UNL     1       1.173  -1.147   1.275  0.00  0.00    +0.011 A 
ATOM     14  C   UNL     1      -0.194  -0.842   0.712  0.00  0.00    +0.021 C 
ATOM     15  H   UNL     1      -0.725   0.527   2.130  0.00  0.00    -0.080 HD
ENDROOT
BRANCH  14  16
ATOM     16  C   UNL     1      -1.192  -1.840   1.239  0.00  0.00    +0.074 A 
ATOM     17  C   UNL     1      -1.819  -2.704   0.391  0.00  0.00    +0.267 A 
ATOM     18  N   UNL     1      -2.725  -3.606   0.893  0.00  0.00    -0.229 N 
ATOM     19  C   UNL     1      -2.994  -3.639   2.211  0.00  0.00    +0.339 A 
ATOM     20  O   UNL     1      -3.799  -4.444   2.638  0.00  0.00    -0.246 OA
ATOM     21  N   UNL     1      -2.385  -2.795   3.064  0.00  0.00    -0.263 N 
ATOM     22  C   UNL     1      -1.485  -1.898   2.613  0.00  0.00    +0.262 A 
ATOM     23  O   UNL     1      -0.933  -1.139   3.390  0.00  0.00    -0.267 OA
ATOM     24  C   UNL     1      -2.698  -2.854   4.494  0.00  0.00    +0.157 C 
ATOM     25  O   UNL     1      -1.552  -2.672  -0.932  0.00  0.00    -0.267 OA
BRANCH  18  26
ATOM     26  C   UNL     1      -3.375  -4.496   0.027  0.00  0.00    +0.054 A 
ATOM     27  C   UNL     1      -4.579  -4.138  -0.564  0.00  0.00    +0.028 A 
ATOM     28  C   UNL     1      -5.217  -5.018  -1.417  0.00  0.00    +0.022 A 
ATOM     29  C   UNL     1      -4.657  -6.255  -1.681  0.00  0.00    +0.041 A 
ATOM     30  C   UNL     1      -3.457  -6.614  -1.093  0.00  0.00    +0.022 A 
ATOM     31  C   UNL     1      -2.812  -5.736  -0.245  0.00  0.00    +0.028 A 
ATOM     32 CL   UNL     1      -5.462  -7.359  -2.753  0.00  0.00    -0.084 Cl
ENDBRANCH  18  26
ENDBRANCH  14  16
BRANCH   1  34
ATOM     33  C   UNL     1      -2.307   2.247   0.985  0.00  0.00    -0.017 C 
ATOM     34  C   UNL     1      -1.834   0.891   0.458  0.00  0.00    -0.081 C 
ENDBRANCH   1  34
TORSDOF 3
