REMARK  Name = ZINC35458532
REMARK  7 active torsions:
REMARK  status: ('A' for Active; 'I' for Inactive)
REMARK    1  A    between atoms: C_1  and  C_2
REMARK    2  A    between atoms: C_2  and  C_3
REMARK    3  A    between atoms: C_3  and  N_4
REMARK    4  A    between atoms: N_4  and  C_5
REMARK    5  A    between atoms: C_5  and  C_6
REMARK    6  A    between atoms: C_16  and  C_18
REMARK    7  A    between atoms: N_26  and  C_27
REMARK                            x       y       z     vdW  Elec       q    Type
REMARK                         _______ _______ _______ _____ _____    ______ ____
ROOT
ATOM      1  N   UNL     1      -2.014  -1.777   0.042  0.00  0.00    -0.277 N 
ATOM      2  C   UNL     1      -2.168  -2.387  -1.149  0.00  0.00    +0.307 C 
ATOM      3  O   UNL     1      -2.174  -3.601  -1.215  0.00  0.00    -0.252 OA
ATOM      4  N   UNL     1      -2.316  -1.651  -2.269  0.00  0.00    -0.269 N 
ATOM      5  H   UNL     1      -2.247  -0.685  -2.227  0.00  0.00    +0.156 HD
ENDROOT
BRANCH   4   6
ATOM      6  C   UNL     1      -2.567  -2.281  -3.490  0.00  0.00    +0.042 A 
ATOM      7  C   UNL     1      -2.147  -3.575  -3.704  0.00  0.00    +0.024 A 
ATOM      8  C   UNL     1      -2.392  -4.212  -4.918  0.00  0.00    +0.002 A 
ATOM      9  C   UNL     1      -3.053  -3.575  -5.924  0.00  0.00    +0.008 A 
ATOM     10  C   UNL     1      -3.499  -2.255  -5.745  0.00  0.00    -0.016 A 
ATOM     11  C   UNL     1      -3.260  -1.599  -4.513  0.00  0.00    +0.003 A 
ATOM     12  C   UNL     1      -3.711  -0.281  -4.334  0.00  0.00    +0.010 A 
ATOM     13  C   UNL     1      -4.376   0.346  -5.343  0.00  0.00    +0.001 A 
ATOM     14  C   UNL     1      -4.617  -0.301  -6.554  0.00  0.00    +0.001 A 
ATOM     15  C   UNL     1      -4.183  -1.573  -6.767  0.00  0.00    +0.008 A 
ENDBRANCH   4   6
BRANCH   1  16
ATOM     16  C   UNL     1      -2.007  -0.314   0.121  0.00  0.00    +0.109 C 
BRANCH  16  18
ATOM     17  C   UNL     1      -0.567   1.726   0.044  0.00  0.00    +0.005 C 
ATOM     18  C   UNL     1      -0.574   0.198  -0.038  0.00  0.00    +0.016 C 
ENDBRANCH  16  18
ENDBRANCH   1  16
BRANCH   1  19
ATOM     19  C   UNL     1      -1.853  -2.577   1.259  0.00  0.00    +0.205 C 
BRANCH  19  20
ATOM     20  C   UNL     1      -3.207  -2.854   1.860  0.00  0.00    +0.234 C 
ATOM     21  O   UNL     1      -4.208  -2.426   1.325  0.00  0.00    -0.274 OA
ATOM     22  N   UNL     1      -3.306  -3.578   2.993  0.00  0.00    -0.286 N 
ATOM     23  C   UNL     1      -2.107  -4.102   3.663  0.00  0.00    +0.130 C 
ATOM     24  C   UNL     1      -1.975  -3.453   5.045  0.00  0.00    +0.140 C 
ATOM     25  N   UNL     1      -3.277  -3.483   5.720  0.00  0.00    -0.347 N 
ATOM     26  C   UNL     1      -3.510  -3.341   7.053  0.00  0.00    +0.086 A 
ATOM     27  C   UNL     1      -4.841  -3.421   7.261  0.00  0.00    +0.019 A 
ATOM     28  C   UNL     1      -5.454  -3.623   6.006  0.00  0.00    +0.025 A 
ATOM     29  C   UNL     1      -4.477  -3.661   5.087  0.00  0.00    +0.044 A 
ATOM     30  C   UNL     1      -4.620  -3.862   3.600  0.00  0.00    +0.153 C 
BRANCH  30  31
ATOM     31  C   UNL     1      -5.021  -5.287   3.314  0.00  0.00    -0.021 A 
ATOM     32  C   UNL     1      -6.148  -5.549   2.559  0.00  0.00    +0.006 A 
ATOM     33  C   UNL     1      -6.516  -6.856   2.297  0.00  0.00    +0.000 A 
ATOM     34  C   UNL     1      -5.756  -7.900   2.790  0.00  0.00    +0.000 A 
ATOM     35  C   UNL     1      -4.628  -7.637   3.545  0.00  0.00    +0.000 A 
ATOM     36  C   UNL     1      -4.258  -6.330   3.803  0.00  0.00    +0.006 A 
ENDBRANCH  30  31
ENDBRANCH  19  20
ENDBRANCH   1  19
TORSDOF 6
