REMARK  Name = ZINC40548227
REMARK  8 active torsions:
REMARK  status: ('A' for Active; 'I' for Inactive)
REMARK    1  A    between atoms: C_1  and  C_2
REMARK    2  A    between atoms: C_2  and  C_3
REMARK    3  A    between atoms: C_3  and  O_4
REMARK    4  A    between atoms: O_4  and  C_5
REMARK    5  A    between atoms: C_8  and  C_11
REMARK    6  A    between atoms: C_14  and  C_30
REMARK    7  A    between atoms: N_21  and  C_22
REMARK    8  A    between atoms: C_35  and  O_36
REMARK                            x       y       z     vdW  Elec       q    Type
REMARK                         _______ _______ _______ _____ _____    ______ ____
ROOT
ATOM      1  C   UNL     1       3.148  -4.494  -5.149  0.00  0.00    +0.142 C 
ATOM      2  C   UNL     1       4.610  -4.840  -5.075  0.00  0.00    +0.035 A 
ATOM      3  C   UNL     1       5.920  -4.389  -4.884  0.00  0.00    +0.102 A 
ATOM      4  N   UNL     1       6.716  -5.435  -4.986  0.00  0.00    -0.173 NA
ATOM      5  N   UNL     1       6.038  -6.501  -5.223  0.00  0.00    -0.272 N 
ATOM      6  H   UNL     1       6.416  -7.388  -5.335  0.00  0.00    +0.189 HD
ATOM      7  C   UNL     1       4.707  -6.201  -5.291  0.00  0.00    +0.126 A 
ATOM      8  C   UNL     1       3.358  -6.738  -5.500  0.00  0.00    +0.266 C 
ATOM      9  O   UNL     1       3.102  -7.907  -5.716  0.00  0.00    -0.268 OA
ATOM     10  N   UNL     1       2.443  -5.753  -5.420  0.00  0.00    -0.280 N 
ENDROOT
BRANCH  10  11
ATOM     11  C   UNL     1       0.995  -5.910  -5.576  0.00  0.00    +0.100 C 
ATOM     12  C   UNL     1       0.691  -6.484  -6.970  0.00  0.00    +0.047 C 
ATOM     13  C   UNL     1      -0.799  -6.932  -6.994  0.00  0.00    +0.168 C 
ATOM     14  S   UNL     1      -0.949  -7.695  -5.324  0.00  0.00    -0.029 S 
ATOM     15  O   UNL     1      -0.676  -9.086  -5.426  0.00  0.00    -0.174 OA
ATOM     16  O   UNL     1      -2.163  -7.263  -4.726  0.00  0.00    -0.174 OA
ATOM     17  C   UNL     1       0.462  -6.870  -4.484  0.00  0.00    +0.188 C 
ENDBRANCH  10  11
BRANCH   3  18
ATOM     18  C   UNL     1       6.338  -2.990  -4.617  0.00  0.00    +0.045 A 
ATOM     19  C   UNL     1       5.401  -1.960  -4.658  0.00  0.00    +0.033 A 
ATOM     20  C   UNL     1       5.795  -0.660  -4.408  0.00  0.00    +0.042 A 
ATOM     21  C   UNL     1       7.119  -0.377  -4.118  0.00  0.00    +0.023 A 
ATOM     22  C   UNL     1       8.056  -1.392  -4.076  0.00  0.00    +0.047 A 
ATOM     23  C   UNL     1       7.672  -2.701  -4.318  0.00  0.00    +0.126 A 
ATOM     24 CL   UNL     1       4.626   0.623  -4.459  0.00  0.00    -0.084 Cl
BRANCH  23  25
ATOM     25  O   UNL     1       8.592  -3.700  -4.271  0.00  0.00    -0.506 OA
ATOM     26  H   UNL     1       9.026  -3.875  -5.117  0.00  0.00    +0.292 HD
ENDBRANCH  23  25
ENDBRANCH   3  18
BRANCH   1  30
ATOM     27  C   UNL     1       1.838  -2.848  -1.429  0.00  0.00    +0.121 A 
ATOM     28  C   UNL     1       2.196  -4.186  -1.509  0.00  0.00    +0.046 A 
ATOM     29  C   UNL     1       2.619  -4.715  -2.712  0.00  0.00    +0.009 A 
ATOM     30  C   UNL     1       2.686  -3.913  -3.837  0.00  0.00    -0.022 A 
ATOM     31  C   UNL     1       2.329  -2.579  -3.759  0.00  0.00    +0.009 A 
ATOM     32  C   UNL     1       1.900  -2.047  -2.559  0.00  0.00    +0.046 A 
BRANCH  27  33
ATOM     33  O   UNL     1       1.421  -2.325  -0.245  0.00  0.00    -0.492 OA
BRANCH  33  34
ATOM     34  C   UNL     1       1.382  -3.208   0.877  0.00  0.00    +0.229 C 
BRANCH  34  36
ATOM     35  C   UNL     1       0.850  -3.392   3.311  0.00  0.00    +0.007 C 
ATOM     36  C   UNL     1       0.892  -2.446   2.110  0.00  0.00    +0.038 C 
ENDBRANCH  34  36
ENDBRANCH  33  34
ENDBRANCH  27  33
ENDBRANCH   1  30
TORSDOF 7
