REMARK  Name = ZINC56653617
REMARK  7 active torsions:
REMARK  status: ('A' for Active; 'I' for Inactive)
REMARK    1  A    between atoms: C_1  and  C_2
REMARK    2  A    between atoms: C_2  and  C_4
REMARK    3  A    between atoms: C_2  and  N_13
REMARK    4  A    between atoms: N_16  and  C_17
REMARK    5  A    between atoms: C_22  and  C_23
REMARK    6  A    between atoms: N_25  and  C_26
REMARK    7  A    between atoms: N_25  and  C_27
REMARK                            x       y       z     vdW  Elec       q    Type
REMARK                         _______ _______ _______ _____ _____    ______ ____
ROOT
ATOM      1  N   UNL     1      -1.372  -0.485  -0.033  0.00  0.00    -0.290 N 
ATOM      2  C   UNL     1      -2.051  -0.641  -1.187  0.00  0.00    +0.304 C 
ATOM      3  O   UNL     1      -1.524  -0.359  -2.245  0.00  0.00    -0.252 OA
ATOM      4  N   UNL     1      -3.314  -1.110  -1.167  0.00  0.00    -0.269 N 
ATOM      5  H   UNL     1      -1.793  -0.710   0.812  0.00  0.00    +0.151 HD
ATOM      6  H   UNL     1      -3.707  -1.412  -0.333  0.00  0.00    +0.156 HD
ENDROOT
BRANCH   4   7
ATOM      7  C   UNL     1      -4.057  -1.161  -2.345  0.00  0.00    +0.048 A 
ATOM      8  C   UNL     1      -3.756  -0.305  -3.396  0.00  0.00    +0.044 A 
ATOM      9  C   UNL     1      -4.494  -0.357  -4.562  0.00  0.00    +0.043 A 
ATOM     10  C   UNL     1      -5.538  -1.261  -4.693  0.00  0.00    +0.021 A 
ATOM     11  C   UNL     1      -5.850  -2.117  -3.660  0.00  0.00    +0.016 A 
ATOM     12  C   UNL     1      -5.108  -2.080  -2.476  0.00  0.00    +0.058 A 
ATOM     13 CL   UNL     1      -4.112   0.716  -5.873  0.00  0.00    -0.083 Cl
BRANCH  12  14
ATOM     14  C   UNL     1      -5.433  -2.998  -1.369  0.00  0.00    +0.248 C 
ATOM     15  O   UNL     1      -4.572  -3.721  -0.905  0.00  0.00    -0.270 OA
ATOM     16  N   UNL     1      -6.685  -3.037  -0.871  0.00  0.00    -0.304 N 
ATOM     17  C   UNL     1      -7.039  -4.033   0.144  0.00  0.00    +0.132 C 
ATOM     18  C   UNL     1      -7.691  -2.083  -1.343  0.00  0.00    +0.132 C 
ENDBRANCH  12  14
ENDBRANCH   4   7
BRANCH   1  20
ATOM     19  C   UNL     1      -0.023   1.554  -0.076  0.00  0.00    +0.036 C 
ATOM     20  C   UNL     1       0.001   0.024  -0.054  0.00  0.00    +0.137 C 
BRANCH  20  21
ATOM     21  C   UNL     1       0.732  -0.449   1.176  0.00  0.00    +0.126 A 
ATOM     22  C   UNL     1       2.007  -0.859   1.201  0.00  0.00    +0.055 A 
ATOM     23  C   UNL     1       2.293  -1.223   2.594  0.00  0.00    +0.020 A 
ATOM     24  C   UNL     1       3.414  -1.710   3.263  0.00  0.00    +0.011 A 
ATOM     25  C   UNL     1       3.349  -1.953   4.607  0.00  0.00    +0.001 A 
ATOM     26  C   UNL     1       2.175  -1.717   5.308  0.00  0.00    +0.004 A 
ATOM     27  C   UNL     1       1.056  -1.234   4.662  0.00  0.00    +0.047 A 
ATOM     28  C   UNL     1       1.101  -0.981   3.297  0.00  0.00    +0.135 A 
ATOM     29  O   UNL     1       0.200  -0.515   2.409  0.00  0.00    -0.458 OA
ENDBRANCH  20  21
ENDBRANCH   1  20
TORSDOF 4
