REMARK  Name = ZINC36490451
REMARK  16 active torsions:
REMARK  status: ('A' for Active; 'I' for Inactive)
REMARK    1  A    between atoms: C_1  and  C_2
REMARK    2  A    between atoms: C_2  and  C_3
REMARK    3  A    between atoms: C_2  and  C_4
REMARK    4  A    between atoms: C_2  and  C_5
REMARK    5  A    between atoms: C_5  and  C_6
REMARK    6  A    between atoms: C_6  and  C_7
REMARK    7  A    between atoms: C_6  and  C_8
REMARK    8  A    between atoms: C_6  and  N_9
REMARK    9  A    between atoms: C_10  and  C_12
REMARK   10  A    between atoms: C_12  and  C_14
REMARK   11  A    between atoms: C_12  and  N_21
REMARK   12  A    between atoms: C_19  and  O_20
REMARK   13  A    between atoms: N_21  and  C_22
REMARK   14  A    between atoms: C_28  and  C_30
REMARK   15  A    between atoms: C_30  and  N_31
REMARK   16  A    between atoms: C_32  and  C_34
REMARK                            x       y       z     vdW  Elec       q    Type
REMARK                         _______ _______ _______ _____ _____    ______ ____
ROOT
ATOM      1  C   UNL     1       5.527   0.157  -3.582  0.00  0.00    +0.196 C 
ENDROOT
BRANCH   1   2
ATOM      2  C   UNL     1       4.552   1.145  -4.169  0.00  0.00    +0.023 A 
ATOM      3  C   UNL     1       3.724   1.876  -3.339  0.00  0.00    +0.009 A 
ATOM      4  C   UNL     1       2.830   2.782  -3.877  0.00  0.00    +0.001 A 
ATOM      5  C   UNL     1       2.761   2.959  -5.247  0.00  0.00    +0.004 A 
ATOM      6  C   UNL     1       3.586   2.231  -6.081  0.00  0.00    +0.046 A 
ATOM      7  C   UNL     1       4.489   1.324  -5.543  0.00  0.00    +0.122 A 
BRANCH   7   8
ATOM      8  O   UNL     1       5.306   0.610  -6.361  0.00  0.00    -0.506 OA
ATOM      9  H   UNL     1       4.965  -0.265  -6.592  0.00  0.00    +0.292 HD
ENDBRANCH   7   8
ENDBRANCH   1   2
BRANCH   1  11
ATOM     10  N   UNL     1       4.136  -0.411  -1.617  0.00  0.00    -0.308 N 
ATOM     11  C   UNL     1       5.306   0.057  -2.094  0.00  0.00    +0.239 C 
ATOM     12  O   UNL     1       6.181   0.398  -1.327  0.00  0.00    -0.273 OA
ATOM     13  H   UNL     1       3.417  -0.635  -2.228  0.00  0.00    +0.149 HD
BRANCH  10  14
ATOM     14  C   UNL     1       3.950  -0.583  -0.174  0.00  0.00    +0.030 C 
ATOM     15  C   UNL     1       4.279   0.729   0.542  0.00  0.00    +0.031 C 
ATOM     16  C   UNL     1       4.879  -1.687   0.333  0.00  0.00    +0.031 C 
BRANCH  14  17
ATOM     17  C   UNL     1       2.497  -0.969   0.111  0.00  0.00    +0.031 C 
BRANCH  17  19
ATOM     18  C   UNL     1       1.515  -0.464  -2.131  0.00  0.00    +0.010 C 
ATOM     19  C   UNL     1       1.561  -0.037  -0.662  0.00  0.00    -0.036 C 
ATOM     20  C   UNL     1       2.077   1.400  -0.564  0.00  0.00    +0.010 C 
ATOM     21  C   UNL     1       0.155  -0.116  -0.064  0.00  0.00    +0.010 C 
ENDBRANCH  17  19
ENDBRANCH  14  17
ENDBRANCH  10  14
ENDBRANCH   1  11
BRANCH   1  22
ATOM     22  N   UNL     1       6.896   0.608  -3.843  0.00  0.00    -0.281 N 
ATOM     23  C   UNL     1       7.754  -0.192  -4.506  0.00  0.00    +0.234 C 
ATOM     24  O   UNL     1       7.429  -1.326  -4.791  0.00  0.00    -0.274 OA
BRANCH  22  25
ATOM     25  C   UNL     1       7.333   1.929  -3.383  0.00  0.00    +0.077 C 
ATOM     26  C   UNL     1       8.130   1.779  -2.086  0.00  0.00    +0.022 C 
ATOM     27  C   UNL     1       8.586   3.158  -1.606  0.00  0.00    +0.002 C 
ATOM     28  C   UNL     1       7.362   4.041  -1.353  0.00  0.00    +0.000 C 
ATOM     29  C   UNL     1       6.564   4.190  -2.650  0.00  0.00    +0.002 C 
ATOM     30  C   UNL     1       6.109   2.811  -3.131  0.00  0.00    +0.022 C 
ENDBRANCH  22  25
BRANCH  23  31
ATOM     31  C   UNL     1       9.117   0.321  -4.894  0.00  0.00    +0.200 C 
BRANCH  31  32
ATOM     32  N   UNL     1       9.883  -0.756  -5.526  0.00  0.00    -0.303 N 
ATOM     33  C   UNL     1      11.139  -0.526  -5.958  0.00  0.00    +0.244 C 
ATOM     34  O   UNL     1      11.636   0.575  -5.822  0.00  0.00    -0.270 OA
ATOM     35  H   UNL     1       9.486  -1.634  -5.635  0.00  0.00    +0.150 HD
BRANCH  33  36
ATOM     36  C   UNL     1      11.912  -1.613  -6.596  0.00  0.00    +0.037 A 
ATOM     37  C   UNL     1      11.341  -2.877  -6.758  0.00  0.00    +0.013 A 
ATOM     38  C   UNL     1      12.068  -3.886  -7.355  0.00  0.00    +0.001 A 
ATOM     39  C   UNL     1      13.359  -3.649  -7.792  0.00  0.00    +0.000 A 
ATOM     40  C   UNL     1      13.930  -2.398  -7.633  0.00  0.00    +0.001 A 
ATOM     41  C   UNL     1      13.213  -1.378  -7.043  0.00  0.00    +0.013 A 
ENDBRANCH  33  36
ENDBRANCH  31  32
ENDBRANCH  23  31
ENDBRANCH   1  22
TORSDOF 11
