REMARK  Name = ZINC23450731
REMARK  8 active torsions:
REMARK  status: ('A' for Active; 'I' for Inactive)
REMARK    1  A    between atoms: C_1  and  N_2
REMARK    2  A    between atoms: C_6  and  C_8
REMARK    3  A    between atoms: C_8  and  C_9
REMARK    4  A    between atoms: C_9  and  N_10
REMARK    5  A    between atoms: C_11  and  C_13
REMARK    6  A    between atoms: C_13  and  C_14
REMARK    7  A    between atoms: C_14  and  C_15
REMARK    8  A    between atoms: N_19  and  C_20
REMARK                            x       y       z     vdW  Elec       q    Type
REMARK                         _______ _______ _______ _____ _____    ______ ____
ROOT
ATOM      1  C   UNL     1      -6.987   0.052  -7.805  0.00  0.00    +0.028 A 
ATOM      2  C   UNL     1      -8.284   0.444  -7.839  0.00  0.00    +0.069 A 
ATOM      3  C   UNL     1      -8.992  -0.492  -8.593  0.00  0.00    +0.147 A 
ATOM      4  C   UNL     1      -8.085  -1.447  -9.009  0.00  0.00    +0.096 A 
ATOM      5  N   UNL     1      -6.859  -1.105  -8.526  0.00  0.00    -0.308 N 
ATOM      6  C   UNL     1      -8.545  -2.575  -9.838  0.00  0.00    +0.009 A 
ATOM      7  C   UNL     1      -7.784  -3.714 -10.056  0.00  0.00    +0.010 A 
ATOM      8  C   UNL     1      -8.308  -4.745 -10.812  0.00  0.00    +0.001 A 
ATOM      9  C   UNL     1      -9.581  -4.635 -11.344  0.00  0.00    +0.000 A 
ATOM     10  C   UNL     1     -10.339  -3.496 -11.136  0.00  0.00    +0.007 A 
ATOM     11  C   UNL     1      -9.830  -2.454 -10.390  0.00  0.00    -0.001 A 
ATOM     12  C   UNL     1     -10.629  -1.199 -10.168  0.00  0.00    +0.265 C 
ATOM     13  O   UNL     1     -10.306  -0.569  -8.926  0.00  0.00    -0.485 OA
ENDROOT
BRANCH   5  14
ATOM     14  C   UNL     1      -5.669  -1.819  -8.729  0.00  0.00    +0.065 A 
ATOM     15  C   UNL     1      -5.295  -2.814  -7.837  0.00  0.00    +0.030 A 
ATOM     16  C   UNL     1      -4.123  -3.516  -8.038  0.00  0.00    +0.040 A 
ATOM     17  C   UNL     1      -3.319  -3.227  -9.128  0.00  0.00    +0.125 A 
ATOM     18  C   UNL     1      -3.690  -2.234 -10.020  0.00  0.00    +0.060 A 
ATOM     19  C   UNL     1      -4.865  -1.534  -9.825  0.00  0.00    +0.067 A 
ATOM     20 CL   UNL     1      -5.334  -0.294 -10.947  0.00  0.00    -0.081 Cl
ATOM     21  F   UNL     1      -2.173  -3.915  -9.323  0.00  0.00    -0.205 F 
ENDBRANCH   5  14
BRANCH   1  22
ATOM     22  C   UNL     1      -5.870   0.775  -7.098  0.00  0.00    +0.063 C 
BRANCH  22  23
ATOM     23  C   UNL     1      -5.833   0.344  -5.630  0.00  0.00    +0.102 C 
BRANCH  23  25
ATOM     24  N   UNL     1      -4.492   0.844  -3.612  0.00  0.00    -0.315 N 
ATOM     25  C   UNL     1      -4.715   1.067  -4.923  0.00  0.00    +0.213 C 
ATOM     26  O   UNL     1      -4.017   1.849  -5.532  0.00  0.00    -0.276 OA
ATOM     27  H   UNL     1      -5.125   0.135  -3.059  0.00  0.00    +0.149 HD
BRANCH  24  28
ATOM     28  C   UNL     1      -3.406   1.546  -2.925  0.00  0.00    +0.102 C 
BRANCH  28  29
ATOM     29  C   UNL     1      -3.369   1.116  -1.457  0.00  0.00    +0.003 C 
BRANCH  29  35
ATOM     30  C   UNL     1      -3.109   0.282   0.911  0.00  0.00    -0.096 C 
ATOM     31  N   UNL     1      -2.071   1.281   0.625  0.00  0.00    +0.380 N 
ATOM     32  C   UNL     1      -2.197   2.449   1.523  0.00  0.00    -0.079 C 
ATOM     33  C   UNL     1      -1.748   3.660   0.668  0.00  0.00    -0.020 C 
ATOM     34  C   UNL     1      -2.323   3.284  -0.727  0.00  0.00    -0.017 C 
ATOM     35  C   UNL     1      -2.158   1.750  -0.770  0.00  0.00    -0.068 C 
ATOM     36  H   UNL     1      -1.101   0.788   0.789  0.00  0.00    -0.082 HD
ENDBRANCH  29  35
ENDBRANCH  28  29
ENDBRANCH  24  28
ENDBRANCH  23  25
ENDBRANCH  22  23
ENDBRANCH   1  22
TORSDOF 7
