REMARK  Name = ZINC01075218
REMARK  8 active torsions:
REMARK  status: ('A' for Active; 'I' for Inactive)
REMARK    1  A    between atoms: C_1  and  C_2
REMARK    2  A    between atoms: C_3  and  C_30
REMARK    3  A    between atoms: C_4  and  C_21
REMARK    4  A    between atoms: C_10  and  C_15
REMARK    5  A    between atoms: C_24  and  O_28
REMARK    6  A    between atoms: O_28  and  C_29
REMARK    7  A    between atoms: C_30  and  O_32
REMARK    8  A    between atoms: O_32  and  C_33
REMARK                            x       y       z     vdW  Elec       q    Type
REMARK                         _______ _______ _______ _____ _____    ______ ____
ROOT
ATOM      1  C   UNL     1       6.480   6.245   3.748  0.00  0.00    +0.061 C 
ATOM      2  C   UNL     1       5.721   6.317   2.448  0.00  0.00    +0.016 C 
ATOM      3  C   UNL     1       6.342   6.744   1.335  0.00  0.00    +0.065 C 
ATOM      4  C   UNL     1       5.617   6.835   0.025  0.00  0.00    +0.092 C 
ATOM      5  C   UNL     1       4.351   6.016   0.050  0.00  0.00    +0.024 C 
ATOM      6  C   UNL     1       3.808   5.621   1.221  0.00  0.00    +0.016 C 
ATOM      7  N   UNL     1       4.406   5.947   2.409  0.00  0.00    -0.321 N 
ATOM      8  C   UNL     1       2.535   4.812   1.253  0.00  0.00    +0.059 C 
ATOM      9  C   UNL     1       2.451   3.937   0.001  0.00  0.00    +0.032 C 
ATOM     10  C   UNL     1       2.502   4.845  -1.232  0.00  0.00    +0.088 C 
ATOM     11  C   UNL     1       3.756   5.674  -1.178  0.00  0.00    +0.162 C 
ATOM     12  O   UNL     1       4.265   6.055  -2.213  0.00  0.00    -0.292 OA
ATOM     13  H   UNL     1       3.817   5.908   3.337  0.00  0.00    +0.152 HD
ENDROOT
BRANCH   4  14
ATOM     14  C   UNL     1       5.267   8.275  -0.248  0.00  0.00    -0.034 A 
ATOM     15  C   UNL     1       4.456   8.967   0.632  0.00  0.00    +0.008 A 
ATOM     16  C   UNL     1       4.138  10.289   0.388  0.00  0.00    +0.047 A 
ATOM     17  C   UNL     1       4.624  10.920  -0.748  0.00  0.00    +0.138 A 
ATOM     18  C   UNL     1       5.434  10.222  -1.634  0.00  0.00    +0.083 A 
ATOM     19  C   UNL     1       5.753   8.900  -1.381  0.00  0.00    +0.028 A 
ATOM     20 CL   UNL     1       6.045  11.007  -3.056  0.00  0.00    -0.080 Cl
BRANCH  17  21
ATOM     21  O   UNL     1       4.308  12.219  -0.994  0.00  0.00    -0.494 OA
ATOM     22  C   UNL     1       3.470  12.874  -0.040  0.00  0.00    +0.277 C 
ENDBRANCH  17  21
ENDBRANCH   4  14
BRANCH   9  23
ATOM     23  C   UNL     1       1.156   3.165   0.008  0.00  0.00    -0.044 A 
ATOM     24  C   UNL     1       1.175   1.783   0.000  0.00  0.00    +0.004 A 
ATOM     25  C   UNL     1      -0.013   1.076   0.008  0.00  0.00    +0.000 A 
ATOM     26  C   UNL     1      -1.219   1.751   0.017  0.00  0.00    +0.000 A 
ATOM     27  C   UNL     1      -1.238   3.133   0.029  0.00  0.00    +0.000 A 
ATOM     28  C   UNL     1      -0.050   3.840   0.023  0.00  0.00    +0.004 A 
ENDBRANCH   9  23
BRANCH   3  29
ATOM     29  C   UNL     1       7.706   7.114   1.401  0.00  0.00    +0.338 C 
ATOM     30  O   UNL     1       8.305   7.044   2.457  0.00  0.00    -0.245 OA
BRANCH  29  31
ATOM     31  O   UNL     1       8.342   7.545   0.291  0.00  0.00    -0.458 OA
BRANCH  31  32
ATOM     32  C   UNL     1       9.719   7.902   0.430  0.00  0.00    +0.177 C 
ATOM     33  C   UNL     1       9.846   9.412   0.720  0.00  0.00    +0.044 C 
ATOM     34  C   UNL     1      11.116   9.841  -0.056  0.00  0.00    +0.004 C 
ATOM     35  C   UNL     1      11.022   9.004  -1.356  0.00  0.00    +0.004 C 
ATOM     36  C   UNL     1      10.466   7.643  -0.890  0.00  0.00    +0.044 C 
ENDBRANCH  31  32
ENDBRANCH  29  31
ENDBRANCH   3  29
TORSDOF 6
