REMARK  Name = ZINC08435661
REMARK  8 active torsions:
REMARK  status: ('A' for Active; 'I' for Inactive)
REMARK    1  A    between atoms: C_1  and  C_2
REMARK    2  A    between atoms: C_7  and  N_8
REMARK    3  A    between atoms: C_9  and  C_11
REMARK    4  A    between atoms: C_11  and  S_12
REMARK    5  A    between atoms: S_12  and  C_13
REMARK    6  A    between atoms: N_14  and  N_15
REMARK    7  A    between atoms: N_23  and  C_26
REMARK    8  A    between atoms: C_26  and  C_27
REMARK                            x       y       z     vdW  Elec       q    Type
REMARK                         _______ _______ _______ _____ _____    ______ ____
ROOT
ATOM      1  C   UNL     1      -0.364  -0.175   7.604  0.00  0.00    +0.146 C 
ATOM      2  N   UNL     1      -0.450  -0.735   8.810  0.00  0.00    -0.258 N 
ATOM      3  N   UNL     1      -0.388   1.184   7.480  0.00  0.00    -0.338 N 
ATOM      4  H   UNL     1      -0.326   1.592   6.603  0.00  0.00    +0.144 HD
ATOM      5  H   UNL     1      -0.467   1.742   8.270  0.00  0.00    +0.144 HD
ATOM      6  H   UNL     1      -0.433  -1.701   8.898  0.00  0.00    +0.191 HD
ENDROOT
BRANCH   2   7
ATOM      7  N   UNL     1      -0.555   0.007   9.860  0.00  0.00    -0.167 NA
ATOM      8  C   UNL     1      -0.541  -0.543  11.063  0.00  0.00    +0.155 C 
ATOM      9  C   UNL     1      -0.525  -1.985  11.392  0.00  0.00    +0.029 A 
ATOM     10  C   UNL     1      -0.520  -3.141  10.617  0.00  0.00    +0.012 A 
ATOM     11  C   UNL     1      -0.503  -4.377  11.232  0.00  0.00    +0.001 A 
ATOM     12  C   UNL     1      -0.492  -4.465  12.614  0.00  0.00    +0.002 A 
ATOM     13  C   UNL     1      -0.497  -3.325  13.392  0.00  0.00    +0.024 A 
ATOM     14  C   UNL     1      -0.513  -2.071  12.792  0.00  0.00    +0.046 A 
ATOM     15  N   UNL     1      -0.522  -0.789  13.326  0.00  0.00    -0.261 N 
ATOM     16  C   UNL     1      -0.532   0.145  12.360  0.00  0.00    +0.272 C 
ATOM     17  O   UNL     1      -0.536   1.351  12.529  0.00  0.00    -0.268 OA
BRANCH  15  18
ATOM     18  C   UNL     1      -0.514  -0.492  14.761  0.00  0.00    +0.149 C 
BRANCH  18  19
ATOM     19  C   UNL     1       0.910  -0.376  15.242  0.00  0.00    -0.030 A 
ATOM     20  C   UNL     1       1.578  -1.497  15.700  0.00  0.00    +0.005 A 
ATOM     21  C   UNL     1       2.883  -1.391  16.141  0.00  0.00    +0.000 A 
ATOM     22  C   UNL     1       3.522  -0.165  16.124  0.00  0.00    +0.000 A 
ATOM     23  C   UNL     1       2.854   0.955  15.666  0.00  0.00    +0.000 A 
ATOM     24  C   UNL     1       1.550   0.849  15.220  0.00  0.00    +0.005 A 
ENDBRANCH  18  19
ENDBRANCH  15  18
ENDBRANCH   2   7
BRANCH   1  25
ATOM     25  S   UNL     1      -0.229  -1.129   6.253  0.00  0.00    -0.082 S 
BRANCH  25  26
ATOM     26  C   UNL     1      -0.145   0.057   4.884  0.00  0.00    +0.173 C 
BRANCH  26  28
ATOM     27  N   UNL     1       0.060  -0.007   2.420  0.00  0.00    -0.285 N 
ATOM     28  C   UNL     1      -0.019  -0.688   3.580  0.00  0.00    +0.227 C 
ATOM     29  O   UNL     1       0.012  -1.900   3.575  0.00  0.00    -0.275 OA
ATOM     30  H   UNL     1       0.097   0.962   2.428  0.00  0.00    +0.155 HD
BRANCH  27  37
ATOM     31  C   UNL     1      -1.227   1.173   0.173  0.00  0.00    +0.045 C 
ATOM     32  C   UNL     1      -0.528  -0.159   0.082  0.00  0.00    -0.029 A 
ATOM     33  C   UNL     1      -0.494  -0.841  -1.118  0.00  0.00    +0.005 A 
ATOM     34  C   UNL     1       0.147  -2.063  -1.203  0.00  0.00    +0.000 A 
ATOM     35  C   UNL     1       0.756  -2.606  -0.086  0.00  0.00    +0.002 A 
ATOM     36  C   UNL     1       0.726  -1.929   1.117  0.00  0.00    +0.023 A 
ATOM     37  C   UNL     1       0.087  -0.699   1.204  0.00  0.00    +0.036 A 
ENDBRANCH  27  37
ENDBRANCH  26  28
ENDBRANCH  25  26
ENDBRANCH   1  25
TORSDOF 7
