REMARK  Name = ZINC33398021
REMARK  15 active torsions:
REMARK  status: ('A' for Active; 'I' for Inactive)
REMARK    1  A    between atoms: C_1  and  C_2
REMARK    2  A    between atoms: C_2  and  N_3
REMARK    3  A    between atoms: C_5  and  C_34
REMARK    4  A    between atoms: N_12  and  C_13
REMARK    5  A    between atoms: C_13  and  C_15
REMARK    6  A    between atoms: C_18  and  S_21
REMARK    7  A    between atoms: S_21  and  N_24
REMARK    8  A    between atoms: N_24  and  C_25
REMARK    9  A    between atoms: N_24  and  C_29
REMARK   10  A    between atoms: C_25  and  C_26
REMARK   11  A    between atoms: C_26  and  C_27
REMARK   12  A    between atoms: C_26  and  C_28
REMARK   13  A    between atoms: C_29  and  C_30
REMARK   14  A    between atoms: C_30  and  C_31
REMARK   15  A    between atoms: C_30  and  C_32
REMARK                            x       y       z     vdW  Elec       q    Type
REMARK                         _______ _______ _______ _____ _____    ______ ____
ROOT
ATOM      1  C   UNL     1       0.740  -1.059   6.098  0.00  0.00    +0.039 A 
ATOM      2  C   UNL     1       0.959   0.300   6.323  0.00  0.00    +0.015 A 
ATOM      3  C   UNL     1       0.898   0.803   7.607  0.00  0.00    +0.029 A 
ATOM      4  C   UNL     1       0.632  -0.040   8.671  0.00  0.00    +0.106 A 
ATOM      5  C   UNL     1       0.419  -1.390   8.455  0.00  0.00    +0.029 A 
ATOM      6  C   UNL     1       0.471  -1.904   7.175  0.00  0.00    +0.015 A 
ENDROOT
BRANCH   4   7
ATOM      7  S   UNL     1       0.564   0.607  10.308  0.00  0.00    +0.061 S 
ATOM      8  O   UNL     1       0.108   1.948  10.196  0.00  0.00    -0.153 OA
ATOM      9  O   UNL     1      -0.107  -0.362  11.101  0.00  0.00    -0.153 OA
BRANCH   7  10
ATOM     10  N   UNL     1       2.121   0.683  10.869  0.00  0.00    -0.176 NA
BRANCH  10  11
ATOM     11  C   UNL     1       2.869   1.940  10.787  0.00  0.00    +0.112 C 
BRANCH  11  12
ATOM     12  C   UNL     1       2.742   2.697  12.110  0.00  0.00    -0.001 C 
ATOM     13  C   UNL     1       3.623   3.947  12.069  0.00  0.00    +0.008 C 
ATOM     14  C   UNL     1       1.284   3.107  12.325  0.00  0.00    +0.008 C 
ENDBRANCH  11  12
ENDBRANCH  10  11
BRANCH  10  15
ATOM     15  C   UNL     1       2.749  -0.507  11.448  0.00  0.00    +0.112 C 
BRANCH  15  16
ATOM     16  C   UNL     1       3.901  -0.963  10.551  0.00  0.00    -0.001 C 
ATOM     17  C   UNL     1       4.655  -2.107  11.231  0.00  0.00    +0.008 C 
ATOM     18  C   UNL     1       3.344  -1.445   9.210  0.00  0.00    +0.008 C 
ENDBRANCH  15  16
ENDBRANCH  10  15
ENDBRANCH   7  10
ENDBRANCH   4   7
BRANCH   1  19
ATOM     19  C   UNL     1       0.797  -1.603   4.722  0.00  0.00    +0.269 C 
ATOM     20  O   UNL     1       0.610  -2.792   4.529  0.00  0.00    -0.268 OA
BRANCH  19  30
ATOM     21  N   UNL     1       1.352  -0.615   1.297  0.00  0.00    -0.321 N 
ATOM     22  C   UNL     1       1.360  -1.298   0.095  0.00  0.00    +0.061 A 
ATOM     23  C   UNL     1       1.597  -0.792  -1.193  0.00  0.00    -0.024 A 
ATOM     24  C   UNL     1       1.573  -1.621  -2.290  0.00  0.00    +0.025 A 
ATOM     25  C   UNL     1       1.320  -2.977  -2.160  0.00  0.00    +0.042 A 
ATOM     26  C   UNL     1       1.088  -3.504  -0.900  0.00  0.00    +0.037 A 
ATOM     27  C   UNL     1       1.112  -2.675   0.197  0.00  0.00    +0.041 A 
ATOM     28  S   UNL     1       0.876  -2.918   1.939  0.00  0.00    -0.052 S 
ATOM     29  C   UNL     1       1.106  -1.280   2.457  0.00  0.00    +0.167 A 
ATOM     30  N   UNL     1       1.054  -0.791   3.692  0.00  0.00    -0.152 NA
ATOM     31 CL   UNL     1       1.295  -4.004  -3.559  0.00  0.00    -0.083 Cl
ATOM     32  C   UNL     1       1.875   0.678  -1.376  0.00  0.00    +0.046 C 
BRANCH  21  34
ATOM     33  C   UNL     1       1.008   1.429   2.595  0.00  0.00    +0.027 C 
ATOM     34  C   UNL     1       1.603   0.829   1.319  0.00  0.00    +0.121 C 
ENDBRANCH  21  34
ENDBRANCH  19  30
ENDBRANCH   1  19
TORSDOF 9
