REMARK  Name = ZINC02625937
REMARK  11 active torsions:
REMARK  status: ('A' for Active; 'I' for Inactive)
REMARK    1  A    between atoms: C_1  and  C_2
REMARK    2  A    between atoms: C_2  and  C_3
REMARK    3  A    between atoms: C_2  and  C_4
REMARK    4  A    between atoms: C_4  and  C_5
REMARK    5  A    between atoms: C_4  and  C_6
REMARK    6  A    between atoms: C_4  and  N_8
REMARK    7  A    between atoms: C_9  and  C_11
REMARK    8  A    between atoms: C_11  and  S_12
REMARK    9  A    between atoms: S_12  and  C_13
REMARK   10  A    between atoms: C_16  and  C_24
REMARK   11  A    between atoms: N_17  and  C_18
REMARK                            x       y       z     vdW  Elec       q    Type
REMARK                         _______ _______ _______ _____ _____    ______ ____
ROOT
ATOM      1  C   UNL     1       1.163  -4.538   2.276  0.00  0.00    +0.193 A 
ATOM      2  N   UNL     1       1.014  -5.104   1.098  0.00  0.00    -0.122 NA
ATOM      3  N   UNL     1       1.242  -6.366   1.183  0.00  0.00    -0.128 NA
ATOM      4  C   UNL     1       1.542  -6.685   2.420  0.00  0.00    +0.165 A 
ATOM      5  N   UNL     1       1.500  -5.525   3.158  0.00  0.00    -0.299 N 
ENDROOT
BRANCH   4   6
ATOM      6  C   UNL     1       1.863  -8.037   2.926  0.00  0.00    +0.019 A 
ATOM      7  C   UNL     1       2.758  -8.194   3.985  0.00  0.00    +0.012 A 
ATOM      8  C   UNL     1       3.050  -9.458   4.455  0.00  0.00    +0.016 A 
ATOM      9  C   UNL     1       2.465 -10.569   3.872  0.00  0.00    +0.018 A 
ATOM     10  C   UNL     1       1.580 -10.419   2.817  0.00  0.00    +0.016 A 
ATOM     11  C   UNL     1       1.276  -9.161   2.342  0.00  0.00    +0.012 A 
ATOM     12 BR   UNL     1       2.877 -12.298   4.518  0.00  0.00    -0.050 Br
ENDBRANCH   4   6
BRANCH   5  13
ATOM     13  C   UNL     1       1.762  -5.378   4.592  0.00  0.00    +0.091 C 
ATOM     14  C   UNL     1       0.569  -4.692   5.261  0.00  0.00    +0.025 C 
ATOM     15  C   UNL     1       0.843  -4.538   6.758  0.00  0.00    +0.002 C 
ATOM     16  C   UNL     1       2.099  -3.690   6.963  0.00  0.00    +0.000 C 
ATOM     17  C   UNL     1       3.292  -4.375   6.294  0.00  0.00    +0.002 C 
ATOM     18  C   UNL     1       3.018  -4.529   4.796  0.00  0.00    +0.025 C 
ENDBRANCH   5  13
BRANCH   1  19
ATOM     19  S   UNL     1       0.958  -2.828   2.647  0.00  0.00    -0.077 S 
BRANCH  19  20
ATOM     20  C   UNL     1       0.528  -2.199   1.005  0.00  0.00    +0.173 C 
BRANCH  20  22
ATOM     21  N   UNL     1      -0.033  -0.023  -0.029  0.00  0.00    -0.297 N 
ATOM     22  C   UNL     1       0.301  -0.711   1.081  0.00  0.00    +0.224 C 
ATOM     23  O   UNL     1       0.418  -0.133   2.141  0.00  0.00    -0.275 OA
ATOM     24  H   UNL     1      -0.126  -0.486  -0.876  0.00  0.00    +0.150 HD
BRANCH  21  25
ATOM     25  C   UNL     1      -0.254   1.423   0.045  0.00  0.00    +0.121 C 
ATOM     26  C   UNL     1       1.023   2.110   0.536  0.00  0.00    +0.048 C 
BRANCH  25  28
ATOM     27  C   UNL     1      -1.958   1.363  -1.780  0.00  0.00    +0.010 C 
ATOM     28  C   UNL     1      -0.617   1.955  -1.343  0.00  0.00    +0.020 C 
ATOM     29  C   UNL     1      -0.726   3.480  -1.292  0.00  0.00    +0.010 C 
ENDBRANCH  25  28
BRANCH  25  30
ATOM     30  C   UNL     1      -1.353   1.704   0.982  0.00  0.00    +0.088 C 
ATOM     31  N   UNL     1      -2.202   1.921   1.705  0.00  0.00    -0.194 NA
ENDBRANCH  25  30
ENDBRANCH  21  25
ENDBRANCH  20  22
ENDBRANCH  19  20
ENDBRANCH   1  19
TORSDOF 8
