REMARK  Name = ZINC35704843
REMARK  13 active torsions:
REMARK  status: ('A' for Active; 'I' for Inactive)
REMARK    1  A    between atoms: C_1  and  C_2
REMARK    2  A    between atoms: C_2  and  C_4
REMARK    3  A    between atoms: C_2  and  N_10
REMARK    4  A    between atoms: N_10  and  C_11
REMARK    5  A    between atoms: N_10  and  C_22
REMARK    6  A    between atoms: C_11  and  C_12
REMARK    7  A    between atoms: C_15  and  C_18
REMARK    8  A    between atoms: C_18  and  C_19
REMARK    9  A    between atoms: C_18  and  C_20
REMARK   10  A    between atoms: C_18  and  C_21
REMARK   11  A    between atoms: C_22  and  C_23
REMARK   12  A    between atoms: C_25  and  C_28
REMARK   13  A    between atoms: N_30  and  C_31
REMARK                            x       y       z     vdW  Elec       q    Type
REMARK                         _______ _______ _______ _____ _____    ______ ____
ROOT
ATOM      1  N   UNL     1       0.761  -0.515  -3.220  0.00  0.00    +0.393 N 
ATOM      2  H   UNL     1       0.935  -0.513  -4.214  0.00  0.00    -0.080 HD
ENDROOT
BRANCH   1   4
ATOM      3  C   UNL     1       0.935   1.758  -2.326  0.00  0.00    -0.008 C 
ATOM      4  C   UNL     1       1.668   0.436  -2.562  0.00  0.00    -0.040 C 
BRANCH   4   5
ATOM      5  C   UNL     1       2.868   0.676  -3.442  0.00  0.00    -0.061 A 
ATOM      6  C   UNL     1       2.705   0.825  -4.807  0.00  0.00    +0.002 A 
ATOM      7  C   UNL     1       3.806   1.045  -5.614  0.00  0.00    +0.000 A 
ATOM      8  C   UNL     1       5.069   1.118  -5.056  0.00  0.00    +0.000 A 
ATOM      9  C   UNL     1       5.231   0.970  -3.691  0.00  0.00    +0.000 A 
ATOM     10  C   UNL     1       4.130   0.754  -2.884  0.00  0.00    +0.002 A 
ENDBRANCH   4   5
ENDBRANCH   1   4
BRANCH   1  11
ATOM     11  C   UNL     1      -0.630  -0.122  -2.964  0.00  0.00    -0.041 C 
BRANCH  11  12
ATOM     12  C   UNL     1      -0.967   1.097  -3.784  0.00  0.00    -0.064 A 
ATOM     13  C   UNL     1      -1.617   2.167  -3.197  0.00  0.00    +0.002 A 
ATOM     14  C   UNL     1      -1.925   3.285  -3.949  0.00  0.00    +0.004 A 
ATOM     15  C   UNL     1      -1.583   3.334  -5.288  0.00  0.00    -0.042 A 
ATOM     16  C   UNL     1      -0.932   2.264  -5.874  0.00  0.00    +0.004 A 
ATOM     17  C   UNL     1      -0.620   1.148  -5.121  0.00  0.00    +0.002 A 
BRANCH  15  18
ATOM     18  C   UNL     1      -1.920   4.552  -6.108  0.00  0.00    -0.013 C 
ATOM     19  C   UNL     1      -1.231   5.779  -5.505  0.00  0.00    +0.015 C 
ATOM     20  C   UNL     1      -1.435   4.350  -7.545  0.00  0.00    +0.015 C 
ATOM     21  C   UNL     1      -3.435   4.766  -6.105  0.00  0.00    +0.015 C 
ENDBRANCH  15  18
ENDBRANCH  11  12
ENDBRANCH   1  11
BRANCH   1  22
ATOM     22  C   UNL     1       0.995  -1.864  -2.685  0.00  0.00    +0.020 C 
BRANCH  22  23
ATOM     23  C   UNL     1       2.369  -2.333  -3.089  0.00  0.00    +0.179 A 
ATOM     24  N   UNL     1       3.146  -3.090  -2.373  0.00  0.00    -0.210 NA
ATOM     25  C   UNL     1       4.299  -3.300  -3.065  0.00  0.00    +0.163 A 
ATOM     26  C   UNL     1       4.186  -2.631  -4.244  0.00  0.00    +0.230 A 
ATOM     27  O   UNL     1       2.981  -2.040  -4.245  0.00  0.00    -0.449 OA
BRANCH  25  28
ATOM     28  C   UNL     1       5.453  -4.103  -2.620  0.00  0.00    +0.266 C 
ATOM     29  O   UNL     1       6.460  -4.149  -3.300  0.00  0.00    -0.268 OA
ATOM     30  N   UNL     1       5.392  -4.784  -1.459  0.00  0.00    -0.307 N 
ATOM     31  H   UNL     1       4.564  -4.810  -0.955  0.00  0.00    +0.149 HD
BRANCH  30  32
ATOM     32  C   UNL     1       6.577  -5.487  -0.959  0.00  0.00    +0.073 C 
ATOM     33  C   UNL     1       6.378  -6.897  -0.400  0.00  0.00    +0.024 C 
ATOM     34  C   UNL     1       6.669  -5.732   0.548  0.00  0.00    +0.024 C 
ENDBRANCH  30  32
ENDBRANCH  25  28
ENDBRANCH  22  23
ENDBRANCH   1  22
TORSDOF 9
