REMARK  Name = ZINC49541660
REMARK  3 active torsions:
REMARK  status: ('A' for Active; 'I' for Inactive)
REMARK    1  A    between atoms: C_3  and  S_9
REMARK    2  A    between atoms: C_4  and  N_8
REMARK    3  A    between atoms: S_9  and  N_12
REMARK                            x       y       z     vdW  Elec       q    Type
REMARK                         _______ _______ _______ _____ _____    ______ ____
ROOT
ATOM      1  S   UNL     1       3.888   2.329  -0.023  0.00  0.00    +0.103 S 
ATOM      2  O   UNL     1       4.687   1.775  -1.059  0.00  0.00    -0.146 OA
ATOM      3  O   UNL     1       3.535   3.705   0.014  0.00  0.00    -0.146 OA
ENDROOT
BRANCH   1   4
ATOM      4  N   UNL     1       4.666   2.000   1.401  0.00  0.00    -0.103 NA
ATOM      5  C   UNL     1       5.827   2.552   1.656  0.00  0.00    +0.192 A 
ATOM      6  N   UNL     1       6.562   3.422   0.894  0.00  0.00    -0.336 N 
ATOM      7  C   UNL     1       7.783   3.888   1.364  0.00  0.00    +0.028 A 
ATOM      8  C   UNL     1       8.187   3.453   2.558  0.00  0.00    +0.012 A 
ATOM      9  S   UNL     1       6.873   2.378   3.092  0.00  0.00    -0.053 S 
ATOM     10  C   UNL     1       9.520   4.017   2.959  0.00  0.00    +0.044 C 
ATOM     11  C   UNL     1      10.121   4.559   1.642  0.00  0.00    +0.011 C 
ATOM     12  C   UNL     1       8.850   4.843   0.818  0.00  0.00    +0.054 C 
ATOM     13  H   UNL     1       6.231   3.711   0.029  0.00  0.00    +0.168 HD
ENDBRANCH   1   4
BRANCH   1  16
ATOM     14  C   UNL     1      -0.017   1.381   0.010  0.00  0.00    +0.040 A 
ATOM     15  C   UNL     1       1.170   2.091   0.002  0.00  0.00    +0.034 A 
ATOM     16  C   UNL     1       2.377   1.421  -0.013  0.00  0.00    +0.133 A 
ATOM     17  C   UNL     1       2.401   0.032  -0.021  0.00  0.00    +0.054 A 
ATOM     18  C   UNL     1       1.209  -0.680  -0.013  0.00  0.00    +0.063 A 
ATOM     19  C   UNL     1       0.002  -0.004   0.002  0.00  0.00    +0.125 A 
ATOM     20  F   UNL     1      -1.159  -0.695   0.009  0.00  0.00    -0.205 F 
BRANCH  17  21
ATOM     21  N   UNL     1       3.622  -0.647  -0.036  0.00  0.00    -0.356 N 
ATOM     22  H   UNL     1       4.454  -0.148  -0.042  0.00  0.00    +0.142 HD
ATOM     23  H   UNL     1       3.637  -1.617  -0.042  0.00  0.00    +0.142 HD
ENDBRANCH  17  21
ENDBRANCH   1  16
TORSDOF 3
