REMARK  Name = ZINC40838356
REMARK  5 active torsions:
REMARK  status: ('A' for Active; 'I' for Inactive)
REMARK    1  A    between atoms: C_1  and  C_2
REMARK    2  A    between atoms: N_12  and  C_20
REMARK    3  A    between atoms: C_20  and  C_21
REMARK    4  A    between atoms: C_21  and  C_22
REMARK    5  A    between atoms: N_24  and  C_25
REMARK                            x       y       z     vdW  Elec       q    Type
REMARK                         _______ _______ _______ _____ _____    ______ ____
ROOT
ATOM      1  C   UNL     1      -0.157   1.762   1.009  0.00  0.00    +0.009 C 
ATOM      2  C   UNL     1      -0.330   0.249   0.858  0.00  0.00    +0.003 C 
ATOM      3  C   UNL     1       0.079  -0.173  -0.556  0.00  0.00    +0.006 C 
ATOM      4  C   UNL     1      -0.125  -1.681  -0.719  0.00  0.00    +0.019 C 
ATOM      5  C   UNL     1       0.765  -2.423   0.283  0.00  0.00    +0.106 C 
ATOM      6  N   UNL     1       0.480  -1.918   1.633  0.00  0.00    -0.311 N 
ATOM      7  C   UNL     1       0.557  -0.471   1.878  0.00  0.00    +0.110 C 
ATOM      8  C   UNL     1       0.145  -2.788   2.655  0.00  0.00    +0.188 A 
ATOM      9  C   UNL     1       0.212  -4.245   2.434  0.00  0.00    +0.292 A 
ATOM     10  O   UNL     1       0.562  -4.690   1.357  0.00  0.00    -0.264 OA
ATOM     11  N   UNL     1      -0.119  -5.079   3.444  0.00  0.00    -0.303 N 
ATOM     12  C   UNL     1      -0.512  -4.543   4.657  0.00  0.00    +0.070 A 
ATOM     13  C   UNL     1      -0.858  -5.380   5.713  0.00  0.00    +0.028 A 
ATOM     14  C   UNL     1      -1.248  -4.837   6.919  0.00  0.00    +0.002 A 
ATOM     15  C   UNL     1      -1.299  -3.460   7.088  0.00  0.00    +0.002 A 
ATOM     16  C   UNL     1      -0.964  -2.622   6.064  0.00  0.00    +0.030 A 
ATOM     17  C   UNL     1      -0.563  -3.149   4.828  0.00  0.00    +0.090 A 
ATOM     18  N   UNL     1      -0.227  -2.319   3.819  0.00  0.00    -0.225 NA
ENDROOT
BRANCH  11  19
ATOM     19  C   UNL     1      -0.063  -6.531   3.257  0.00  0.00    +0.135 C 
BRANCH  19  20
ATOM     20  C   UNL     1       1.328  -7.041   3.639  0.00  0.00    +0.118 C 
BRANCH  20  21
ATOM     21  C   UNL     1       1.386  -8.535   3.446  0.00  0.00    +0.219 C 
ATOM     22  O   UNL     1       0.410  -9.133   3.044  0.00  0.00    -0.275 OA
ATOM     23  N   UNL     1       2.522  -9.207   3.721  0.00  0.00    -0.283 N 
ATOM     24  H   UNL     1       3.296  -8.731   4.061  0.00  0.00    +0.155 HD
BRANCH  23  25
ATOM     25  C   UNL     1       2.584 -10.591   3.516  0.00  0.00    +0.069 A 
ATOM     26  C   UNL     1       2.005 -11.153   2.387  0.00  0.00    +0.026 A 
ATOM     27  C   UNL     1       2.069 -12.518   2.187  0.00  0.00    +0.002 A 
ATOM     28  C   UNL     1       2.707 -13.326   3.110  0.00  0.00    +0.003 A 
ATOM     29  C   UNL     1       3.285 -12.771   4.237  0.00  0.00    +0.040 A 
ATOM     30  C   UNL     1       3.230 -11.404   4.440  0.00  0.00    +0.144 A 
ATOM     31  F   UNL     1       3.800 -10.860   5.538  0.00  0.00    -0.204 F 
ENDBRANCH  23  25
ENDBRANCH  20  21
ENDBRANCH  19  20
ENDBRANCH  11  19
TORSDOF 4
