REMARK  Name = ZINC22578372
REMARK  12 active torsions:
REMARK  status: ('A' for Active; 'I' for Inactive)
REMARK    1  A    between atoms: C_1  and  C_2
REMARK    2  A    between atoms: C_2  and  O_3
REMARK    3  A    between atoms: O_3  and  C_4
REMARK    4  A    between atoms: C_4  and  C_6
REMARK    5  A    between atoms: C_7  and  C_29
REMARK    6  A    between atoms: C_12  and  C_14
REMARK    7  A    between atoms: C_16  and  C_26
REMARK    8  A    between atoms: N_22  and  C_23
REMARK    9  A    between atoms: C_23  and  C_24
REMARK   10  A    between atoms: C_23  and  C_25
REMARK   11  A    between atoms: C_26  and  C_27
REMARK   12  A    between atoms: C_26  and  C_28
REMARK                            x       y       z     vdW  Elec       q    Type
REMARK                         _______ _______ _______ _____ _____    ______ ____
ROOT
ATOM      1  C   UNL     1      -2.840  -2.416   0.016  0.00  0.00    +0.120 A 
ATOM      2  C   UNL     1      -3.233  -3.748   0.018  0.00  0.00    +0.062 A 
ATOM      3  N   UNL     1      -4.522  -3.973   0.029  0.00  0.00    -0.229 NA
ATOM      4  C   UNL     1      -5.396  -2.982   0.036  0.00  0.00    +0.166 A 
ATOM      5  S   UNL     1      -4.430  -1.604   0.036  0.00  0.00    -0.045 S 
ATOM      6  N   UNL     1      -6.776  -3.059   0.046  0.00  0.00    -0.261 N 
ATOM      7  C   UNL     1      -7.514  -1.931   0.053  0.00  0.00    +0.250 C 
ATOM      8  O   UNL     1      -6.966  -0.846   0.049  0.00  0.00    -0.270 OA
ATOM      9  C   UNL     1      -2.230  -4.872   0.010  0.00  0.00    +0.067 C 
ATOM     10  H   UNL     1      -7.214  -3.925   0.050  0.00  0.00    +0.157 HD
ENDROOT
BRANCH   7  11
ATOM     11  C   UNL     1      -8.990  -2.014   0.064  0.00  0.00    +0.051 A 
ATOM     12  C   UNL     1      -9.642  -3.245   0.075  0.00  0.00    +0.037 A 
ATOM     13  C   UNL     1     -11.028  -3.281   0.085  0.00  0.00    +0.047 A 
ATOM     14  N   UNL     1     -11.746  -2.180   0.085  0.00  0.00    -0.232 NA
ATOM     15  C   UNL     1     -11.189  -0.978   0.076  0.00  0.00    +0.159 A 
ATOM     16  C   UNL     1      -9.786  -0.846   0.071  0.00  0.00    +0.051 A 
ATOM     17  C   UNL     1      -9.497   0.535   0.069  0.00  0.00    +0.145 A 
ATOM     18  N   UNL     1     -10.621   1.194   0.078  0.00  0.00    -0.177 NA
ATOM     19  N   UNL     1     -11.695   0.296   0.073  0.00  0.00    -0.244 N 
BRANCH  19  20
ATOM     20  C   UNL     1     -13.115   0.656   0.081  0.00  0.00    +0.103 C 
ATOM     21  C   UNL     1     -13.424   1.487   1.328  0.00  0.00    +0.032 C 
ATOM     22  C   UNL     1     -13.441   1.475  -1.171  0.00  0.00    +0.032 C 
ENDBRANCH  19  20
BRANCH  13  23
ATOM     23  C   UNL     1     -11.728  -4.615   0.096  0.00  0.00    +0.032 C 
ATOM     24  C   UNL     1     -11.864  -5.131  -1.338  0.00  0.00    +0.014 C 
ATOM     25  C   UNL     1     -10.913  -5.612   0.922  0.00  0.00    +0.014 C 
ENDBRANCH  13  23
ENDBRANCH   7  11
BRANCH   1  26
ATOM     26  C   UNL     1      -1.497  -1.839   0.006  0.00  0.00    +0.348 C 
ATOM     27  O   UNL     1      -0.522  -2.567  -0.007  0.00  0.00    -0.244 OA
BRANCH  26  28
ATOM     28  O   UNL     1      -1.339  -0.499   0.012  0.00  0.00    -0.461 OA
BRANCH  28  30
ATOM     29  C   UNL     1      -0.019   1.526   0.010  0.00  0.00    +0.048 C 
ATOM     30  C   UNL     1       0.002  -0.004   0.002  0.00  0.00    +0.229 C 
ENDBRANCH  28  30
ENDBRANCH  26  28
ENDBRANCH   1  26
TORSDOF 6
