REMARK  Name = ZINC08426310
REMARK  6 active torsions:
REMARK  status: ('A' for Active; 'I' for Inactive)
REMARK    1  A    between atoms: C_1  and  C_2
REMARK    2  A    between atoms: C_5  and  N_9
REMARK    3  A    between atoms: C_7  and  C_8
REMARK    4  A    between atoms: N_21  and  C_24
REMARK    5  A    between atoms: C_24  and  N_66
REMARK    6  A    between atoms: N_27  and  C_30
REMARK                            x       y       z     vdW  Elec       q    Type
REMARK                         _______ _______ _______ _____ _____    ______ ____
ROOT
ATOM      1  N   UNL     1       2.355   3.889   0.001  0.00  0.00    -0.243 N 
ATOM      2  C   UNL     1       2.350   5.218  -0.092  0.00  0.00    +0.231 C 
ATOM      3  O   UNL     1       1.312   5.838  -0.184  0.00  0.00    -0.274 OA
ATOM      4  C   UNL     1       3.696   5.928  -0.080  0.00  0.00    +0.168 C 
ATOM      5  S   UNL     1       4.831   4.503  -0.385  0.00  0.00    -0.111 S 
ATOM      6  C   UNL     1       3.636   3.196   0.101  0.00  0.00    +0.192 C 
ATOM      7  C   UNL     1       3.929   2.681   1.475  0.00  0.00    +0.017 A 
ATOM      8  C   UNL     1       3.990   3.264   2.721  0.00  0.00    +0.009 A 
ATOM      9  C   UNL     1       4.293   2.497   3.832  0.00  0.00    +0.000 A 
ATOM     10  C   UNL     1       4.535   1.142   3.688  0.00  0.00    +0.002 A 
ATOM     11  C   UNL     1       4.476   0.553   2.442  0.00  0.00    +0.024 A 
ATOM     12  C   UNL     1       4.172   1.317   1.319  0.00  0.00    +0.041 A 
ATOM     13  N   UNL     1       4.056   0.957  -0.026  0.00  0.00    -0.285 N 
ATOM     14  C   UNL     1       3.742   2.010  -0.809  0.00  0.00    +0.257 C 
ATOM     15  O   UNL     1       3.578   1.999  -2.011  0.00  0.00    -0.272 OA
ENDROOT
BRANCH   1  20
ATOM     16  C   UNL     1      -2.508   0.968   0.029  0.00  0.00    +0.044 C 
ATOM     17  C   UNL     1      -1.218   1.746   0.022  0.00  0.00    -0.047 A 
ATOM     18  C   UNL     1      -0.621   2.104   1.217  0.00  0.00    +0.005 A 
ATOM     19  C   UNL     1       0.565   2.813   1.213  0.00  0.00    +0.024 A 
ATOM     20  C   UNL     1       1.155   3.171   0.008  0.00  0.00    +0.039 A 
ATOM     21  C   UNL     1       0.550   2.814  -1.190  0.00  0.00    +0.027 A 
ATOM     22  C   UNL     1      -0.636   2.106  -1.180  0.00  0.00    -0.046 A 
ATOM     23  C   UNL     1      -1.293   1.719  -2.480  0.00  0.00    +0.044 C 
ENDBRANCH   1  20
BRANCH  13  24
ATOM     24  C   UNL     1       4.251  -0.406  -0.528  0.00  0.00    +0.038 C 
BRANCH  24  30
ATOM     25  C   UNL     1       2.674  -1.637   0.836  0.00  0.00    -0.057 C 
ATOM     26  C   UNL     1       1.298  -2.307   0.832  0.00  0.00    +0.086 C 
ATOM     27  N   UNL     1       1.288  -3.393  -0.158  0.00  0.00    -0.333 N 
ATOM     28  C   UNL     1       1.584  -2.880  -1.502  0.00  0.00    +0.086 C 
ATOM     29  C   UNL     1       2.960  -2.210  -1.498  0.00  0.00    -0.057 C 
ATOM     30  N   UNL     1       2.949  -1.106  -0.516  0.00  0.00    +0.392 N 
ATOM     31  H   UNL     1       2.210  -0.440  -0.770  0.00  0.00    -0.079 HD
BRANCH  27  32
ATOM     32  C   UNL     1       0.069  -4.075  -0.140  0.00  0.00    +0.030 A 
ATOM     33  C   UNL     1      -0.684  -4.186  -1.301  0.00  0.00    +0.023 A 
ATOM     34  C   UNL     1      -1.886  -4.866  -1.281  0.00  0.00    +0.002 A 
ATOM     35  C   UNL     1      -2.346  -5.426  -0.103  0.00  0.00    +0.000 A 
ATOM     36  C   UNL     1      -1.601  -5.314   1.056  0.00  0.00    +0.002 A 
ATOM     37  C   UNL     1      -0.395  -4.640   1.042  0.00  0.00    +0.023 A 
ENDBRANCH  27  32
ENDBRANCH  24  30
ENDBRANCH  13  24
TORSDOF 4
