REMARK  Name = ZINC39464512
REMARK  8 active torsions:
REMARK  status: ('A' for Active; 'I' for Inactive)
REMARK    1  A    between atoms: C_1  and  C_2
REMARK    2  A    between atoms: C_2  and  O_3
REMARK    3  A    between atoms: O_3  and  C_4
REMARK    4  A    between atoms: C_9  and  S_10
REMARK    5  A    between atoms: S_10  and  O_13
REMARK    6  A    between atoms: O_13  and  C_14
REMARK    7  A    between atoms: P_24  and  C_30
REMARK    8  A    between atoms: C_35  and  O_36
REMARK                            x       y       z     vdW  Elec       q    Type
REMARK                         _______ _______ _______ _____ _____    ______ ____
ROOT
ATOM      1  C   UNL     1      -1.822  -1.731   0.870  0.00  0.00    +0.149 A 
ATOM      2  C   UNL     1      -0.804  -2.549   1.334  0.00  0.00    +0.051 A 
ATOM      3  C   UNL     1      -1.073  -3.857   1.703  0.00  0.00    -0.038 A 
ATOM      4  C   UNL     1      -2.356  -4.351   1.609  0.00  0.00    -0.021 A 
ATOM      5  C   UNL     1      -3.376  -3.532   1.144  0.00  0.00    +0.040 A 
ATOM      6  C   UNL     1      -3.115  -2.227   0.781  0.00  0.00    +0.170 A 
ATOM      7  C   UNL     1      -2.699  -5.766   1.995  0.00  0.00    +0.129 C 
ATOM      8  C   UNL     1      -4.015  -5.765   2.779  0.00  0.00    +0.194 C 
ATOM      9  O   UNL     1      -4.397  -7.129   3.042  0.00  0.00    -0.311 OA
ATOM     10  P   UNL     1      -3.287  -8.129   3.686  0.00  0.00    +0.318 P 
ATOM     11  O   UNL     1      -3.206  -7.928   5.150  0.00  0.00    -0.266 OA
ATOM     12  N   UNL     1      -1.853  -7.721   2.972  0.00  0.00    -0.175 NA
ATOM     13  N   UNL     1      -1.632  -6.370   2.792  0.00  0.00    -0.225 NA
ATOM     14  C   UNL     1      -0.323  -6.176   2.151  0.00  0.00    +0.108 C 
ATOM     15  C   UNL     1       0.064  -4.710   2.205  0.00  0.00    +0.052 C 
ATOM     16  H   UNL     1      -1.206  -8.393   2.706  0.00  0.00    +0.151 HD
ENDROOT
BRANCH  10  17
ATOM     17  C   UNL     1      -3.707  -9.854   3.313  0.00  0.00    +0.094 A 
ATOM     18  C   UNL     1      -3.222 -10.452   2.166  0.00  0.00    +0.018 A 
ATOM     19  C   UNL     1      -3.542 -11.766   1.881  0.00  0.00    +0.001 A 
ATOM     20  C   UNL     1      -4.348 -12.486   2.744  0.00  0.00    +0.004 A 
ATOM     21  C   UNL     1      -4.835 -11.894   3.892  0.00  0.00    +0.046 A 
ATOM     22  C   UNL     1      -4.511 -10.576   4.183  0.00  0.00    +0.131 A 
BRANCH  22  23
ATOM     23  O   UNL     1      -4.984  -9.993   5.315  0.00  0.00    -0.506 OA
ATOM     24  H   UNL     1      -5.839  -9.554   5.204  0.00  0.00    +0.292 HD
ENDBRANCH  22  23
ENDBRANCH  10  17
BRANCH   6  25
ATOM     25  S   UNL     1      -4.419  -1.194   0.200  0.00  0.00    +0.154 S 
ATOM     26  O   UNL     1      -5.461  -1.276   1.162  0.00  0.00    -0.131 OA
ATOM     27  O   UNL     1      -3.823   0.040  -0.176  0.00  0.00    -0.131 OA
BRANCH  25  28
ATOM     28  O   UNL     1      -4.956  -1.824  -1.078  0.00  0.00    -0.342 OA
BRANCH  28  29
ATOM     29  C   UNL     1      -5.721  -2.928  -0.870  0.00  0.00    +0.157 A 
ATOM     30  C   UNL     1      -5.162  -4.193  -0.987  0.00  0.00    +0.048 A 
ATOM     31  C   UNL     1      -5.942  -5.313  -0.775  0.00  0.00    +0.004 A 
ATOM     32  C   UNL     1      -7.278  -5.175  -0.448  0.00  0.00    +0.000 A 
ATOM     33  C   UNL     1      -7.838  -3.916  -0.332  0.00  0.00    +0.004 A 
ATOM     34  C   UNL     1      -7.061  -2.792  -0.536  0.00  0.00    +0.048 A 
ENDBRANCH  28  29
ENDBRANCH  25  28
ENDBRANCH   6  25
BRANCH   1  35
ATOM     35  O   UNL     1      -1.557  -0.448   0.508  0.00  0.00    -0.490 OA
BRANCH  35  37
ATOM     36  C   UNL     1      -0.097   1.452   0.200  0.00  0.00    +0.048 C 
ATOM     37  C   UNL     1      -0.188  -0.040   0.526  0.00  0.00    +0.226 C 
ENDBRANCH  35  37
ENDBRANCH   1  35
TORSDOF 7
