REMARK  Name = ZINC16490963
REMARK  6 active torsions:
REMARK  status: ('A' for Active; 'I' for Inactive)
REMARK    1  A    between atoms: C_4  and  P_7
REMARK    2  A    between atoms: P_7  and  C_9
REMARK    3  A    between atoms: P_7  and  N_24
REMARK    4  A    between atoms: C_9  and  C_11
REMARK    5  A    between atoms: C_9  and  N_59
REMARK    6  A    between atoms: C_16  and  O_17
REMARK                            x       y       z     vdW  Elec       q    Type
REMARK                         _______ _______ _______ _____ _____    ______ ____
ROOT
ATOM      1  C   UNL     1      -0.745   1.776   3.942  0.00  0.00    +0.048 C 
ENDROOT
BRANCH   1   2
ATOM      2  C   UNL     1      -2.149   1.258   3.763  0.00  0.00    -0.010 A 
ATOM      3  C   UNL     1      -2.488   0.004   4.234  0.00  0.00    +0.021 A 
ATOM      4  C   UNL     1      -3.778  -0.469   4.075  0.00  0.00    +0.018 A 
ATOM      5  C   UNL     1      -4.728   0.307   3.434  0.00  0.00    +0.019 A 
ATOM      6  C   UNL     1      -4.391   1.558   2.957  0.00  0.00    +0.047 A 
ATOM      7  C   UNL     1      -3.099   2.038   3.121  0.00  0.00    +0.119 A 
ATOM      8 BR   UNL     1      -4.242  -2.182   4.727  0.00  0.00    -0.050 Br
BRANCH   7   9
ATOM      9  O   UNL     1      -2.766   3.269   2.652  0.00  0.00    -0.507 OA
ATOM     10  H   UNL     1      -2.526   3.282   1.716  0.00  0.00    +0.292 HD
ENDBRANCH   7   9
ENDBRANCH   1   2
BRANCH   1  16
ATOM     11  C   UNL     1      -1.018   1.783   6.347  0.00  0.00    -0.077 C 
ATOM     12  C   UNL     1      -0.517   1.151   7.648  0.00  0.00    -0.019 C 
ATOM     13  C   UNL     1       0.953   1.524   7.858  0.00  0.00    -0.004 C 
ATOM     14  C   UNL     1       1.768   1.052   6.651  0.00  0.00    -0.019 C 
ATOM     15  C   UNL     1       1.201   1.686   5.379  0.00  0.00    -0.077 C 
ATOM     16  N   UNL     1      -0.208   1.269   5.222  0.00  0.00    +0.390 N 
ATOM     17  H   UNL     1      -0.254   0.243   5.220  0.00  0.00    -0.080 HD
ENDBRANCH   1  16
BRANCH   1  18
ATOM     18  P   UNL     1       0.304   1.171   2.579  0.00  0.00    +0.171 P 
ATOM     19  O   UNL     1       1.643   1.795   2.673  0.00  0.00    -0.301 OA
BRANCH  18  23
ATOM     20  C   UNL     1       0.717  -3.380   2.874  0.00  0.00    +0.000 A 
ATOM     21  C   UNL     1      -0.397  -2.824   2.272  0.00  0.00    +0.001 A 
ATOM     22  C   UNL     1      -0.521  -1.450   2.182  0.00  0.00    +0.012 A 
ATOM     23  C   UNL     1       0.467  -0.632   2.696  0.00  0.00    +0.025 A 
ATOM     24  C   UNL     1       1.583  -1.188   3.294  0.00  0.00    +0.012 A 
ATOM     25  C   UNL     1       1.705  -2.561   3.387  0.00  0.00    +0.001 A 
ENDBRANCH  18  23
BRANCH  18  26
ATOM     26  N   UNL     1      -0.401   1.576   1.106  0.00  0.00    -0.250 NA
ATOM     27  C   UNL     1       0.184   0.794   0.009  0.00  0.00    +0.092 C 
ATOM     28  C   UNL     1      -0.577   1.081  -1.287  0.00  0.00    +0.016 C 
ATOM     29  C   UNL     1      -0.495   2.577  -1.601  0.00  0.00    +0.002 C 
ATOM     30  C   UNL     1      -1.067   3.371  -0.423  0.00  0.00    +0.016 C 
ATOM     31  C   UNL     1      -0.291   3.018   0.848  0.00  0.00    +0.092 C 
ENDBRANCH  18  26
ENDBRANCH   1  18
TORSDOF 6
