REMARK  Name = ZINC20243143
REMARK  6 active torsions:
REMARK  status: ('A' for Active; 'I' for Inactive)
REMARK    1  A    between atoms: C_1  and  C_2
REMARK    2  A    between atoms: C_7  and  N_12
REMARK    3  A    between atoms: C_9  and  C_11
REMARK    4  A    between atoms: C_13  and  C_15
REMARK    5  A    between atoms: N_21  and  C_33
REMARK    6  A    between atoms: C_33  and  C_34
REMARK                            x       y       z     vdW  Elec       q    Type
REMARK                         _______ _______ _______ _____ _____    ______ ____
ROOT
ATOM      1  C   UNL     1      -0.198   4.326   0.001  0.00  0.00    +0.039 A 
ATOM      2  C   UNL     1      -1.344   3.529   0.003  0.00  0.00    +0.015 A 
ATOM      3  C   UNL     1      -1.220   2.155  -0.014  0.00  0.00    +0.030 A 
ATOM      4  C   UNL     1       0.030   1.566  -0.022  0.00  0.00    +0.115 A 
ATOM      5  C   UNL     1       1.180   2.343  -0.012  0.00  0.00    +0.063 A 
ATOM      6  C   UNL     1       1.061   3.731  -0.007  0.00  0.00    +0.038 A 
ATOM      7  N   UNL     1       2.444   1.781   0.003  0.00  0.00    -0.261 N 
ATOM      8  C   UNL     1       2.960   0.799  -0.685  0.00  0.00    +0.253 C 
ATOM      9  O   UNL     1       4.130   0.563  -0.452  0.00  0.00    -0.270 OA
ATOM     10  C   UNL     1       2.341  -0.062  -1.694  0.00  0.00    +0.062 A 
ATOM     11  C   UNL     1       3.045  -0.376  -2.864  0.00  0.00    +0.015 A 
ATOM     12  C   UNL     1       2.477  -1.197  -3.813  0.00  0.00    +0.001 A 
ATOM     13  C   UNL     1       1.210  -1.719  -3.620  0.00  0.00    +0.002 A 
ATOM     14  C   UNL     1       0.504  -1.413  -2.469  0.00  0.00    +0.028 A 
ATOM     15  C   UNL     1       1.061  -0.591  -1.516  0.00  0.00    +0.106 A 
ATOM     16  S   UNL     1       0.162  -0.194  -0.051  0.00  0.00    +0.028 S 
ATOM     17  O   UNL     1       0.985  -0.561   1.048  0.00  0.00    -0.164 OA
ATOM     18  O   UNL     1      -1.154  -0.700  -0.223  0.00  0.00    -0.164 OA
ENDROOT
BRANCH   1  20
ATOM     19  N   UNL     1      -1.539   6.374   0.017  0.00  0.00    -0.308 N 
ATOM     20  C   UNL     1      -0.320   5.799   0.009  0.00  0.00    +0.244 C 
ATOM     21  O   UNL     1       0.679   6.492   0.008  0.00  0.00    -0.270 OA
ATOM     22  H   UNL     1      -2.442   5.747   0.018  0.00  0.00    +0.149 HD
BRANCH  19  28
ATOM     23  C   UNL     1      -5.483   8.027   0.434  0.00  0.00    +0.008 C 
ATOM     24  C   UNL     1      -4.141   7.630  -0.184  0.00  0.00    -0.009 C 
ATOM     25  C   UNL     1      -4.064   8.155  -1.619  0.00  0.00    +0.003 C 
ATOM     26  C   UNL     1      -2.722   7.758  -2.236  0.00  0.00    +0.002 C 
ATOM     27  C   UNL     1      -1.583   8.360  -1.410  0.00  0.00    +0.022 C 
ATOM     28  C   UNL     1      -1.660   7.834   0.024  0.00  0.00    +0.076 C 
ATOM     29  C   UNL     1      -3.002   8.232   0.642  0.00  0.00    +0.009 C 
ATOM     30  C   UNL     1      -3.079   7.706   2.077  0.00  0.00    +0.009 C 
ENDBRANCH  19  28
ENDBRANCH   1  20
BRANCH   7  31
ATOM     31  C   UNL     1       3.367   2.398   0.959  0.00  0.00    +0.152 C 
BRANCH  31  32
ATOM     32  C   UNL     1       3.149   1.800   2.325  0.00  0.00    +0.005 A 
ATOM     33  C   UNL     1       2.363   2.460   3.252  0.00  0.00    +0.008 A 
ATOM     34  C   UNL     1       2.159   1.908   4.503  0.00  0.00    +0.000 A 
ATOM     35  C   UNL     1       2.749   0.703   4.833  0.00  0.00    +0.003 A 
ATOM     36  C   UNL     1       3.540   0.044   3.910  0.00  0.00    +0.038 A 
ATOM     37  C   UNL     1       3.741   0.593   2.655  0.00  0.00    +0.128 A 
ATOM     38  F   UNL     1       4.514  -0.050   1.752  0.00  0.00    -0.205 F 
ENDBRANCH  31  32
ENDBRANCH   7  31
TORSDOF 4
