REMARK  Name = ZINC39897309
REMARK  11 active torsions:
REMARK  status: ('A' for Active; 'I' for Inactive)
REMARK    1  A    between atoms: C_1  and  C_2
REMARK    2  A    between atoms: C_5  and  N_8
REMARK    3  A    between atoms: C_9  and  C_11
REMARK    4  A    between atoms: C_11  and  C_36
REMARK    5  A    between atoms: N_13  and  C_27
REMARK    6  A    between atoms: C_16  and  C_19
REMARK    7  A    between atoms: C_19  and  C_20
REMARK    8  A    between atoms: C_25  and  C_26
REMARK    9  A    between atoms: C_30  and  C_33
REMARK   10  A    between atoms: C_33  and  C_34
REMARK   11  A    between atoms: C_33  and  C_35
REMARK                            x       y       z     vdW  Elec       q    Type
REMARK                         _______ _______ _______ _____ _____    ______ ____
ROOT
ATOM      1  C   UNL     1      -1.375  -6.673   1.150  0.00  0.00    +0.142 C 
ATOM      2  C   UNL     1      -0.591  -7.097   2.225  0.00  0.00    +0.098 C 
ATOM      3  N   UNL     1       0.242  -8.187   2.289  0.00  0.00    -0.232 N 
ATOM      4  C   UNL     1       0.939  -8.488   3.371  0.00  0.00    +0.238 C 
ATOM      5  O   UNL     1       1.672  -9.453   3.418  0.00  0.00    -0.274 OA
ATOM      6  C   UNL     1       0.763  -7.548   4.553  0.00  0.00    +0.143 C 
ATOM      7  S   UNL     1      -0.430  -6.343   3.837  0.00  0.00    -0.095 S 
ENDROOT
BRANCH   3   8
ATOM      8  C   UNL     1       0.358  -9.013   1.163  0.00  0.00    +0.042 A 
ATOM      9  C   UNL     1      -0.417 -10.161   1.060  0.00  0.00    +0.024 A 
ATOM     10  C   UNL     1      -0.300 -10.973  -0.051  0.00  0.00    +0.006 A 
ATOM     11  C   UNL     1       0.586 -10.643  -1.061  0.00  0.00    -0.045 A 
ATOM     12  C   UNL     1       1.358  -9.501  -0.961  0.00  0.00    +0.006 A 
ATOM     13  C   UNL     1       1.243  -8.682   0.145  0.00  0.00    +0.024 A 
BRANCH  11  14
ATOM     14  C   UNL     1       0.710 -11.532  -2.271  0.00  0.00    +0.013 C 
ATOM     15  C   UNL     1       0.356 -10.734  -3.528  0.00  0.00    +0.012 C 
ATOM     16  C   UNL     1       2.148 -12.045  -2.382  0.00  0.00    +0.012 C 
ENDBRANCH  11  14
ENDBRANCH   3   8
BRANCH   1  18
ATOM     17  N   UNL     1      -3.013  -5.107   0.262  0.00  0.00    -0.281 N 
ATOM     18  C   UNL     1      -2.256  -5.516   1.299  0.00  0.00    +0.261 C 
ATOM     19  O   UNL     1      -2.307  -4.922   2.361  0.00  0.00    -0.269 OA
ATOM     20  H   UNL     1      -3.037  -5.629  -0.556  0.00  0.00    +0.155 HD
BRANCH  17  25
ATOM     21  C   UNL     1      -6.058  -0.340   0.678  0.00  0.00    +0.044 C 
ATOM     22  C   UNL     1      -5.249  -1.606   0.567  0.00  0.00    -0.050 A 
ATOM     23  C   UNL     1      -5.715  -2.658  -0.201  0.00  0.00    +0.005 A 
ATOM     24  C   UNL     1      -4.976  -3.820  -0.304  0.00  0.00    +0.023 A 
ATOM     25  C   UNL     1      -3.764  -3.932   0.364  0.00  0.00    +0.034 A 
ATOM     26  C   UNL     1      -3.298  -2.874   1.134  0.00  0.00    +0.023 A 
ATOM     27  C   UNL     1      -4.040  -1.712   1.229  0.00  0.00    +0.005 A 
ENDBRANCH  17  25
ENDBRANCH   1  18
BRANCH   1  28
ATOM     28  C   UNL     1      -1.315  -7.372  -0.098  0.00  0.00    +0.107 C 
ATOM     29  N   UNL     1      -1.268  -7.926  -1.089  0.00  0.00    -0.191 NA
ENDBRANCH   1  28
BRANCH   6  30
ATOM     30  C   UNL     1       0.168  -8.278   5.759  0.00  0.00    +0.059 C 
BRANCH  30  31
ATOM     31  C   UNL     1       0.092  -7.333   6.931  0.00  0.00    -0.043 A 
ATOM     32  C   UNL     1      -1.112  -6.739   7.263  0.00  0.00    +0.004 A 
ATOM     33  C   UNL     1      -1.181  -5.873   8.337  0.00  0.00    +0.000 A 
ATOM     34  C   UNL     1      -0.048  -5.600   9.081  0.00  0.00    +0.000 A 
ATOM     35  C   UNL     1       1.155  -6.195   8.749  0.00  0.00    +0.003 A 
ATOM     36  C   UNL     1       1.224  -7.065   7.677  0.00  0.00    -0.047 A 
ATOM     37  C   UNL     1       2.534  -7.718   7.319  0.00  0.00    +0.044 C 
ENDBRANCH  30  31
ENDBRANCH   6  30
TORSDOF 7
