REMARK  Name = ZINC45513113
REMARK  6 active torsions:
REMARK  status: ('A' for Active; 'I' for Inactive)
REMARK    1  A    between atoms: C_1  and  C_2
REMARK    2  A    between atoms: C_2  and  C_3
REMARK    3  A    between atoms: C_8  and  N_9
REMARK    4  A    between atoms: C_12  and  C_17
REMARK    5  A    between atoms: C_17  and  N_18
REMARK    6  A    between atoms: C_21  and  N_24
REMARK                            x       y       z     vdW  Elec       q    Type
REMARK                         _______ _______ _______ _____ _____    ______ ____
ROOT
ATOM      1  N   UNL     1       2.833  -0.268  -0.114  0.00  0.00    -0.283 N 
ATOM      2  C   UNL     1       4.198  -0.480  -0.092  0.00  0.00    +0.224 A 
ATOM      3  N   UNL     1       4.888  -0.259   1.025  0.00  0.00    -0.198 NA
ATOM      4  C   UNL     1       6.194  -0.461   1.047  0.00  0.00    +0.150 A 
ATOM      5  N   UNL     1       6.820  -0.882  -0.039  0.00  0.00    -0.198 NA
ATOM      6  C   UNL     1       6.136  -1.104  -1.159  0.00  0.00    +0.217 A 
ATOM      7  N   UNL     1       4.822  -0.908  -1.183  0.00  0.00    -0.181 NA
ATOM      8  N   UNL     1       6.790  -1.543  -2.292  0.00  0.00    -0.327 N 
ATOM      9  H   UNL     1       2.364  -0.042   0.705  0.00  0.00    +0.155 HD
ATOM     10  H   UNL     1       7.748  -1.690  -2.272  0.00  0.00    +0.145 HD
ATOM     11  H   UNL     1       6.291  -1.705  -3.108  0.00  0.00    +0.145 HD
ENDROOT
BRANCH   1  17
ATOM     12  C   UNL     1       0.796  -0.778  -1.307  0.00  0.00    -0.026 A 
ATOM     13  C   UNL     1       0.101  -0.882  -2.495  0.00  0.00    +0.005 A 
ATOM     14  C   UNL     1       0.729  -0.596  -3.693  0.00  0.00    +0.000 A 
ATOM     15  C   UNL     1       2.056  -0.205  -3.706  0.00  0.00    +0.002 A 
ATOM     16  C   UNL     1       2.757  -0.100  -2.521  0.00  0.00    +0.023 A 
ATOM     17  C   UNL     1       2.127  -0.381  -1.316  0.00  0.00    +0.037 A 
BRANCH  12  19
ATOM     18  C   UNL     1      -0.425   0.206   0.614  0.00  0.00    +0.009 C 
ATOM     19  C   UNL     1       0.111  -1.089  -0.002  0.00  0.00    +0.033 C 
ENDBRANCH  12  19
ENDBRANCH   1  17
BRANCH   4  20
ATOM     20  C   UNL     1       6.972  -0.210   2.313  0.00  0.00    +0.160 C 
BRANCH  20  21
ATOM     21  N   UNL     1       7.016  -1.442   3.113  0.00  0.00    -0.295 NA
ATOM     22  C   UNL     1       7.783  -2.489   2.426  0.00  0.00    +0.087 C 
ATOM     23  C   UNL     1       7.686  -3.796   3.216  0.00  0.00    +0.040 C 
ATOM     24  C   UNL     1       8.236  -3.576   4.628  0.00  0.00    +0.095 C 
ATOM     25  C   UNL     1       7.451  -2.448   5.303  0.00  0.00    +0.040 C 
ATOM     26  C   UNL     1       7.556  -1.180   4.453  0.00  0.00    +0.087 C 
BRANCH  24  27
ATOM     27  N   UNL     1       8.092  -4.808   5.407  0.00  0.00    -0.289 N 
ATOM     28  C   UNL     1       9.130  -5.529   5.992  0.00  0.00    +0.070 A 
ATOM     29  C   UNL     1      10.505  -5.352   6.035  0.00  0.00    +0.028 A 
ATOM     30  C   UNL     1      11.293  -6.261   6.713  0.00  0.00    +0.002 A 
ATOM     31  C   UNL     1      10.717  -7.348   7.348  0.00  0.00    +0.002 A 
ATOM     32  C   UNL     1       9.349  -7.533   7.310  0.00  0.00    +0.028 A 
ATOM     33  C   UNL     1       8.549  -6.625   6.633  0.00  0.00    +0.067 A 
ATOM     34  N   UNL     1       7.176  -6.536   6.418  0.00  0.00    -0.306 N 
ATOM     35  H   UNL     1       6.508  -7.160   6.744  0.00  0.00    +0.170 HD
ATOM     36  C   UNL     1       6.932  -5.433   5.684  0.00  0.00    +0.328 A 
ATOM     37  O   UNL     1       5.831  -5.060   5.324  0.00  0.00    -0.247 OA
ENDBRANCH  24  27
ENDBRANCH  20  21
ENDBRANCH   4  20
TORSDOF 5
