REMARK  Name = ZINC03204710
REMARK  5 active torsions:
REMARK  status: ('A' for Active; 'I' for Inactive)
REMARK    1  A    between atoms: C_6  and  C_7
REMARK    2  A    between atoms: N_8  and  N_9
REMARK    3  A    between atoms: C_10  and  S_12
REMARK    4  A    between atoms: S_12  and  C_13
REMARK    5  A    between atoms: N_18  and  C_21
REMARK                            x       y       z     vdW  Elec       q    Type
REMARK                         _______ _______ _______ _____ _____    ______ ____
ROOT
ATOM      1  N   UNL     1      -0.364   0.890   4.035  0.00  0.00    -0.217 N 
ATOM      2  C   UNL     1      -0.011   0.747   2.711  0.00  0.00    +0.146 C 
ATOM      3  N   UNL     1       0.972  -0.044   2.380  0.00  0.00    -0.380 N 
ATOM      4  H   UNL     1      -1.192   1.557   4.314  0.00  0.00    +0.176 HD
ATOM      5  H   UNL     1       1.254  -0.158   1.323  0.00  0.00    +0.158 HD
ATOM      6  H   UNL     1       1.518  -0.598   3.158  0.00  0.00    +0.158 HD
ENDROOT
BRANCH   1   8
ATOM      7  C   UNL     1      -0.001   0.319   6.272  0.00  0.00    +0.138 C 
ATOM      8  N   UNL     1       0.332   0.185   5.025  0.00  0.00    -0.188 NA
BRANCH   7  14
ATOM      9  C   UNL     1       1.781  -1.276   6.963  0.00  0.00    +0.010 A 
ATOM     10  C   UNL     1       2.465  -1.964   7.944  0.00  0.00    +0.016 A 
ATOM     11  C   UNL     1       2.107  -1.818   9.273  0.00  0.00    +0.018 A 
ATOM     12  C   UNL     1       1.065  -0.979   9.628  0.00  0.00    +0.016 A 
ATOM     13  C   UNL     1       0.376  -0.281   8.658  0.00  0.00    +0.010 A 
ATOM     14  C   UNL     1       0.732  -0.423   7.315  0.00  0.00    -0.005 A 
ATOM     15 BR   UNL     1       3.046  -2.771  10.610  0.00  0.00    -0.050 Br
ENDBRANCH   7  14
ENDBRANCH   1   8
BRANCH   2  16
ATOM     16  S   UNL     1      -0.886   1.634   1.465  0.00  0.00    -0.078 S 
BRANCH  16  17
ATOM     17  C   UNL     1      -0.003   1.061  -0.007  0.00  0.00    +0.149 C 
ATOM     18  C   UNL     1      -0.632   1.652  -1.286  0.00  0.00    +0.120 C 
ATOM     19  C   UNL     1       0.492   2.465  -1.891  0.00  0.00    +0.228 C 
ATOM     20  O   UNL     1       0.422   3.103  -2.919  0.00  0.00    -0.275 OA
ATOM     21  N   UNL     1       1.576   2.366  -1.111  0.00  0.00    -0.209 N 
ATOM     22  C   UNL     1       1.410   1.602  -0.025  0.00  0.00    +0.240 C 
ATOM     23  O   UNL     1       2.258   1.378   0.812  0.00  0.00    -0.274 OA
BRANCH  21  24
ATOM     24  C   UNL     1       2.785   3.011  -1.408  0.00  0.00    +0.044 A 
ATOM     25  C   UNL     1       3.239   4.044  -0.600  0.00  0.00    +0.025 A 
ATOM     26  C   UNL     1       4.433   4.674  -0.891  0.00  0.00    +0.017 A 
ATOM     27  C   UNL     1       5.172   4.283  -1.994  0.00  0.00    +0.018 A 
ATOM     28  C   UNL     1       4.718   3.257  -2.804  0.00  0.00    +0.017 A 
ATOM     29  C   UNL     1       3.528   2.621  -2.514  0.00  0.00    +0.025 A 
ATOM     30 BR   UNL     1       6.803   5.152  -2.394  0.00  0.00    -0.050 Br
ENDBRANCH  21  24
ENDBRANCH  16  17
ENDBRANCH   2  16
TORSDOF 5
