REMARK  Name = ZINC35415642
REMARK  12 active torsions:
REMARK  status: ('A' for Active; 'I' for Inactive)
REMARK    1  A    between atoms: C_1  and  C_2
REMARK    2  A    between atoms: C_2  and  C_3
REMARK    3  A    between atoms: N_9  and  C_10
REMARK    4  A    between atoms: C_10  and  C_11
REMARK    5  A    between atoms: N_13  and  C_14
REMARK    6  A    between atoms: C_15  and  C_28
REMARK    7  A    between atoms: C_20  and  C_24
REMARK    8  A    between atoms: C_24  and  C_25
REMARK    9  A    between atoms: C_24  and  C_26
REMARK   10  A    between atoms: C_24  and  C_27
REMARK   11  A    between atoms: N_30  and  C_31
REMARK   12  A    between atoms: C_35  and  N_37
REMARK                            x       y       z     vdW  Elec       q    Type
REMARK                         _______ _______ _______ _____ _____    ______ ____
ROOT
ATOM      1  C   UNL     1      -2.300   3.775  -4.465  0.00  0.00    +0.084 A 
ATOM      2  C   UNL     1      -2.729   5.071  -4.706  0.00  0.00    +0.069 A 
ATOM      3  C   UNL     1      -3.644   5.272  -5.816  0.00  0.00    -0.023 A 
ATOM      4  C   UNL     1      -3.962   4.141  -6.481  0.00  0.00    -0.004 A 
ATOM      5  S   UNL     1      -3.062   2.864  -5.652  0.00  0.00    -0.077 S 
ATOM      6  C   UNL     1      -4.875   4.018  -7.662  0.00  0.00    +0.046 C 
ATOM      7  C   UNL     1      -5.695   5.312  -7.774  0.00  0.00    -0.000 C 
ATOM      8  C   UNL     1      -4.748   6.510  -7.659  0.00  0.00    +0.009 C 
ATOM      9  C   UNL     1      -4.217   6.620  -6.228  0.00  0.00    +0.037 C 
ENDROOT
BRANCH   1  12
ATOM     10  C   UNL     1      -1.119   2.026  -3.391  0.00  0.00    +0.201 C 
ATOM     11  O   UNL     1      -1.592   1.236  -4.180  0.00  0.00    -0.278 OA
ATOM     12  N   UNL     1      -1.435   3.333  -3.475  0.00  0.00    -0.281 N 
ATOM     13  H   UNL     1      -1.058   3.965  -2.844  0.00  0.00    +0.155 HD
BRANCH  10  14
ATOM     14  C   UNL     1      -0.179   1.546  -2.315  0.00  0.00    +0.019 C 
BRANCH  14  20
ATOM     15  C   UNL     1       0.782  -0.398  -1.294  0.00  0.00    -0.068 C 
ATOM     16  C   UNL     1       0.905  -1.921  -1.372  0.00  0.00    -0.015 C 
ATOM     17  C   UNL     1       1.609  -2.305  -2.677  0.00  0.00    -0.003 C 
ATOM     18  C   UNL     1       0.827  -1.724  -3.858  0.00  0.00    -0.019 C 
ATOM     19  C   UNL     1       0.708  -0.207  -3.687  0.00  0.00    -0.078 C 
ATOM     20  N   UNL     1       0.002   0.093  -2.436  0.00  0.00    +0.387 N 
ATOM     21  H   UNL     1      -0.901  -0.357  -2.443  0.00  0.00    -0.081 HD
BRANCH  15  23
ATOM     22  C   UNL     1       0.946  -0.424   1.199  0.00  0.00    +0.002 C 
ATOM     23  C   UNL     1       0.079  -0.010   0.008  0.00  0.00    -0.019 C 
ENDBRANCH  15  23
ENDBRANCH  14  20
ENDBRANCH  10  14
ENDBRANCH   1  12
BRANCH   7  24
ATOM     24  C   UNL     1      -6.411   5.350  -9.125  0.00  0.00    -0.035 C 
ATOM     25  C   UNL     1      -7.346   4.144  -9.241  0.00  0.00    +0.011 C 
ATOM     26  C   UNL     1      -7.227   6.640  -9.235  0.00  0.00    +0.011 C 
ATOM     27  C   UNL     1      -5.377   5.303 -10.252  0.00  0.00    +0.011 C 
ENDBRANCH   7  24
BRANCH   2  28
ATOM     28  C   UNL     1      -2.279   6.191  -3.874  0.00  0.00    +0.251 C 
ATOM     29  O   UNL     1      -1.274   6.808  -4.176  0.00  0.00    -0.270 OA
ATOM     30  N   UNL     1      -2.978   6.539  -2.776  0.00  0.00    -0.281 N 
ATOM     31  H   UNL     1      -3.816   6.093  -2.573  0.00  0.00    +0.155 HD
BRANCH  30  32
ATOM     32  C   UNL     1      -2.497   7.542  -1.928  0.00  0.00    +0.036 A 
ATOM     33  C   UNL     1      -2.692   7.447  -0.556  0.00  0.00    +0.023 A 
ATOM     34  C   UNL     1      -2.215   8.439   0.277  0.00  0.00    +0.004 A 
ATOM     35  C   UNL     1      -1.544   9.526  -0.252  0.00  0.00    +0.033 A 
ATOM     36  C   UNL     1      -1.348   9.624  -1.617  0.00  0.00    +0.128 A 
ATOM     37  C   UNL     1      -1.817   8.632  -2.457  0.00  0.00    +0.056 A 
BRANCH  36  38
ATOM     38  N   UNL     1      -0.630  10.789  -2.180  0.00  0.00    +0.056 N 
ATOM     39  O   UNL     1      -0.214  11.655  -1.446  0.00  0.00    -0.126 OA
ATOM     40  O   UNL     1      -0.458  10.875  -3.374  0.00  0.00    -0.126 OA
ENDBRANCH  36  38
ENDBRANCH  30  32
ENDBRANCH   2  28
TORSDOF 8
