REMARK  Name = ZINC08879804
REMARK  5 active torsions:
REMARK  status: ('A' for Active; 'I' for Inactive)
REMARK    1  A    between atoms: C_1  and  C_2
REMARK    2  A    between atoms: C_6  and  O_37
REMARK    3  A    between atoms: C_7  and  C_36
REMARK    4  A    between atoms: C_12  and  C_13
REMARK    5  A    between atoms: C_13  and  C_14
REMARK                            x       y       z     vdW  Elec       q    Type
REMARK                         _______ _______ _______ _____ _____    ______ ____
ROOT
ATOM      1  C   UNL     1       3.236  -0.775  -1.188  0.00  0.00    +0.221 C 
ATOM      2  O   UNL     1       3.174  -1.980  -1.057  0.00  0.00    -0.275 OA
ATOM      3  N   UNL     1       2.110  -0.036  -1.164  0.00  0.00    -0.294 N 
ATOM      4  C   UNL     1       2.090   1.330  -1.707  0.00  0.00    +0.109 C 
ATOM      5  C   UNL     1       1.609   2.301  -0.627  0.00  0.00    +0.023 C 
ATOM      6  C   UNL     1       0.219   1.882  -0.134  0.00  0.00    +0.034 C 
ATOM      7  C   UNL     1       0.306   0.447   0.357  0.00  0.00    -0.053 C 
ATOM      8  C   UNL     1      -0.100   0.167   1.559  0.00  0.00    -0.024 C 
ATOM      9  C   UNL     1      -0.023  -1.213   2.151  0.00  0.00    -0.002 C 
ATOM     10  C   UNL     1      -0.046  -2.246   1.019  0.00  0.00    +0.010 C 
ATOM     11  C   UNL     1       1.104  -1.919   0.062  0.00  0.00    -0.002 C 
ATOM     12  C   UNL     1       0.866  -0.572  -0.595  0.00  0.00    +0.103 C 
ATOM     13  C   UNL     1       2.417  -1.909   0.844  0.00  0.00    -0.073 C 
ATOM     14  C   UNL     1       1.297  -1.349   2.923  0.00  0.00    -0.062 C 
ATOM     15  C   UNL     1       0.992  -1.847   4.339  0.00  0.00    -0.015 C 
ATOM     16  C   UNL     1       2.300  -2.023   5.113  0.00  0.00    -0.003 C 
ATOM     17  C   UNL     1       3.198  -3.005   4.355  0.00  0.00    -0.019 C 
ATOM     18  C   UNL     1       3.446  -2.473   2.950  0.00  0.00    -0.078 C 
ATOM     19  N   UNL     1       2.162  -2.335   2.234  0.00  0.00    +0.382 N 
ATOM     20  H   UNL     1       1.686  -3.245   2.223  0.00  0.00    -0.081 HD
ENDROOT
BRANCH   1  21
ATOM     21  C   UNL     1       4.573  -0.106  -1.378  0.00  0.00    +0.138 C 
BRANCH  21  33
ATOM     22  C   UNL     1       5.405  -1.370  -3.837  0.00  0.00    +0.045 C 
ATOM     23  C   UNL     1       6.050  -1.739  -2.527  0.00  0.00    -0.029 A 
ATOM     24  C   UNL     1       7.112  -2.745  -2.468  0.00  0.00    +0.021 A 
ATOM     25  C   UNL     1       7.558  -3.391  -3.627  0.00  0.00    +0.015 A 
ATOM     26  C   UNL     1       8.549  -4.325  -3.545  0.00  0.00    +0.046 A 
ATOM     27  C   UNL     1       9.122  -4.640  -2.314  0.00  0.00    +0.123 A 
ATOM     28  C   UNL     1       8.694  -4.010  -1.157  0.00  0.00    +0.034 A 
ATOM     29  C   UNL     1       7.687  -3.058  -1.222  0.00  0.00    +0.146 A 
ATOM     30  O   UNL     1       7.256  -2.432  -0.107  0.00  0.00    -0.422 OA
ATOM     31  C   UNL     1       6.286  -1.505  -0.154  0.00  0.00    +0.341 A 
ATOM     32  O   UNL     1       5.932  -0.963   0.878  0.00  0.00    -0.245 OA
ATOM     33  C   UNL     1       5.662  -1.147  -1.367  0.00  0.00    +0.049 A 
ATOM     34  C   UNL     1       9.319  -4.358   0.169  0.00  0.00    +0.051 C 
BRANCH  27  35
ATOM     35  O   UNL     1      10.107  -5.571  -2.248  0.00  0.00    -0.506 OA
ATOM     36  H   UNL     1       9.787  -6.473  -2.109  0.00  0.00    +0.292 HD
ENDBRANCH  27  35
ENDBRANCH  21  33
ENDBRANCH   1  21
TORSDOF 3
