REMARK  Name = ZINC35700548
REMARK  13 active torsions:
REMARK  status: ('A' for Active; 'I' for Inactive)
REMARK    1  A    between atoms: C_1  and  C_2
REMARK    2  A    between atoms: C_7  and  N_8
REMARK    3  A    between atoms: N_11  and  C_12
REMARK    4  A    between atoms: N_11  and  C_16
REMARK    5  A    between atoms: C_12  and  C_13
REMARK    6  A    between atoms: C_13  and  C_14
REMARK    7  A    between atoms: C_13  and  C_15
REMARK    8  A    between atoms: C_16  and  C_17
REMARK    9  A    between atoms: N_19  and  C_20
REMARK   10  A    between atoms: C_21  and  C_33
REMARK   11  A    between atoms: C_22  and  C_32
REMARK   12  A    between atoms: N_24  and  C_25
REMARK   13  A    between atoms: C_30  and  C_31
REMARK                            x       y       z     vdW  Elec       q    Type
REMARK                         _______ _______ _______ _____ _____    ______ ____
ROOT
ATOM      1  C   UNL     1       1.260  -0.374   6.813  0.00  0.00    +0.236 C 
ATOM      2  O   UNL     1       2.253   0.186   6.400  0.00  0.00    -0.274 OA
ATOM      3  N   UNL     1       1.373  -1.366   7.718  0.00  0.00    -0.268 N 
ATOM      4  H   UNL     1       0.588  -1.871   7.984  0.00  0.00    +0.156 HD
ENDROOT
BRANCH   3   5
ATOM      5  C   UNL     1       2.614  -1.667   8.269  0.00  0.00    +0.137 A 
ATOM      6  C   UNL     1       2.919  -1.741   9.616  0.00  0.00    +0.045 A 
ATOM      7  C   UNL     1       4.283  -2.073   9.720  0.00  0.00    +0.070 A 
ATOM      8  N   UNL     1       4.772  -2.192   8.514  0.00  0.00    -0.169 NA
ATOM      9  N   UNL     1       3.755  -1.950   7.584  0.00  0.00    -0.217 N 
ATOM     10  C   UNL     1       5.050  -2.259  11.004  0.00  0.00    +0.068 C 
BRANCH   9  11
ATOM     11  C   UNL     1       3.889  -1.990   6.190  0.00  0.00    +0.070 A 
ATOM     12  C   UNL     1       2.959  -2.678   5.421  0.00  0.00    +0.028 A 
ATOM     13  C   UNL     1       3.094  -2.715   4.047  0.00  0.00    +0.002 A 
ATOM     14  C   UNL     1       4.152  -2.067   3.437  0.00  0.00    +0.000 A 
ATOM     15  C   UNL     1       5.079  -1.381   4.200  0.00  0.00    +0.005 A 
ATOM     16  C   UNL     1       4.947  -1.336   5.574  0.00  0.00    -0.025 A 
ATOM     17  C   UNL     1       5.954  -0.583   6.404  0.00  0.00    +0.046 C 
ENDBRANCH   9  11
BRANCH   6  18
ATOM     18  C   UNL     1       1.982  -1.512  10.743  0.00  0.00    -0.013 A 
ATOM     19  C   UNL     1       1.418  -0.253  10.939  0.00  0.00    +0.008 A 
ATOM     20  C   UNL     1       0.547  -0.046  11.989  0.00  0.00    +0.001 A 
ATOM     21  C   UNL     1       0.233  -1.085  12.846  0.00  0.00    +0.000 A 
ATOM     22  C   UNL     1       0.790  -2.337  12.656  0.00  0.00    +0.001 A 
ATOM     23  C   UNL     1       1.657  -2.558  11.606  0.00  0.00    +0.008 A 
ENDBRANCH   6  18
ENDBRANCH   3   5
BRANCH   1  24
ATOM     24  C   UNL     1      -0.101   0.040   6.315  0.00  0.00    +0.205 C 
BRANCH  24  28
ATOM     25  N   UNL     1       0.325   1.855   3.145  0.00  0.00    -0.269 N 
ATOM     26  C   UNL     1       0.192   0.852   4.036  0.00  0.00    +0.307 C 
ATOM     27  O   UNL     1       0.203  -0.303   3.657  0.00  0.00    -0.252 OA
ATOM     28  N   UNL     1       0.045   1.130   5.346  0.00  0.00    -0.276 N 
ATOM     29  H   UNL     1       0.395   2.772   3.454  0.00  0.00    +0.156 HD
BRANCH  25  36
ATOM     30  C   UNL     1       1.593   3.731   1.422  0.00  0.00    +0.045 C 
ATOM     31  C   UNL     1       0.972   2.461   0.898  0.00  0.00    -0.029 A 
ATOM     32  C   UNL     1       1.014   2.178  -0.453  0.00  0.00    +0.005 A 
ATOM     33  C   UNL     1       0.445   1.013  -0.934  0.00  0.00    +0.000 A 
ATOM     34  C   UNL     1      -0.168   0.129  -0.064  0.00  0.00    +0.002 A 
ATOM     35  C   UNL     1      -0.212   0.406   1.288  0.00  0.00    +0.023 A 
ATOM     36  C   UNL     1       0.364   1.573   1.775  0.00  0.00    +0.038 A 
ENDBRANCH  25  36
BRANCH  28  37
ATOM     37  C   UNL     1       0.031   2.522   5.803  0.00  0.00    +0.113 C 
BRANCH  37  38
ATOM     38  C   UNL     1      -1.406   3.048   5.792  0.00  0.00    +0.000 C 
ATOM     39  C   UNL     1      -1.438   4.458   6.386  0.00  0.00    +0.009 C 
ATOM     40  C   UNL     1      -1.924   3.088   4.353  0.00  0.00    +0.009 C 
ENDBRANCH  37  38
ENDBRANCH  28  37
ENDBRANCH  24  28
ENDBRANCH   1  24
TORSDOF 8
