REMARK  Name = ZINC01189369
REMARK  9 active torsions:
REMARK  status: ('A' for Active; 'I' for Inactive)
REMARK    1  A    between atoms: C_1  and  C_2
REMARK    2  A    between atoms: C_3  and  C_20
REMARK    3  A    between atoms: C_4  and  C_10
REMARK    4  A    between atoms: C_12  and  O_18
REMARK    5  A    between atoms: C_13  and  O_17
REMARK    6  A    between atoms: O_18  and  C_19
REMARK    7  A    between atoms: C_20  and  O_22
REMARK    8  A    between atoms: O_22  and  C_23
REMARK    9  A    between atoms: C_23  and  C_24
REMARK                            x       y       z     vdW  Elec       q    Type
REMARK                         _______ _______ _______ _____ _____    ______ ____
ROOT
ATOM      1  C   UNL     1      -6.577  -1.205   1.879  0.00  0.00    +0.061 C 
ATOM      2  C   UNL     1      -5.718  -0.837   3.061  0.00  0.00    +0.021 C 
ATOM      3  C   UNL     1      -4.495  -0.302   2.852  0.00  0.00    +0.078 C 
ATOM      4  C   UNL     1      -3.662   0.049   4.068  0.00  0.00    +0.144 C 
ATOM      5  N   UNL     1      -4.262  -0.213   5.387  0.00  0.00    -0.288 N 
ATOM      6  C   UNL     1      -5.496  -0.753   5.434  0.00  0.00    +0.304 C 
ATOM      7  O   UNL     1      -5.998  -0.979   6.518  0.00  0.00    -0.252 OA
ATOM      8  N   UNL     1      -6.187  -1.049   4.326  0.00  0.00    -0.273 N 
ATOM      9  H   UNL     1      -3.779  -0.007   6.202  0.00  0.00    +0.151 HD
ATOM     10  H   UNL     1      -7.071  -1.436   4.427  0.00  0.00    +0.156 HD
ENDROOT
BRANCH   4  11
ATOM     11  C   UNL     1      -3.332   1.518   3.997  0.00  0.00    -0.018 A 
ATOM     12  C   UNL     1      -2.091   1.925   3.541  0.00  0.00    +0.055 A 
ATOM     13  C   UNL     1      -1.786   3.275   3.475  0.00  0.00    +0.163 A 
ATOM     14  C   UNL     1      -2.730   4.219   3.868  0.00  0.00    +0.173 A 
ATOM     15  C   UNL     1      -3.972   3.804   4.324  0.00  0.00    +0.063 A 
ATOM     16  C   UNL     1      -4.272   2.455   4.383  0.00  0.00    +0.025 A 
ATOM     17 BR   UNL     1      -5.258   5.083   4.861  0.00  0.00    -0.046 Br
BRANCH  14  18
ATOM     18  O   UNL     1      -2.436   5.545   3.805  0.00  0.00    -0.503 OA
ATOM     19  H   UNL     1      -2.664   5.959   2.961  0.00  0.00    +0.292 HD
ENDBRANCH  14  18
BRANCH  13  20
ATOM     20  O   UNL     1      -0.567   3.677   3.026  0.00  0.00    -0.491 OA
ATOM     21  C   UNL     1       0.351   2.653   2.639  0.00  0.00    +0.277 C 
ENDBRANCH  13  20
ENDBRANCH   4  11
BRANCH   3  22
ATOM     22  C   UNL     1      -4.007  -0.082   1.543  0.00  0.00    +0.339 C 
ATOM     23  O   UNL     1      -3.227  -0.870   1.044  0.00  0.00    -0.245 OA
BRANCH  22  24
ATOM     24  O   UNL     1      -4.408   1.003   0.847  0.00  0.00    -0.457 OA
BRANCH  24  25
ATOM     25  C   UNL     1      -3.875   1.162  -0.470  0.00  0.00    +0.268 C 
BRANCH  25  26
ATOM     26  C   UNL     1      -4.431   2.419  -1.088  0.00  0.00    -0.010 A 
ATOM     27  C   UNL     1      -3.768   3.621  -0.924  0.00  0.00    +0.007 A 
ATOM     28  C   UNL     1      -4.275   4.773  -1.496  0.00  0.00    +0.000 A 
ATOM     29  C   UNL     1      -5.447   4.724  -2.227  0.00  0.00    +0.000 A 
ATOM     30  C   UNL     1      -6.113   3.523  -2.385  0.00  0.00    +0.000 A 
ATOM     31  C   UNL     1      -5.606   2.371  -1.814  0.00  0.00    +0.007 A 
ENDBRANCH  25  26
ENDBRANCH  24  25
ENDBRANCH  22  24
ENDBRANCH   3  22
TORSDOF 7
