REMARK  Name = ZINC39530367
REMARK  8 active torsions:
REMARK  status: ('A' for Active; 'I' for Inactive)
REMARK    1  A    between atoms: C_4  and  C_7
REMARK    2  A    between atoms: C_7  and  C_8
REMARK    3  A    between atoms: C_11  and  N_24
REMARK    4  A    between atoms: C_12  and  S_14
REMARK    5  A    between atoms: S_14  and  O_17
REMARK    6  A    between atoms: O_17  and  C_18
REMARK    7  A    between atoms: C_28  and  C_31
REMARK    8  A    between atoms: C_36  and  O_37
REMARK                            x       y       z     vdW  Elec       q    Type
REMARK                         _______ _______ _______ _____ _____    ______ ____
ROOT
ATOM      1  C   UNL     1       4.567  -1.126   1.448  0.00  0.00    -0.041 A 
ATOM      2  C   UNL     1       4.676  -0.037   2.293  0.00  0.00    +0.006 A 
ATOM      3  C   UNL     1       4.642  -0.216   3.662  0.00  0.00    +0.025 A 
ATOM      4  C   UNL     1       4.499  -1.494   4.190  0.00  0.00    +0.058 A 
ATOM      5  C   UNL     1       4.391  -2.586   3.338  0.00  0.00    +0.149 A 
ATOM      6  C   UNL     1       4.419  -2.398   1.970  0.00  0.00    +0.036 A 
ENDROOT
BRANCH   4   7
ATOM      7  N   UNL     1       4.465  -1.679   5.574  0.00  0.00    -0.331 N 
ATOM      8  C   UNL     1       5.636  -2.201   6.296  0.00  0.00    +0.086 C 
ATOM      9  C   UNL     1       5.180  -3.365   7.183  0.00  0.00    -0.063 C 
ATOM     10  N   UNL     1       4.083  -2.917   8.050  0.00  0.00    +0.386 N 
ATOM     11  C   UNL     1       2.915  -2.561   7.235  0.00  0.00    -0.020 C 
ATOM     12  C   UNL     1       3.260  -1.353   6.351  0.00  0.00    +0.094 C 
ATOM     13  H   UNL     1       3.834  -3.660   8.685  0.00  0.00    -0.085 HD
ATOM     14  H   UNL     1       4.381  -2.111   8.579  0.00  0.00    -0.085 HD
BRANCH  11  15
ATOM     15  C   UNL     1       1.761  -2.209   8.137  0.00  0.00    -0.018 A 
ATOM     16  C   UNL     1       2.000  -1.747   9.418  0.00  0.00    +0.005 A 
ATOM     17  C   UNL     1       0.942  -1.424  10.246  0.00  0.00    +0.000 A 
ATOM     18  C   UNL     1      -0.358  -1.562   9.797  0.00  0.00    +0.004 A 
ATOM     19  C   UNL     1      -0.603  -2.022   8.518  0.00  0.00    +0.045 A 
ATOM     20  C   UNL     1       0.457  -2.342   7.682  0.00  0.00    +0.118 A 
BRANCH  20  21
ATOM     21  O   UNL     1       0.219  -2.790   6.421  0.00  0.00    -0.507 OA
ATOM     22  H   UNL     1       0.131  -3.750   6.355  0.00  0.00    +0.292 HD
ENDBRANCH  20  21
ENDBRANCH  11  15
ENDBRANCH   4   7
BRANCH   5  23
ATOM     23  S   UNL     1       4.210  -4.207   4.002  0.00  0.00    +0.153 S 
ATOM     24  O   UNL     1       3.179  -4.134   4.978  0.00  0.00    -0.131 OA
ATOM     25  O   UNL     1       4.148  -5.096   2.895  0.00  0.00    -0.131 OA
BRANCH  23  26
ATOM     26  O   UNL     1       5.495  -4.533   4.750  0.00  0.00    -0.342 OA
BRANCH  26  27
ATOM     27  C   UNL     1       6.536  -4.862   3.942  0.00  0.00    +0.157 A 
ATOM     28  C   UNL     1       6.736  -6.184   3.569  0.00  0.00    +0.048 A 
ATOM     29  C   UNL     1       7.796  -6.515   2.747  0.00  0.00    +0.004 A 
ATOM     30  C   UNL     1       8.657  -5.532   2.297  0.00  0.00    +0.000 A 
ATOM     31  C   UNL     1       8.460  -4.215   2.668  0.00  0.00    +0.004 A 
ATOM     32  C   UNL     1       7.399  -3.877   3.485  0.00  0.00    +0.048 A 
ENDBRANCH  26  27
ENDBRANCH  23  26
ENDBRANCH   5  23
BRANCH   1  33
ATOM     33  C   UNL     1       4.605  -0.926  -0.045  0.00  0.00    +0.070 C 
BRANCH  33  37
ATOM     34  C   UNL     1       0.639  -0.287  -1.498  0.00  0.00    +0.000 A 
ATOM     35  C   UNL     1       1.411   0.788  -1.100  0.00  0.00    +0.000 A 
ATOM     36  C   UNL     1       2.694   0.582  -0.630  0.00  0.00    +0.004 A 
ATOM     37  C   UNL     1       3.205  -0.701  -0.557  0.00  0.00    -0.043 A 
ATOM     38  C   UNL     1       2.433  -1.776  -0.953  0.00  0.00    +0.004 A 
ATOM     39  C   UNL     1       1.150  -1.569  -1.425  0.00  0.00    +0.000 A 
ENDBRANCH  33  37
ENDBRANCH   1  33
TORSDOF 8
