REMARK  Name = ZINC44848929
REMARK  10 active torsions:
REMARK  status: ('A' for Active; 'I' for Inactive)
REMARK    1  A    between atoms: C_1  and  C_2
REMARK    2  A    between atoms: N_6  and  C_7
REMARK    3  A    between atoms: C_10  and  C_13
REMARK    4  A    between atoms: C_13  and  N_14
REMARK    5  A    between atoms: C_15  and  C_17
REMARK    6  A    between atoms: C_17  and  N_18
REMARK    7  A    between atoms: N_18  and  C_19
REMARK    8  A    between atoms: N_18  and  S_30
REMARK    9  A    between atoms: C_23  and  C_25
REMARK   10  A    between atoms: S_30  and  C_33
REMARK                            x       y       z     vdW  Elec       q    Type
REMARK                         _______ _______ _______ _____ _____    ______ ____
ROOT
ATOM      1  N   UNL     1      -0.136   1.597   7.585  0.00  0.00    -0.310 N 
ATOM      2  C   UNL     1      -0.578   2.428   8.550  0.00  0.00    +0.232 C 
ATOM      3  O   UNL     1      -0.131   2.343   9.675  0.00  0.00    -0.274 OA
ATOM      4  H   UNL     1      -0.493   1.665   6.686  0.00  0.00    +0.149 HD
ENDROOT
BRANCH   1   5
ATOM      5  C   UNL     1       0.884   0.593   7.894  0.00  0.00    +0.139 C 
BRANCH   5   9
ATOM      6  C   UNL     1       1.783  -1.655   4.372  0.00  0.00    +0.048 A 
ATOM      7  C   UNL     1       2.499  -0.502   4.662  0.00  0.00    +0.026 A 
ATOM      8  C   UNL     1       2.206   0.223   5.801  0.00  0.00    +0.007 A 
ATOM      9  C   UNL     1       1.201  -0.200   6.652  0.00  0.00    -0.030 A 
ATOM     10  C   UNL     1       0.487  -1.349   6.365  0.00  0.00    +0.007 A 
ATOM     11  C   UNL     1       0.772  -2.074   5.225  0.00  0.00    +0.026 A 
BRANCH   6  17
ATOM     12  C   UNL     1       2.042  -0.460   1.552  0.00  0.00    +0.084 C 
ATOM     13  C   UNL     1       2.201  -1.903   1.955  0.00  0.00    +0.088 A 
ATOM     14  N   UNL     1       2.485  -2.892   1.151  0.00  0.00    -0.350 N 
ATOM     15  C   UNL     1       2.549  -4.032   1.854  0.00  0.00    +0.102 A 
ATOM     16  C   UNL     1       2.294  -3.745   3.145  0.00  0.00    +0.110 A 
ATOM     17  N   UNL     1       2.078  -2.393   3.216  0.00  0.00    -0.305 N 
ATOM     18  H   UNL     1       2.628  -2.814   0.195  0.00  0.00    +0.166 HD
ENDBRANCH   6  17
ENDBRANCH   5   9
ENDBRANCH   1   5
BRANCH   2  19
ATOM     19  C   UNL     1      -1.627   3.462   8.233  0.00  0.00    +0.226 C 
BRANCH  19  20
ATOM     20  N   UNL     1      -1.935   4.232   9.440  0.00  0.00    -0.199 N 
BRANCH  20  21
ATOM     21  C   UNL     1      -1.147   5.333   9.787  0.00  0.00    +0.052 A 
ATOM     22  C   UNL     1      -0.501   5.367  11.016  0.00  0.00    +0.026 A 
ATOM     23  C   UNL     1       0.277   6.456  11.355  0.00  0.00    +0.022 A 
ATOM     24  C   UNL     1       0.414   7.512  10.472  0.00  0.00    +0.053 A 
ATOM     25  C   UNL     1      -0.228   7.481   9.247  0.00  0.00    +0.075 A 
ATOM     26  C   UNL     1      -1.004   6.392   8.900  0.00  0.00    +0.038 A 
ATOM     27 CL   UNL     1       1.393   8.880  10.902  0.00  0.00    -0.083 Cl
BRANCH  25  28
ATOM     28  C   UNL     1      -0.077   8.634   8.288  0.00  0.00    +0.419 C 
ATOM     29  F   UNL     1      -0.813   8.374   7.127  0.00  0.00    -0.166 F 
ATOM     30  F   UNL     1      -0.550   9.805   8.888  0.00  0.00    -0.166 F 
ATOM     31  F   UNL     1       1.274   8.791   7.958  0.00  0.00    -0.166 F 
ENDBRANCH  25  28
ENDBRANCH  20  21
BRANCH  20  32
ATOM     32  S   UNL     1      -3.217   3.798  10.395  0.00  0.00    +0.043 S 
ATOM     33  O   UNL     1      -3.522   4.966  11.145  0.00  0.00    -0.155 OA
ATOM     34  O   UNL     1      -4.168   3.246   9.495  0.00  0.00    -0.155 OA
ATOM     35  C   UNL     1      -2.567   2.505  11.488  0.00  0.00    +0.218 C 
ENDBRANCH  20  32
ENDBRANCH  19  20
ENDBRANCH   2  19
TORSDOF 8
