REMARK  Name = ZINC09155601
REMARK  11 active torsions:
REMARK  status: ('A' for Active; 'I' for Inactive)
REMARK    1  A    between atoms: C_1  and  N_2
REMARK    2  A    between atoms: N_2  and  C_3
REMARK    3  A    between atoms: N_2  and  S_4
REMARK    4  A    between atoms: S_4  and  C_7
REMARK    5  A    between atoms: C_11  and  N_13
REMARK    6  A    between atoms: C_14  and  C_16
REMARK    7  A    between atoms: C_16  and  N_57
REMARK    8  A    between atoms: C_17  and  C_19
REMARK    9  A    between atoms: C_17  and  C_26
REMARK   10  A    between atoms: C_17  and  N_57
REMARK   11  A    between atoms: C_19  and  C_20
REMARK                            x       y       z     vdW  Elec       q    Type
REMARK                         _______ _______ _______ _____ _____    ______ ____
ROOT
ATOM      1  C   UNL     1      -3.073   1.874   3.582  0.00  0.00    +0.016 C 
ENDROOT
BRANCH   1   3
ATOM      2  N   UNL     1      -3.329   3.326   5.568  0.00  0.00    -0.286 N 
ATOM      3  C   UNL     1      -3.406   3.194   4.229  0.00  0.00    +0.200 C 
ATOM      4  O   UNL     1      -3.743   4.137   3.545  0.00  0.00    -0.278 OA
ATOM      5  H   UNL     1      -3.137   2.553   6.122  0.00  0.00    +0.155 HD
BRANCH   2  10
ATOM      6  C   UNL     1      -3.486   6.973   6.017  0.00  0.00    +0.107 A 
ATOM      7  C   UNL     1      -3.910   7.058   7.330  0.00  0.00    +0.030 A 
ATOM      8  C   UNL     1      -4.142   5.907   8.061  0.00  0.00    +0.024 A 
ATOM      9  C   UNL     1      -3.950   4.668   7.480  0.00  0.00    +0.062 A 
ATOM     10  C   UNL     1      -3.524   4.580   6.160  0.00  0.00    +0.054 A 
ATOM     11  C   UNL     1      -3.288   5.738   5.431  0.00  0.00    +0.053 A 
ATOM     12 CL   UNL     1      -4.241   3.223   8.397  0.00  0.00    -0.082 Cl
BRANCH   6  13
ATOM     13  S   UNL     1      -3.191   8.443   5.091  0.00  0.00    +0.060 S 
ATOM     14  O   UNL     1      -3.326   8.093   3.720  0.00  0.00    -0.153 OA
ATOM     15  O   UNL     1      -3.968   9.467   5.696  0.00  0.00    -0.153 OA
BRANCH  13  17
ATOM     16  C   UNL     1      -0.574   8.338   4.414  0.00  0.00    +0.131 C 
ATOM     17  N   UNL     1      -1.603   8.856   5.319  0.00  0.00    -0.183 NA
ATOM     18  C   UNL     1      -1.228   9.738   6.427  0.00  0.00    +0.131 C 
ENDBRANCH  13  17
ENDBRANCH   6  13
ENDBRANCH   2  10
ENDBRANCH   1   3
BRANCH   1  19
ATOM     19  N   UNL     1      -3.237   1.997   2.121  0.00  0.00    +0.389 N 
ATOM     20  H   UNL     1      -2.605   2.727   1.770  0.00  0.00    -0.084 HD
ATOM     21  H   UNL     1      -4.208   2.255   1.910  0.00  0.00    -0.084 HD
BRANCH  19  22
ATOM     22  C   UNL     1      -2.917   0.718   1.461  0.00  0.00    -0.036 C 
BRANCH  22  23
ATOM     23  C   UNL     1      -4.137  -0.167   1.460  0.00  0.00    -0.061 A 
ATOM     24  C   UNL     1      -5.386   0.379   1.232  0.00  0.00    +0.002 A 
ATOM     25  C   UNL     1      -6.505  -0.433   1.228  0.00  0.00    +0.000 A 
ATOM     26  C   UNL     1      -6.376  -1.790   1.460  0.00  0.00    +0.000 A 
ATOM     27  C   UNL     1      -5.127  -2.334   1.694  0.00  0.00    +0.000 A 
ATOM     28  C   UNL     1      -4.008  -1.523   1.694  0.00  0.00    +0.002 A 
ENDBRANCH  22  23
BRANCH  22  29
ATOM     29  C   UNL     1      -2.485   0.991   0.019  0.00  0.00    +0.024 C 
BRANCH  29  30
ATOM     30  C   UNL     1      -1.197   1.773   0.020  0.00  0.00    -0.049 A 
ATOM     31  C   UNL     1       0.015   1.107   0.012  0.00  0.00    +0.003 A 
ATOM     32  C   UNL     1       1.197   1.824   0.007  0.00  0.00    +0.000 A 
ATOM     33  C   UNL     1       1.167   3.206   0.016  0.00  0.00    +0.000 A 
ATOM     34  C   UNL     1      -0.044   3.871   0.029  0.00  0.00    +0.000 A 
ATOM     35  C   UNL     1      -1.226   3.155   0.034  0.00  0.00    +0.003 A 
ENDBRANCH  29  30
ENDBRANCH  22  29
ENDBRANCH  19  22
ENDBRANCH   1  19
TORSDOF 9
