REMARK  Name = ZINC02468960
REMARK  7 active torsions:
REMARK  status: ('A' for Active; 'I' for Inactive)
REMARK    1  A    between atoms: C_3  and  S_9
REMARK    2  A    between atoms: C_6  and  C_7
REMARK    3  A    between atoms: S_9  and  C_12
REMARK    4  A    between atoms: C_15  and  S_18
REMARK    5  A    between atoms: S_18  and  C_21
REMARK    6  A    between atoms: C_24  and  C_29
REMARK    7  A    between atoms: C_25  and  C_27
REMARK                            x       y       z     vdW  Elec       q    Type
REMARK                         _______ _______ _______ _____ _____    ______ ____
ROOT
ATOM      1  C   UNL     1      -0.102   1.809   0.106  0.00  0.00    +0.094 A 
ATOM      2  C   UNL     1      -1.300   2.500   0.100  0.00  0.00    +0.029 A 
ATOM      3  C   UNL     1      -1.301   3.882   0.088  0.00  0.00    +0.029 A 
ATOM      4  C   UNL     1      -0.104   4.574   0.072  0.00  0.00    +0.094 A 
ATOM      5  C   UNL     1       1.093   3.883   0.074  0.00  0.00    +0.029 A 
ATOM      6  C   UNL     1       1.094   2.501   0.090  0.00  0.00    +0.029 A 
ENDROOT
BRANCH   1   7
ATOM      7  S   UNL     1      -0.101   0.047   0.127  0.00  0.00    +0.025 S 
ATOM      8  O   UNL     1      -1.350  -0.366  -0.411  0.00  0.00    -0.164 OA
ATOM      9  O   UNL     1       1.141  -0.365  -0.427  0.00  0.00    -0.164 OA
BRANCH   7  12
ATOM     10  C   UNL     1      -1.285  -1.043   3.806  0.00  0.00    +0.017 A 
ATOM     11  C   UNL     1      -1.286  -0.650   2.484  0.00  0.00    +0.028 A 
ATOM     12  C   UNL     1      -0.090  -0.454   1.816  0.00  0.00    +0.094 A 
ATOM     13  C   UNL     1       1.114  -0.654   2.467  0.00  0.00    +0.028 A 
ATOM     14  C   UNL     1       1.130  -1.042   3.791  0.00  0.00    +0.017 A 
ATOM     15  C   UNL     1      -0.073  -1.242   4.471  0.00  0.00    +0.063 A 
BRANCH  15  16
ATOM     16  C   UNL     1      -0.064  -1.662   5.887  0.00  0.00    +0.387 C 
ATOM     17  O   UNL     1      -1.113  -1.835   6.476  0.00  0.00    -0.241 OA
ATOM     18  O   UNL     1       1.106  -1.854   6.525  0.00  0.00    -0.241 OA
ENDBRANCH  15  16
ENDBRANCH   7  12
ENDBRANCH   1   7
BRANCH   4  19
ATOM     19  S   UNL     1      -0.105   6.336   0.052  0.00  0.00    +0.025 S 
ATOM     20  O   UNL     1      -1.348   6.747   0.605  0.00  0.00    -0.164 OA
ATOM     21  O   UNL     1       1.143   6.749   0.591  0.00  0.00    -0.164 OA
BRANCH  19  22
ATOM     22  C   UNL     1      -0.115   6.837  -1.637  0.00  0.00    +0.094 A 
ATOM     23  C   UNL     1       1.082   7.038  -2.301  0.00  0.00    +0.028 A 
ATOM     24  C   UNL     1       1.090   7.427  -3.628  0.00  0.00    +0.018 A 
ATOM     25  C   UNL     1      -0.113   7.628  -4.301  0.00  0.00    +0.077 A 
ATOM     26  C   UNL     1      -1.330   7.428  -3.624  0.00  0.00    +0.079 A 
ATOM     27  C   UNL     1      -1.318   7.031  -2.289  0.00  0.00    +0.043 A 
BRANCH  26  28
ATOM     28  C   UNL     1      -2.615   7.637  -4.326  0.00  0.00    +0.387 C 
ATOM     29  O   UNL     1      -2.624   8.089  -5.453  0.00  0.00    -0.241 OA
ATOM     30  O   UNL     1      -3.774   7.326  -3.715  0.00  0.00    -0.241 OA
ENDBRANCH  26  28
BRANCH  25  31
ATOM     31  C   UNL     1      -0.110   8.048  -5.719  0.00  0.00    +0.387 C 
ATOM     32  O   UNL     1      -0.713   7.396  -6.547  0.00  0.00    -0.241 OA
ATOM     33  O   UNL     1       0.560   9.156  -6.091  0.00  0.00    -0.241 OA
ENDBRANCH  25  31
ENDBRANCH  19  22
ENDBRANCH   4  19
TORSDOF 7
