REMARK  Name = ZINC59984899
REMARK  9 active torsions:
REMARK  status: ('A' for Active; 'I' for Inactive)
REMARK    1  A    between atoms: C_1  and  C_2
REMARK    2  A    between atoms: C_2  and  C_3
REMARK    3  A    between atoms: C_2  and  N_4
REMARK    4  A    between atoms: C_5  and  C_23
REMARK    5  A    between atoms: C_8  and  S_9
REMARK    6  A    between atoms: S_9  and  C_10
REMARK    7  A    between atoms: C_13  and  C_19
REMARK    8  A    between atoms: C_15  and  N_16
REMARK    9  A    between atoms: N_21  and  C_22
REMARK                            x       y       z     vdW  Elec       q    Type
REMARK                         _______ _______ _______ _____ _____    ______ ____
ROOT
ATOM      1  N   UNL     1      -1.338  -0.405   0.027  0.00  0.00    -0.299 N 
ATOM      2  C   UNL     1      -1.966  -1.029  -1.015  0.00  0.00    +0.167 A 
ATOM      3  N   UNL     1      -3.251  -1.265  -0.634  0.00  0.00    -0.128 NA
ATOM      4  N   UNL     1      -3.432  -0.825   0.561  0.00  0.00    -0.122 NA
ATOM      5  C   UNL     1      -2.272  -0.285   1.024  0.00  0.00    +0.197 A 
ENDROOT
BRANCH   2   6
ATOM      6  C   UNL     1      -1.387  -1.366  -2.259  0.00  0.00    +0.038 A 
ATOM      7  C   UNL     1      -0.141  -2.025  -2.308  0.00  0.00    +0.014 A 
ATOM      8  C   UNL     1       0.411  -2.347  -3.512  0.00  0.00    +0.021 A 
ATOM      9  C   UNL     1      -0.248  -2.030  -4.696  0.00  0.00    +0.042 A 
ATOM     10  C   UNL     1      -1.476  -1.381  -4.668  0.00  0.00    +0.040 A 
ATOM     11  C   UNL     1      -2.055  -1.051  -3.464  0.00  0.00    +0.053 A 
ATOM     12 CL   UNL     1      -3.593  -0.247  -3.425  0.00  0.00    -0.083 Cl
ATOM     13 CL   UNL     1       0.470  -2.449  -6.220  0.00  0.00    -0.083 Cl
ENDBRANCH   2   6
BRANCH   1  15
ATOM     14  C   UNL     1       0.102   1.552   0.305  0.00  0.00    +0.030 C 
ATOM     15  C   UNL     1       0.057   0.041   0.071  0.00  0.00    +0.085 C 
ATOM     16  C   UNL     1       0.784  -0.674   1.212  0.00  0.00    +0.030 C 
ENDBRANCH   1  15
BRANCH   5  17
ATOM     17  S   UNL     1      -2.032   0.397   2.518  0.00  0.00    -0.048 S 
BRANCH  17  18
ATOM     18  C   UNL     1      -3.551   0.113   3.365  0.00  0.00    +0.046 A 
ATOM     19  C   UNL     1      -3.639  -0.905   4.318  0.00  0.00    +0.018 A 
ATOM     20  C   UNL     1      -4.815  -1.128   4.976  0.00  0.00    +0.014 A 
ATOM     21  C   UNL     1      -5.934  -0.338   4.699  0.00  0.00    +0.039 A 
ATOM     22  C   UNL     1      -5.851   0.682   3.747  0.00  0.00    +0.047 A 
ATOM     23  C   UNL     1      -4.665   0.909   3.087  0.00  0.00    +0.141 A 
BRANCH  21  24
ATOM     24  C   UNL     1      -7.206  -0.581   5.413  0.00  0.00    +0.244 C 
ATOM     25  O   UNL     1      -8.179   0.106   5.172  0.00  0.00    -0.270 OA
ATOM     26  N   UNL     1      -7.286  -1.565   6.331  0.00  0.00    -0.314 N 
ATOM     27  C   UNL     1      -8.546  -1.806   7.038  0.00  0.00    +0.128 C 
ATOM     28  H   UNL     1      -6.510  -2.113   6.523  0.00  0.00    +0.149 HD
ENDBRANCH  21  24
BRANCH  23  29
ATOM     29  N   UNL     1      -4.570   1.993   2.082  0.00  0.00    +0.058 N 
ATOM     30  O   UNL     1      -5.621   2.743   1.822  0.00  0.00    -0.126 OA
ATOM     31  O   UNL     1      -3.435   2.206   1.449  0.00  0.00    -0.126 OA
ENDBRANCH  23  29
ENDBRANCH  17  18
ENDBRANCH   5  17
TORSDOF 6
