REMARK  Name = ZINC59600330
REMARK  8 active torsions:
REMARK  status: ('A' for Active; 'I' for Inactive)
REMARK    1  A    between atoms: C_1  and  C_2
REMARK    2  A    between atoms: C_2  and  O_3
REMARK    3  A    between atoms: O_3  and  C_4
REMARK    4  A    between atoms: C_4  and  C_6
REMARK    5  A    between atoms: C_7  and  C_33
REMARK    6  A    between atoms: C_14  and  C_15
REMARK    7  A    between atoms: C_18  and  O_22
REMARK    8  A    between atoms: C_24  and  C_26
REMARK                            x       y       z     vdW  Elec       q    Type
REMARK                         _______ _______ _______ _____ _____    ______ ____
ROOT
ATOM      1  C   UNL     1      -2.941  -2.534  -0.852  0.00  0.00    +0.085 C 
ATOM      2  C   UNL     1      -3.162  -3.881  -0.773  0.00  0.00    +0.053 C 
ATOM      3  N   UNL     1      -4.391  -4.354  -0.612  0.00  0.00    -0.228 NA
ATOM      4  C   UNL     1      -5.469  -3.617  -0.516  0.00  0.00    +0.178 A 
ATOM      5  N   UNL     1      -5.470  -2.242  -0.572  0.00  0.00    -0.275 N 
ATOM      6  C   UNL     1      -6.637  -1.595  -0.463  0.00  0.00    +0.268 A 
ATOM      7  O   UNL     1      -6.686  -0.379  -0.506  0.00  0.00    -0.266 OA
ATOM      8  C   UNL     1      -7.856  -2.396  -0.289  0.00  0.00    +0.081 A 
ATOM      9  C   UNL     1      -9.145  -1.989  -0.157  0.00  0.00    +0.028 C 
ATOM     10  S   UNL     1      -7.184  -4.051  -0.301  0.00  0.00    -0.046 S 
ATOM     11  C   UNL     1      -4.131  -1.610  -0.745  0.00  0.00    +0.162 C 
ATOM     12  C   UNL     1      -2.001  -4.836  -0.869  0.00  0.00    +0.066 C 
ENDROOT
BRANCH   9  13
ATOM     13  C   UNL     1      -9.450  -0.564   0.027  0.00  0.00    -0.023 A 
ATOM     14  C   UNL     1      -8.665   0.217   0.884  0.00  0.00    +0.011 A 
ATOM     15  C   UNL     1      -8.955   1.553   1.052  0.00  0.00    +0.047 A 
ATOM     16  C   UNL     1     -10.024   2.126   0.373  0.00  0.00    +0.131 A 
ATOM     17  C   UNL     1     -10.807   1.355  -0.479  0.00  0.00    +0.060 A 
ATOM     18  C   UNL     1     -10.523   0.019  -0.659  0.00  0.00    +0.027 A 
ATOM     19 BR   UNL     1     -12.259   2.143  -1.399  0.00  0.00    -0.047 Br
BRANCH  16  20
ATOM     20  O   UNL     1     -10.305   3.443   0.543  0.00  0.00    -0.506 OA
ATOM     21  H   UNL     1      -9.851   4.026  -0.081  0.00  0.00    +0.292 HD
ENDBRANCH  16  20
ENDBRANCH   9  13
BRANCH  11  22
ATOM     22  C   UNL     1      -4.180  -0.770  -1.995  0.00  0.00    -0.020 A 
ATOM     23  C   UNL     1      -4.715  -1.292  -3.158  0.00  0.00    +0.009 A 
ATOM     24  C   UNL     1      -4.760  -0.522  -4.305  0.00  0.00    +0.039 A 
ATOM     25  C   UNL     1      -4.269   0.773  -4.289  0.00  0.00    +0.123 A 
ATOM     26  C   UNL     1      -3.733   1.294  -3.124  0.00  0.00    +0.039 A 
ATOM     27  C   UNL     1      -3.694   0.525  -1.977  0.00  0.00    +0.009 A 
ATOM     28  F   UNL     1      -4.313   1.526  -5.410  0.00  0.00    -0.205 F 
ENDBRANCH  11  22
BRANCH   1  29
ATOM     29  C   UNL     1      -1.643  -2.024  -1.023  0.00  0.00    +0.339 C 
ATOM     30  O   UNL     1      -0.682  -2.771  -0.962  0.00  0.00    -0.245 OA
BRANCH  29  31
ATOM     31  O   UNL     1      -1.460  -0.706  -1.254  0.00  0.00    -0.462 OA
BRANCH  31  33
ATOM     32  C   UNL     1      -0.107   1.253  -1.668  0.00  0.00    +0.048 C 
ATOM     33  C   UNL     1      -0.114  -0.257  -1.417  0.00  0.00    +0.229 C 
ENDBRANCH  31  33
ENDBRANCH  29  31
ENDBRANCH   1  29
TORSDOF 6
