REMARK  Name = ZINC35659405
REMARK  3 active torsions:
REMARK  status: ('A' for Active; 'I' for Inactive)
REMARK    1  A    between atoms: C_6  and  C_7
REMARK    2  A    between atoms: C_9  and  C_12
REMARK    3  A    between atoms: C_17  and  N_18
REMARK                            x       y       z     vdW  Elec       q    Type
REMARK                         _______ _______ _______ _____ _____    ______ ____
ROOT
ATOM      1  C   UNL     1      -1.912  -0.515  -0.603  0.00  0.00    +0.202 A 
ATOM      2  N   UNL     1      -1.842  -1.853  -0.530  0.00  0.00    -0.187 NA
ATOM      3  C   UNL     1      -3.031  -2.350  -0.274  0.00  0.00    +0.261 A 
ATOM      4  O   UNL     1      -3.901  -1.330  -0.176  0.00  0.00    -0.332 OA
ATOM      5  N   UNL     1      -3.151  -0.143  -0.387  0.00  0.00    -0.056 NA
ENDROOT
BRANCH   1  11
ATOM      6  C   UNL     1      -0.974   1.774  -0.920  0.00  0.00    +0.013 A 
ATOM      7  C   UNL     1       0.089   2.616  -1.174  0.00  0.00    +0.016 A 
ATOM      8  C   UNL     1       1.354   2.095  -1.385  0.00  0.00    +0.018 A 
ATOM      9  C   UNL     1       1.559   0.727  -1.342  0.00  0.00    +0.016 A 
ATOM     10  C   UNL     1       0.503  -0.124  -1.089  0.00  0.00    +0.013 A 
ATOM     11  C   UNL     1      -0.772   0.396  -0.876  0.00  0.00    +0.023 A 
ATOM     12 BR   UNL     1       2.806   3.255  -1.733  0.00  0.00    -0.050 Br
ENDBRANCH   1  11
BRANCH   3  13
ATOM     13  C   UNL     1      -3.355  -3.782  -0.121  0.00  0.00    +0.063 A 
ATOM     14  C   UNL     1      -2.877  -4.713  -1.046  0.00  0.00    +0.053 A 
ATOM     15  C   UNL     1      -3.184  -6.050  -0.897  0.00  0.00    +0.124 A 
ATOM     16  C   UNL     1      -3.965  -6.474   0.168  0.00  0.00    +0.040 A 
ATOM     17  C   UNL     1      -4.444  -5.564   1.088  0.00  0.00    +0.026 A 
ATOM     18  C   UNL     1      -4.141  -4.215   0.957  0.00  0.00    +0.037 A 
ATOM     19  F   UNL     1      -2.721  -6.950  -1.792  0.00  0.00    -0.205 F 
BRANCH  18  20
ATOM     20  N   UNL     1      -4.618  -3.297   1.887  0.00  0.00    -0.357 N 
ATOM     21  H   UNL     1      -4.334  -2.370   1.845  0.00  0.00    +0.142 HD
ATOM     22  H   UNL     1      -5.235  -3.584   2.579  0.00  0.00    +0.142 HD
ENDBRANCH  18  20
ENDBRANCH   3  13
TORSDOF 3
