REMARK  Name = ZINC31630666
REMARK  3 active torsions:
REMARK  status: ('A' for Active; 'I' for Inactive)
REMARK    1  A    between atoms: N_13  and  C_17
REMARK    2  A    between atoms: C_17  and  C_18
REMARK    3  A    between atoms: N_20  and  C_21
REMARK                            x       y       z     vdW  Elec       q    Type
REMARK                         _______ _______ _______ _____ _____    ______ ____
ROOT
ATOM      1  C   UNL     1      -2.399  -0.312  -0.091  0.00  0.00    +0.235 C 
ATOM      2  O   UNL     1      -1.339  -0.902  -0.099  0.00  0.00    -0.274 OA
ATOM      3  N   UNL     1      -2.422   1.031   0.019  0.00  0.00    -0.284 N 
ATOM      4  H   UNL     1      -3.382   1.559   0.114  0.00  0.00    +0.155 HD
ENDROOT
BRANCH   3   5
ATOM      5  C   UNL     1      -1.228   1.751   0.012  0.00  0.00    +0.034 A 
ATOM      6  C   UNL     1      -1.116   2.913   0.767  0.00  0.00    +0.024 A 
ATOM      7  C   UNL     1       0.063   3.631   0.772  0.00  0.00    +0.014 A 
ATOM      8  C   UNL     1       1.148   3.195   0.013  0.00  0.00    +0.033 A 
ATOM      9  C   UNL     1       1.037   2.022  -0.758  0.00  0.00    +0.035 A 
ATOM     10  C   UNL     1      -0.155   1.307  -0.756  0.00  0.00    +0.035 A 
ATOM     11  C   UNL     1       2.184   1.555  -1.565  0.00  0.00    +0.195 C 
ATOM     12  O   UNL     1       2.088   0.543  -2.230  0.00  0.00    -0.287 OA
ATOM     13  C   UNL     1       3.447   2.322  -1.562  0.00  0.00    +0.033 A 
ATOM     14  C   UNL     1       4.533   1.889  -2.317  0.00  0.00    +0.012 A 
ATOM     15  C   UNL     1       5.712   2.614  -2.308  0.00  0.00    +0.001 A 
ATOM     16  C   UNL     1       5.820   3.766  -1.551  0.00  0.00    +0.001 A 
ATOM     17  C   UNL     1       4.751   4.210  -0.793  0.00  0.00    +0.012 A 
ATOM     18  C   UNL     1       3.557   3.493  -0.791  0.00  0.00    +0.033 A 
ATOM     19  C   UNL     1       2.410   3.960   0.015  0.00  0.00    +0.195 C 
ATOM     20  O   UNL     1       2.506   4.972   0.681  0.00  0.00    -0.287 OA
ENDBRANCH   3   5
BRANCH   1  21
ATOM     21  C   UNL     1      -3.690  -1.081  -0.203  0.00  0.00    +0.214 C 
BRANCH  21  34
ATOM     22  C   UNL     1       0.881  -5.993   1.449  0.00  0.00    +0.000 A 
ATOM     23  C   UNL     1       0.748  -4.991   0.506  0.00  0.00    +0.000 A 
ATOM     24  C   UNL     1      -0.509  -4.592   0.103  0.00  0.00    +0.006 A 
ATOM     25  C   UNL     1      -1.645  -5.188   0.637  0.00  0.00    -0.012 A 
ATOM     26  C   UNL     1      -1.512  -6.188   1.575  0.00  0.00    -0.042 A 
ATOM     27  C   UNL     1      -0.245  -6.588   1.980  0.00  0.00    +0.004 A 
ATOM     28  C   UNL     1      -2.699  -6.883   2.189  0.00  0.00    +0.035 C 
ATOM     29  C   UNL     1      -3.967  -6.053   1.998  0.00  0.00    +0.008 C 
ATOM     30  C   UNL     1      -4.091  -5.692   0.512  0.00  0.00    +0.040 C 
ATOM     31  C   UNL     1      -2.986  -4.705   0.160  0.00  0.00    +0.138 C 
ATOM     32  C   UNL     1      -3.290  -3.345   0.746  0.00  0.00    +0.251 C 
ATOM     33  O   UNL     1      -3.409  -3.062   1.919  0.00  0.00    -0.272 OA
ATOM     34  N   UNL     1      -3.398  -2.513  -0.310  0.00  0.00    -0.215 N 
ATOM     35  C   UNL     1      -3.213  -3.158  -1.467  0.00  0.00    +0.310 C 
ATOM     36  O   UNL     1      -3.268  -2.622  -2.557  0.00  0.00    -0.252 OA
ATOM     37  N   UNL     1      -2.954  -4.468  -1.290  0.00  0.00    -0.281 N 
ATOM     38  H   UNL     1      -2.747  -5.299  -1.979  0.00  0.00    +0.152 HD
ENDBRANCH  21  34
ENDBRANCH   1  21
TORSDOF 3
