REMARK  Name = ZINC39530136
REMARK  6 active torsions:
REMARK  status: ('A' for Active; 'I' for Inactive)
REMARK    1  A    between atoms: C_4  and  O_7
REMARK    2  A    between atoms: O_7  and  S_8
REMARK    3  A    between atoms: S_8  and  C_11
REMARK    4  A    between atoms: N_14  and  C_18
REMARK    5  A    between atoms: C_23  and  C_24
REMARK    6  A    between atoms: C_29  and  O_30
REMARK                            x       y       z     vdW  Elec       q    Type
REMARK                         _______ _______ _______ _____ _____    ______ ____
ROOT
ATOM      1  C   UNL     1       2.846  -2.420   1.844  0.00  0.00    +0.133 C 
ATOM      2  C   UNL     1       3.054  -2.723   3.331  0.00  0.00    +0.115 C 
ATOM      3  N   UNL     1       2.162  -3.829   3.711  0.00  0.00    -0.331 N 
ATOM      4  C   UNL     1       0.739  -3.727   3.350  0.00  0.00    +0.086 C 
ATOM      5  C   UNL     1       0.640  -3.376   1.861  0.00  0.00    -0.061 C 
ATOM      6  N   UNL     1       1.423  -2.163   1.593  0.00  0.00    +0.398 N 
ATOM      7  H   UNL     1       1.105  -1.419   2.195  0.00  0.00    -0.083 HD
ATOM      8  H   UNL     1       1.296  -1.889   0.629  0.00  0.00    -0.083 HD
ENDROOT
BRANCH   3   9
ATOM      9  C   UNL     1       2.650  -4.944   4.394  0.00  0.00    +0.038 A 
ATOM     10  C   UNL     1       2.978  -6.098   3.699  0.00  0.00    +0.025 A 
ATOM     11  C   UNL     1       3.462  -7.201   4.377  0.00  0.00    +0.017 A 
ATOM     12  C   UNL     1       3.622  -7.161   5.752  0.00  0.00    +0.019 A 
ATOM     13  C   UNL     1       3.299  -6.019   6.457  0.00  0.00    +0.025 A 
ATOM     14  C   UNL     1       2.817  -4.899   5.784  0.00  0.00    +0.008 A 
ATOM     15 BR   UNL     1       4.283  -8.678   6.667  0.00  0.00    -0.050 Br
BRANCH  14  16
ATOM     16  C   UNL     1       2.474  -3.667   6.535  0.00  0.00    +0.025 A 
ATOM     17  C   UNL     1       3.479  -2.916   7.142  0.00  0.00    +0.012 A 
ATOM     18  C   UNL     1       3.155  -1.771   7.840  0.00  0.00    +0.001 A 
ATOM     19  C   UNL     1       1.836  -1.365   7.941  0.00  0.00    +0.004 A 
ATOM     20  C   UNL     1       0.832  -2.103   7.344  0.00  0.00    +0.046 A 
ATOM     21  C   UNL     1       1.143  -3.252   6.634  0.00  0.00    +0.125 A 
BRANCH  21  22
ATOM     22  O   UNL     1       0.157  -3.975   6.042  0.00  0.00    -0.506 OA
ATOM     23  H   UNL     1      -0.222  -4.661   6.608  0.00  0.00    +0.292 HD
ENDBRANCH  21  22
ENDBRANCH  14  16
ENDBRANCH   3   9
BRANCH   1  24
ATOM     24  S   UNL     1       3.815  -0.957   1.384  0.00  0.00    +0.109 S 
ATOM     25  O   UNL     1       5.202  -1.267   1.389  0.00  0.00    -0.138 OA
ATOM     26  O   UNL     1       3.326   0.189   2.067  0.00  0.00    -0.138 OA
BRANCH  24  27
ATOM     27  O   UNL     1       3.478  -0.709  -0.080  0.00  0.00    -0.347 OA
BRANCH  27  31
ATOM     28  C   UNL     1       5.295  -3.338  -2.689  0.00  0.00    +0.000 A 
ATOM     29  C   UNL     1       4.088  -3.671  -2.103  0.00  0.00    +0.004 A 
ATOM     30  C   UNL     1       3.477  -2.792  -1.229  0.00  0.00    +0.048 A 
ATOM     31  C   UNL     1       4.077  -1.575  -0.939  0.00  0.00    +0.156 A 
ATOM     32  C   UNL     1       5.289  -1.244  -1.528  0.00  0.00    +0.048 A 
ATOM     33  C   UNL     1       5.895  -2.126  -2.402  0.00  0.00    +0.004 A 
ENDBRANCH  27  31
ENDBRANCH  24  27
ENDBRANCH   1  24
TORSDOF 6
