REMARK  Name = ZINC30979331
REMARK  8 active torsions:
REMARK  status: ('A' for Active; 'I' for Inactive)
REMARK    1  A    between atoms: C_1  and  C_2
REMARK    2  A    between atoms: C_2  and  C_3
REMARK    3  A    between atoms: C_2  and  C_4
REMARK    4  A    between atoms: C_9  and  N_10
REMARK    5  A    between atoms: C_11  and  C_13
REMARK    6  A    between atoms: N_16  and  C_19
REMARK    7  A    between atoms: C_19  and  C_20
REMARK    8  A    between atoms: C_22  and  C_25
REMARK                            x       y       z     vdW  Elec       q    Type
REMARK                         _______ _______ _______ _____ _____    ______ ____
ROOT
ATOM      1  C   UNL     1       2.475   0.780   0.093  0.00  0.00    +0.072 C 
ATOM      2  C   UNL     1       2.494  -0.005   1.407  0.00  0.00    -0.006 C 
ATOM      3  C   UNL     1       3.822  -0.756   1.528  0.00  0.00    -0.077 C 
ATOM      4  N   UNL     1       4.933   0.204   1.495  0.00  0.00    +0.386 N 
ATOM      5  C   UNL     1       4.964   0.936   0.223  0.00  0.00    -0.077 C 
ATOM      6  C   UNL     1       3.670   1.738   0.062  0.00  0.00    -0.006 C 
ATOM      7  H   UNL     1       4.768   0.936   2.299  0.00  0.00    -0.081 HD
ENDROOT
BRANCH   1   9
ATOM      8  N   UNL     1       0.008   0.930   0.004  0.00  0.00    -0.285 N 
ATOM      9  C   UNL     1       1.195   1.569  -0.004  0.00  0.00    +0.220 C 
ATOM     10  O   UNL     1       1.232   2.778  -0.089  0.00  0.00    -0.275 OA
ATOM     11  H   UNL     1      -0.026  -0.169  -0.009  0.00  0.00    +0.155 HD
BRANCH   8  17
ATOM     12  C   UNL     1      -2.353   1.113  -0.475  0.00  0.00    -0.024 A 
ATOM     13  C   UNL     1      -3.526   1.840  -0.446  0.00  0.00    +0.006 A 
ATOM     14  C   UNL     1      -3.535   3.122   0.073  0.00  0.00    +0.000 A 
ATOM     15  C   UNL     1      -2.370   3.678   0.570  0.00  0.00    +0.002 A 
ATOM     16  C   UNL     1      -1.194   2.954   0.548  0.00  0.00    +0.023 A 
ATOM     17  C   UNL     1      -1.182   1.666   0.028  0.00  0.00    +0.037 A 
BRANCH  12  19
ATOM     18  C   UNL     1      -3.398  -1.131  -0.335  0.00  0.00    +0.012 C 
ATOM     19  C   UNL     1      -2.343  -0.281  -1.046  0.00  0.00    +0.015 C 
ATOM     20  C   UNL     1      -2.660  -0.222  -2.542  0.00  0.00    +0.012 C 
ENDBRANCH  12  19
ENDBRANCH   8  17
ENDBRANCH   1   9
BRANCH   4  21
ATOM     21  C   UNL     1       6.216  -0.466   1.747  0.00  0.00    +0.022 C 
BRANCH  21  22
ATOM     22  C   UNL     1       6.236  -0.997   3.158  0.00  0.00    +0.211 A 
ATOM     23  N   UNL     1       5.837  -2.182   3.548  0.00  0.00    -0.193 NA
ATOM     24  C   UNL     1       6.041  -2.211   4.885  0.00  0.00    +0.202 A 
ATOM     25  N   UNL     1       6.548  -1.054   5.223  0.00  0.00    -0.056 NA
ATOM     26  O   UNL     1       6.670  -0.350   4.243  0.00  0.00    -0.340 OA
BRANCH  24  27
ATOM     27  C   UNL     1       5.746  -3.345   5.796  0.00  0.00    +0.023 A 
ATOM     28  C   UNL     1       5.198  -4.523   5.293  0.00  0.00    +0.013 A 
ATOM     29  C   UNL     1       4.930  -5.575   6.144  0.00  0.00    +0.016 A 
ATOM     30  C   UNL     1       5.195  -5.458   7.497  0.00  0.00    +0.018 A 
ATOM     31  C   UNL     1       5.734  -4.288   8.004  0.00  0.00    +0.016 A 
ATOM     32  C   UNL     1       6.010  -3.232   7.160  0.00  0.00    +0.013 A 
ATOM     33 BR   UNL     1       4.819  -6.902   8.659  0.00  0.00    -0.050 Br
ENDBRANCH  24  27
ENDBRANCH  21  22
ENDBRANCH   4  21
TORSDOF 6
