REMARK  Name = ZINC08299836
REMARK  7 active torsions:
REMARK  status: ('A' for Active; 'I' for Inactive)
REMARK    1  A    between atoms: C_6  and  C_7
REMARK    2  A    between atoms: C_7  and  N_8
REMARK    3  A    between atoms: C_9  and  C_11
REMARK    4  A    between atoms: C_19  and  C_21
REMARK    5  A    between atoms: C_21  and  N_22
REMARK    6  A    between atoms: C_24  and  C_27
REMARK    7  A    between atoms: C_27  and  O_32
REMARK                            x       y       z     vdW  Elec       q    Type
REMARK                         _______ _______ _______ _____ _____    ______ ____
ROOT
ATOM      1  C   UNL     1       0.690   3.638  -1.204  0.00  0.00    +0.061 C 
ATOM      2  C   UNL     1       1.386   3.063   0.052  0.00  0.00    -0.065 C 
ATOM      3  C   UNL     1       2.101   1.102  -1.175  0.00  0.00    -0.078 C 
ATOM      4  C   UNL     1       1.423   1.609  -2.450  0.00  0.00    -0.015 C 
ATOM      5  C   UNL     1       0.208   2.460  -2.060  0.00  0.00    -0.004 C 
ATOM      6  C   UNL     1      -0.751   1.594  -1.234  0.00  0.00    -0.010 C 
ATOM      7  C   UNL     1      -0.013   1.086   0.008  0.00  0.00    -0.046 C 
ATOM      8  N   UNL     1       1.379   1.585   0.021  0.00  0.00    +0.383 N 
ATOM      9  H   UNL     1       1.852   1.231   0.862  0.00  0.00    -0.081 HD
ENDROOT
BRANCH   1  11
ATOM     10  N   UNL     1      -0.305   5.569  -0.022  0.00  0.00    -0.311 N 
ATOM     11  C   UNL     1      -0.492   4.474  -0.785  0.00  0.00    +0.215 C 
ATOM     12  O   UNL     1      -1.610   4.162  -1.134  0.00  0.00    -0.276 OA
ATOM     13  H   UNL     1       0.589   5.820   0.258  0.00  0.00    +0.149 HD
BRANCH  10  14
ATOM     14  C   UNL     1      -1.454   6.382   0.386  0.00  0.00    +0.139 C 
BRANCH  14  20
ATOM     15  C   UNL     1      -0.886   7.404   2.599  0.00  0.00    +0.008 A 
ATOM     16  C   UNL     1      -0.445   8.462   3.371  0.00  0.00    +0.038 A 
ATOM     17  C   UNL     1      -0.105   9.662   2.769  0.00  0.00    +0.123 A 
ATOM     18  C   UNL     1      -0.202   9.798   1.395  0.00  0.00    +0.038 A 
ATOM     19  C   UNL     1      -0.638   8.736   0.625  0.00  0.00    +0.008 A 
ATOM     20  C   UNL     1      -0.978   7.539   1.227  0.00  0.00    -0.030 A 
ATOM     21  F   UNL     1       0.322  10.699   3.522  0.00  0.00    -0.205 F 
ENDBRANCH  14  20
ENDBRANCH  10  14
ENDBRANCH   1  11
BRANCH   7  22
ATOM     22  C   UNL     1      -0.730   1.580   1.266  0.00  0.00    +0.130 C 
BRANCH  22  23
ATOM     23  N   UNL     1      -0.094   0.998   2.451  0.00  0.00    -0.253 N 
ATOM     24  C   UNL     1       0.406   1.688   3.502  0.00  0.00    +0.136 A 
ATOM     25  C   UNL     1       0.892   0.763   4.363  0.00  0.00    +0.114 A 
ATOM     26  N   UNL     1       0.676  -0.431   3.800  0.00  0.00    -0.132 NA
ATOM     27  N   UNL     1       0.091  -0.258   2.668  0.00  0.00    -0.065 NA
BRANCH  25  28
ATOM     28  C   UNL     1       1.552   1.028   5.691  0.00  0.00    +0.111 C 
ATOM     29  C   UNL     1       2.838   1.855   5.487  0.00  0.00    +0.041 C 
ATOM     30  C   UNL     1       3.828   1.282   6.533  0.00  0.00    +0.003 C 
ATOM     31  C   UNL     1       3.513  -0.234   6.508  0.00  0.00    +0.003 C 
ATOM     32  C   UNL     1       1.981  -0.300   6.341  0.00  0.00    +0.041 C 
BRANCH  28  33
ATOM     33  O   UNL     1       0.653   1.727   6.554  0.00  0.00    -0.382 OA
ATOM     34  H   UNL     1       0.354   2.578   6.205  0.00  0.00    +0.211 HD
ENDBRANCH  28  33
ENDBRANCH  25  28
ENDBRANCH  22  23
ENDBRANCH   7  22
TORSDOF 7
