REMARK  Name = ZINC39944943
REMARK  15 active torsions:
REMARK  status: ('A' for Active; 'I' for Inactive)
REMARK    1  A    between atoms: C_1  and  C_2
REMARK    2  A    between atoms: C_5  and  C_19
REMARK    3  A    between atoms: C_7  and  S_8
REMARK    4  A    between atoms: S_8  and  N_11
REMARK    5  A    between atoms: N_11  and  C_12
REMARK    6  A    between atoms: C_19  and  O_21
REMARK    7  A    between atoms: O_21  and  C_22
REMARK    8  A    between atoms: C_22  and  C_24
REMARK    9  A    between atoms: C_22  and  C_25
REMARK   10  A    between atoms: C_25  and  C_27
REMARK   11  A    between atoms: C_29  and  C_38
REMARK   12  A    between atoms: C_31  and  C_34
REMARK   13  A    between atoms: C_32  and  C_33
REMARK   14  A    between atoms: C_34  and  O_36
REMARK   15  A    between atoms: O_36  and  C_37
REMARK                            x       y       z     vdW  Elec       q    Type
REMARK                         _______ _______ _______ _____ _____    ______ ____
ROOT
ATOM      1  C   UNL     1      -0.428   1.500  -0.007  0.00  0.00    +0.046 C 
ATOM      2  C   UNL     1      -0.292   0.000  -0.047  0.00  0.00    -0.024 A 
ATOM      3  C   UNL     1      -0.467  -0.676  -1.242  0.00  0.00    +0.006 A 
ATOM      4  C   UNL     1      -0.345  -2.049  -1.285  0.00  0.00    +0.015 A 
ATOM      5  C   UNL     1      -0.044  -2.757  -0.119  0.00  0.00    +0.061 A 
ATOM      6  C   UNL     1       0.132  -2.069   1.082  0.00  0.00    +0.044 A 
ATOM      7  C   UNL     1       0.012  -0.694   1.110  0.00  0.00    +0.112 A 
ENDROOT
BRANCH   7   8
ATOM      8  S   UNL     1       0.240   0.177   2.624  0.00  0.00    +0.073 S 
ATOM      9  O   UNL     1       0.491  -0.802   3.623  0.00  0.00    -0.150 OA
ATOM     10  O   UNL     1       1.147   1.236   2.351  0.00  0.00    -0.150 OA
BRANCH   8  11
ATOM     11  N   UNL     1      -1.209   0.882   3.007  0.00  0.00    -0.216 N 
ATOM     12  H   UNL     1      -1.297   1.848   2.994  0.00  0.00    +0.174 HD
BRANCH  11  13
ATOM     13  C   UNL     1      -2.306   0.084   3.348  0.00  0.00    +0.048 A 
ATOM     14  C   UNL     1      -2.622  -1.029   2.580  0.00  0.00    +0.027 A 
ATOM     15  C   UNL     1      -3.705  -1.816   2.919  0.00  0.00    +0.040 A 
ATOM     16  C   UNL     1      -4.476  -1.495   4.023  0.00  0.00    +0.124 A 
ATOM     17  C   UNL     1      -4.163  -0.386   4.790  0.00  0.00    +0.040 A 
ATOM     18  C   UNL     1      -3.078   0.401   4.458  0.00  0.00    +0.027 A 
ATOM     19  F   UNL     1      -5.536  -2.266   4.353  0.00  0.00    -0.205 F 
ENDBRANCH  11  13
ENDBRANCH   8  11
ENDBRANCH   7   8
BRANCH   5  20
ATOM     20  C   UNL     1       0.088  -4.228  -0.158  0.00  0.00    +0.340 C 
ATOM     21  O   UNL     1       0.350  -4.841   0.857  0.00  0.00    -0.245 OA
BRANCH  20  22
ATOM     22  O   UNL     1      -0.082  -4.889  -1.319  0.00  0.00    -0.450 OA
BRANCH  22  23
ATOM     23  C   UNL     1       0.060  -6.311  -1.283  0.00  0.00    +0.246 C 
ATOM     24  C   UNL     1      -1.298  -6.952  -0.987  0.00  0.00    +0.061 C 
BRANCH  23  25
ATOM     25  C   UNL     1       0.566  -6.799  -2.616  0.00  0.00    +0.221 C 
ATOM     26  O   UNL     1       0.528  -6.072  -3.580  0.00  0.00    -0.286 OA
BRANCH  25  27
ATOM     27  C   UNL     1       1.112  -8.171  -2.744  0.00  0.00    +0.109 C 
ATOM     28  N   UNL     1       1.190  -9.026  -1.771  0.00  0.00    -0.272 NA
ATOM     29  C   UNL     1       1.781 -10.265  -2.289  0.00  0.00    +0.140 C 
ATOM     30  C   UNL     1       2.049 -10.009  -3.755  0.00  0.00    +0.065 C 
ATOM     31  C   UNL     1       1.631  -8.749  -3.992  0.00  0.00    -0.010 C 
ATOM     32  C   UNL     1       1.690  -8.044  -5.323  0.00  0.00    +0.046 C 
ATOM     33  C   UNL     1       0.800 -11.428  -2.125  0.00  0.00    +0.038 C 
BRANCH  30  34
ATOM     34  C   UNL     1       2.639 -10.943  -4.724  0.00  0.00    +0.337 C 
ATOM     35  O   UNL     1       2.797 -10.600  -5.879  0.00  0.00    -0.245 OA
BRANCH  34  36
ATOM     36  O   UNL     1       3.004 -12.180  -4.331  0.00  0.00    -0.465 OA
ATOM     37  C   UNL     1       3.571 -13.035  -5.326  0.00  0.00    +0.280 C 
ENDBRANCH  34  36
ENDBRANCH  30  34
ENDBRANCH  25  27
ENDBRANCH  23  25
ENDBRANCH  22  23
ENDBRANCH  20  22
ENDBRANCH   5  20
TORSDOF 10
