REMARK  Name = ZINC02362807
REMARK  5 active torsions:
REMARK  status: ('A' for Active; 'I' for Inactive)
REMARK    1  A    between atoms: C_1  and  C_2
REMARK    2  A    between atoms: C_5  and  C_8
REMARK    3  A    between atoms: C_8  and  C_10
REMARK    4  A    between atoms: C_11  and  N_28
REMARK    5  A    between atoms: C_13  and  C_23
REMARK                            x       y       z     vdW  Elec       q    Type
REMARK                         _______ _______ _______ _____ _____    ______ ____
ROOT
ATOM      1  C   UNL     1      -2.956   1.858  -3.478  0.00  0.00    +0.083 A 
ATOM      2  C   UNL     1      -2.065   1.506  -2.479  0.00  0.00    +0.053 A 
ATOM      3  C   UNL     1      -2.017   2.276  -1.302  0.00  0.00    +0.040 A 
ATOM      4  C   UNL     1      -1.189   2.091  -0.151  0.00  0.00    +0.034 A 
ATOM      5  C   UNL     1      -1.306   2.975   0.926  0.00  0.00    -0.015 A 
ATOM      6  C   UNL     1      -2.213   4.009   0.871  0.00  0.00    +0.046 A 
ATOM      7  N   UNL     1      -2.981   4.165  -0.202  0.00  0.00    -0.244 NA
ATOM      8  C   UNL     1      -2.915   3.365  -1.240  0.00  0.00    +0.112 A 
ATOM      9  S   UNL     1      -3.772   3.290  -2.795  0.00  0.00    -0.064 S 
ATOM     10  C   UNL     1      -2.379   5.002   1.992  0.00  0.00    +0.056 C 
ATOM     11  C   UNL     1      -1.776   4.457   3.286  0.00  0.00    +0.006 C 
ATOM     12  C   UNL     1      -0.346   3.989   2.993  0.00  0.00    +0.005 C 
ATOM     13  C   UNL     1      -0.418   2.738   2.121  0.00  0.00    +0.038 C 
ENDROOT
BRANCH   4  14
ATOM     14  C   UNL     1      -0.219   0.983  -0.104  0.00  0.00    +0.136 A 
ATOM     15  C   UNL     1      -0.337  -0.152   0.641  0.00  0.00    +0.050 A 
ATOM     16  C   UNL     1       0.806  -0.929   0.377  0.00  0.00    +0.042 A 
ATOM     17  C   UNL     1       1.559  -0.240  -0.505  0.00  0.00    +0.196 A 
ATOM     18  O   UNL     1       0.937   0.913  -0.793  0.00  0.00    -0.463 OA
ENDBRANCH   4  14
BRANCH   2  19
ATOM     19  N   UNL     1      -1.227   0.413  -2.638  0.00  0.00    -0.356 N 
ATOM     20  H   UNL     1      -1.267  -0.115  -3.451  0.00  0.00    +0.142 HD
ATOM     21  H   UNL     1      -0.600   0.176  -1.936  0.00  0.00    +0.142 HD
ENDBRANCH   2  19
BRANCH   1  22
ATOM     22  C   UNL     1      -3.167   1.237  -4.730  0.00  0.00    +0.202 C 
ATOM     23  O   UNL     1      -2.434   0.335  -5.093  0.00  0.00    -0.286 OA
BRANCH  22  28
ATOM     24  C   UNL     1      -7.489   2.973  -8.112  0.00  0.00    +0.044 C 
ATOM     25  C   UNL     1      -6.357   2.519  -7.226  0.00  0.00    -0.050 A 
ATOM     26  C   UNL     1      -5.216   1.978  -7.791  0.00  0.00    +0.004 A 
ATOM     27  C   UNL     1      -4.176   1.560  -6.986  0.00  0.00    +0.012 A 
ATOM     28  C   UNL     1      -4.278   1.684  -5.599  0.00  0.00    +0.023 A 
ATOM     29  C   UNL     1      -5.435   2.225  -5.036  0.00  0.00    +0.012 A 
ATOM     30  C   UNL     1      -6.465   2.644  -5.853  0.00  0.00    +0.004 A 
ENDBRANCH  22  28
ENDBRANCH   1  22
TORSDOF 4
