REMARK  Name = ZINC33787618
REMARK  9 active torsions:
REMARK  status: ('A' for Active; 'I' for Inactive)
REMARK    1  A    between atoms: C_1  and  N_2
REMARK    2  A    between atoms: C_6  and  C_7
REMARK    3  A    between atoms: C_9  and  O_18
REMARK    4  A    between atoms: C_10  and  O_14
REMARK    5  A    between atoms: O_14  and  C_15
REMARK    6  A    between atoms: C_15  and  C_16
REMARK    7  A    between atoms: O_18  and  C_19
REMARK    8  A    between atoms: N_22  and  C_23
REMARK    9  A    between atoms: C_27  and  C_29
REMARK                            x       y       z     vdW  Elec       q    Type
REMARK                         _______ _______ _______ _____ _____    ______ ____
ROOT
ATOM      1  C   UNL     1      -0.866   1.347   0.058  0.00  0.00    +0.140 C 
ATOM      2  N   UNL     1      -0.488  -0.068   0.029  0.00  0.00    -0.249 N 
ATOM      3  C   UNL     1      -0.464  -0.716  -1.124  0.00  0.00    +0.259 C 
ATOM      4  O   UNL     1      -0.750  -0.164  -2.170  0.00  0.00    -0.269 OA
ATOM      5  C   UNL     1      -0.074  -2.139  -1.084  0.00  0.00    +0.078 C 
ATOM      6  C   UNL     1       0.034  -3.031  -2.101  0.00  0.00    +0.028 C 
ATOM      7  S   UNL     1       0.217  -2.371   0.664  0.00  0.00    -0.049 S 
ATOM      8  C   UNL     1      -0.155  -0.710   1.202  0.00  0.00    +0.168 C 
ATOM      9  N   UNL     1      -0.122  -0.219   2.421  0.00  0.00    -0.225 NA
ENDROOT
BRANCH   6  10
ATOM     10  C   UNL     1      -0.089  -2.577  -3.492  0.00  0.00    -0.019 A 
ATOM     11  C   UNL     1      -0.790  -3.352  -4.425  0.00  0.00    +0.057 A 
ATOM     12  C   UNL     1      -0.902  -2.920  -5.731  0.00  0.00    +0.164 A 
ATOM     13  C   UNL     1      -0.320  -1.714  -6.121  0.00  0.00    +0.182 A 
ATOM     14  C   UNL     1       0.376  -0.944  -5.197  0.00  0.00    +0.087 A 
ATOM     15  C   UNL     1       0.488  -1.365  -3.889  0.00  0.00    +0.032 A 
ATOM     16 CL   UNL     1       1.099   0.555  -5.690  0.00  0.00    -0.080 Cl
BRANCH  12  17
ATOM     17  O   UNL     1      -1.582  -3.670  -6.639  0.00  0.00    -0.491 OA
ATOM     18  C   UNL     1      -2.153  -4.894  -6.172  0.00  0.00    +0.277 C 
ENDBRANCH  12  17
BRANCH  13  19
ATOM     19  O   UNL     1      -0.432  -1.292  -7.407  0.00  0.00    -0.474 OA
BRANCH  19  20
ATOM     20  C   UNL     1      -1.560  -0.475  -7.726  0.00  0.00    +0.317 C 
BRANCH  20  21
ATOM     21  C   UNL     1      -1.518  -0.115  -9.153  0.00  0.00    -0.065 C 
ATOM     22  C   UNL     1      -1.484   0.172 -10.291  0.00  0.00    +0.007 C 
ENDBRANCH  20  21
ENDBRANCH  19  20
ENDBRANCH  13  19
ENDBRANCH   6  10
BRANCH   9  23
ATOM     23  C   UNL     1       0.237  -1.020   3.471  0.00  0.00    +0.067 A 
ATOM     24  C   UNL     1      -0.289  -2.311   3.580  0.00  0.00    +0.029 A 
ATOM     25  C   UNL     1       0.070  -3.120   4.639  0.00  0.00    +0.023 A 
ATOM     26  C   UNL     1       0.953  -2.662   5.599  0.00  0.00    +0.055 A 
ATOM     27  C   UNL     1       1.487  -1.372   5.503  0.00  0.00    +0.083 A 
ATOM     28  C   UNL     1       1.132  -0.552   4.431  0.00  0.00    +0.044 A 
ATOM     29 CL   UNL     1       1.399  -3.688   6.926  0.00  0.00    -0.083 Cl
BRANCH  27  30
ATOM     30  C   UNL     1       2.429  -0.884   6.527  0.00  0.00    +0.388 C 
ATOM     31  O   UNL     1       2.895   0.244   6.442  0.00  0.00    -0.241 OA
ATOM     32  O   UNL     1       2.743  -1.606   7.463  0.00  0.00    -0.241 OA
ENDBRANCH  27  30
ENDBRANCH   9  23
TORSDOF 7
