REMARK  Name = ZINC09308045
REMARK  7 active torsions:
REMARK  status: ('A' for Active; 'I' for Inactive)
REMARK    1  A    between atoms: C_7  and  N_9
REMARK    2  A    between atoms: N_9  and  C_10
REMARK    3  A    between atoms: C_10  and  S_12
REMARK    4  A    between atoms: S_12  and  S_13
REMARK    5  A    between atoms: S_13  and  C_14
REMARK    6  A    between atoms: C_14  and  N_16
REMARK    7  A    between atoms: N_16  and  C_17
REMARK                            x       y       z     vdW  Elec       q    Type
REMARK                         _______ _______ _______ _____ _____    ______ ____
ROOT
ATOM      1  S   UNL     1       0.306   0.578   5.034  0.00  0.00    -0.027 S 
ENDROOT
BRANCH   1   2
ATOM      2  C   UNL     1      -0.291   1.421   3.668  0.00  0.00    +0.118 C 
ATOM      3  S   UNL     1      -0.981   2.976   3.856  0.00  0.00    -0.027 S 
BRANCH   2   4
ATOM      4  N   UNL     1      -0.217   0.859   2.445  0.00  0.00    -0.328 N 
ATOM      5  H   UNL     1       0.174  -0.022   2.339  0.00  0.00    +0.147 HD
BRANCH   4  12
ATOM      6  C   UNL     1      -0.013   1.086   0.008  0.00  0.00    +0.046 C 
ATOM      7  C   UNL     1      -0.757   1.597  -1.249  0.00  0.00    +0.168 C 
ATOM      8  S   UNL     1      -2.489   1.764  -0.653  0.00  0.00    -0.029 S 
ATOM      9  O   UNL     1      -2.873   3.130  -0.726  0.00  0.00    -0.174 OA
ATOM     10  O   UNL     1      -3.293   0.777  -1.284  0.00  0.00    -0.174 OA
ATOM     11  C   UNL     1      -2.249   1.303   1.115  0.00  0.00    +0.188 C 
ATOM     12  C   UNL     1      -0.728   1.580   1.276  0.00  0.00    +0.094 C 
ENDBRANCH   4  12
ENDBRANCH   2   4
ENDBRANCH   1   2
BRANCH   1  13
ATOM     13  S   UNL     1      -0.105   1.954   6.511  0.00  0.00    -0.027 S 
BRANCH  13  14
ATOM     14  C   UNL     1      -1.732   1.546   6.853  0.00  0.00    +0.118 C 
ATOM     15  S   UNL     1      -2.493   0.273   5.997  0.00  0.00    -0.027 S 
BRANCH  14  16
ATOM     16  N   UNL     1      -2.414   2.226   7.796  0.00  0.00    -0.328 N 
ATOM     17  H   UNL     1      -1.982   2.947   8.281  0.00  0.00    +0.147 HD
BRANCH  16  18
ATOM     18  C   UNL     1      -3.806   1.876   8.089  0.00  0.00    +0.094 C 
ATOM     19  C   UNL     1      -4.156   2.299   9.525  0.00  0.00    +0.046 C 
ATOM     20  C   UNL     1      -5.688   2.231   9.736  0.00  0.00    +0.168 C 
ATOM     21  S   UNL     1      -6.343   2.529   8.044  0.00  0.00    -0.029 S 
ATOM     22  O   UNL     1      -7.054   1.376   7.614  0.00  0.00    -0.174 OA
ATOM     23  O   UNL     1      -6.982   3.797   8.012  0.00  0.00    -0.174 OA
ATOM     24  C   UNL     1      -4.754   2.634   7.116  0.00  0.00    +0.188 C 
ENDBRANCH  16  18
ENDBRANCH  14  16
ENDBRANCH  13  14
ENDBRANCH   1  13
TORSDOF 7
