REMARK  Name = ZINC16357314
REMARK  10 active torsions:
REMARK  status: ('A' for Active; 'I' for Inactive)
REMARK    1  A    between atoms: C_1  and  C_2
REMARK    2  A    between atoms: C_2  and  C_26
REMARK    3  A    between atoms: N_5  and  C_9
REMARK    4  A    between atoms: C_9  and  N_10
REMARK    5  A    between atoms: N_13  and  C_16
REMARK    6  A    between atoms: C_21  and  N_22
REMARK    7  A    between atoms: C_29  and  C_32
REMARK    8  A    between atoms: C_32  and  C_33
REMARK    9  A    between atoms: C_32  and  C_34
REMARK   10  A    between atoms: C_32  and  C_35
REMARK                            x       y       z     vdW  Elec       q    Type
REMARK                         _______ _______ _______ _____ _____    ______ ____
ROOT
ATOM      1  C   UNL     1       1.265  -1.248   1.272  0.00  0.00    +0.047 C 
ATOM      2  C   UNL     1       1.039  -0.415   0.009  0.00  0.00    +0.135 C 
ATOM      3  C   UNL     1       1.894   0.837   0.032  0.00  0.00    +0.252 C 
ATOM      4  O   UNL     1       3.105   0.895   0.064  0.00  0.00    -0.272 OA
ATOM      5  N   UNL     1       1.029   1.870   0.010  0.00  0.00    -0.210 N 
ATOM      6  C   UNL     1      -0.241   1.450  -0.024  0.00  0.00    +0.311 C 
ATOM      7  O   UNL     1      -1.199   2.197  -0.054  0.00  0.00    -0.252 OA
ATOM      8  N   UNL     1      -0.338   0.108  -0.027  0.00  0.00    -0.281 N 
ATOM      9  H   UNL     1      -1.190  -0.588  -0.049  0.00  0.00    +0.152 HD
ENDROOT
BRANCH   2  10
ATOM     10  C   UNL     1       1.328  -1.232  -1.223  0.00  0.00    -0.015 A 
ATOM     11  C   UNL     1       2.608  -1.268  -1.744  0.00  0.00    +0.006 A 
ATOM     12  C   UNL     1       2.874  -2.022  -2.872  0.00  0.00    +0.004 A 
ATOM     13  C   UNL     1       1.859  -2.732  -3.484  0.00  0.00    -0.042 A 
ATOM     14  C   UNL     1       0.578  -2.692  -2.966  0.00  0.00    +0.004 A 
ATOM     15  C   UNL     1       0.312  -1.942  -1.836  0.00  0.00    +0.006 A 
BRANCH  13  16
ATOM     16  C   UNL     1       2.148  -3.549  -4.717  0.00  0.00    -0.013 C 
ATOM     17  C   UNL     1       1.295  -3.038  -5.880  0.00  0.00    +0.015 C 
ATOM     18  C   UNL     1       3.630  -3.422  -5.077  0.00  0.00    +0.015 C 
ATOM     19  C   UNL     1       1.813  -5.017  -4.446  0.00  0.00    +0.015 C 
ENDBRANCH  13  16
ENDBRANCH   2  10
BRANCH   5  20
ATOM     20  C   UNL     1       1.430   3.279   0.019  0.00  0.00    +0.205 C 
BRANCH  20  21
ATOM     21  N   UNL     1       1.528   3.751   1.407  0.00  0.00    -0.283 NA
ATOM     22  C   UNL     1       0.203   4.100   1.939  0.00  0.00    +0.105 C 
ATOM     23  C   UNL     1       0.338   4.510   3.408  0.00  0.00    +0.120 C 
ATOM     24  N   UNL     1       1.262   5.647   3.514  0.00  0.00    -0.326 N 
ATOM     25  C   UNL     1       2.586   5.298   2.982  0.00  0.00    +0.120 C 
ATOM     26  C   UNL     1       2.451   4.888   1.513  0.00  0.00    +0.105 C 
BRANCH  24  27
ATOM     27  C   UNL     1       1.354   6.096   4.834  0.00  0.00    +0.060 A 
ATOM     28  C   UNL     1       1.788   5.234   5.833  0.00  0.00    +0.027 A 
ATOM     29  C   UNL     1       1.884   5.681   7.136  0.00  0.00    +0.022 A 
ATOM     30  C   UNL     1       1.538   6.985   7.448  0.00  0.00    +0.043 A 
ATOM     31  C   UNL     1       1.101   7.844   6.456  0.00  0.00    +0.054 A 
ATOM     32  C   UNL     1       1.008   7.403   5.150  0.00  0.00    +0.148 A 
ATOM     33 CL   UNL     1       1.654   7.542   9.088  0.00  0.00    -0.083 Cl
BRANCH  32  34
ATOM     34  N   UNL     1       0.540   8.323   4.090  0.00  0.00    +0.058 N 
ATOM     35  O   UNL     1       0.330   9.495   4.348  0.00  0.00    -0.126 OA
ATOM     36  O   UNL     1       0.364   7.909   2.958  0.00  0.00    -0.126 OA
ENDBRANCH  32  34
ENDBRANCH  24  27
ENDBRANCH  20  21
ENDBRANCH   5  20
TORSDOF 6
