REMARK  Name = ZINC11855635
REMARK  9 active torsions:
REMARK  status: ('A' for Active; 'I' for Inactive)
REMARK    1  A    between atoms: C_1  and  C_2
REMARK    2  A    between atoms: C_2  and  C_3
REMARK    3  A    between atoms: C_3  and  C_5
REMARK    4  A    between atoms: C_3  and  C_11
REMARK    5  A    between atoms: N_13  and  C_14
REMARK    6  A    between atoms: C_16  and  C_30
REMARK    7  A    between atoms: C_25  and  C_27
REMARK    8  A    between atoms: C_27  and  C_28
REMARK    9  A    between atoms: C_27  and  C_29
REMARK                            x       y       z     vdW  Elec       q    Type
REMARK                         _______ _______ _______ _____ _____    ______ ____
ROOT
ATOM      1  C   UNL     1       2.365   6.782   0.035  0.00  0.00    +0.132 A 
ATOM      2  C   UNL     1       2.185   5.437   0.008  0.00  0.00    +0.074 A 
ATOM      3  C   UNL     1       0.797   5.187   0.002  0.00  0.00    +0.102 A 
ATOM      4  N   UNL     1       0.169   6.345   0.019  0.00  0.00    -0.162 NA
ATOM      5  N   UNL     1       1.129   7.365   0.046  0.00  0.00    -0.185 N 
ATOM      6  C   UNL     1       0.872   8.722   0.074  0.00  0.00    +0.234 A 
ATOM      7  N   UNL     1      -0.412   9.155   0.190  0.00  0.00    -0.291 N 
ATOM      8  H   UNL     1      -1.138   8.515   0.253  0.00  0.00    +0.172 HD
ATOM      9  C   UNL     1      -0.672  10.480   0.221  0.00  0.00    +0.253 A 
ATOM     10  O   UNL     1      -1.817  10.886   0.329  0.00  0.00    -0.268 OA
ATOM     11  C   UNL     1       0.404  11.382   0.122  0.00  0.00    +0.093 A 
ATOM     12  C   UNL     1       1.669  10.887   0.003  0.00  0.00    +0.053 A 
ATOM     13  N   UNL     1       1.872   9.571  -0.018  0.00  0.00    -0.217 NA
ENDROOT
BRANCH   3  14
ATOM     14  C   UNL     1       0.157   3.854  -0.025  0.00  0.00    +0.039 A 
ATOM     15  C   UNL     1      -1.175   3.537  -0.033  0.00  0.00    +0.018 A 
ATOM     16  C   UNL     1      -1.540   2.209  -0.066  0.00  0.00    +0.008 A 
ATOM     17  C   UNL     1      -0.571   1.258  -0.078  0.00  0.00    +0.046 A 
ATOM     18  S   UNL     1       0.919   2.240  -0.057  0.00  0.00    -0.095 S 
ENDBRANCH   3  14
BRANCH   1  21
ATOM     19  C   UNL     1       4.735   6.748   0.153  0.00  0.00    +0.226 C 
ATOM     20  O   UNL     1       4.702   5.538   0.232  0.00  0.00    -0.275 OA
ATOM     21  N   UNL     1       3.588   7.448   0.050  0.00  0.00    -0.270 N 
ATOM     22  H   UNL     1       3.614   8.416  -0.013  0.00  0.00    +0.156 HD
BRANCH  19  23
ATOM     23  C   UNL     1       6.059   7.469   0.169  0.00  0.00    +0.105 C 
BRANCH  23  24
ATOM     24  C   UNL     1       7.176   6.465   0.290  0.00  0.00    -0.036 A 
ATOM     25  C   UNL     1       7.241   5.632   1.392  0.00  0.00    +0.004 A 
ATOM     26  C   UNL     1       8.263   4.708   1.500  0.00  0.00    +0.000 A 
ATOM     27  C   UNL     1       9.226   4.623   0.512  0.00  0.00    +0.000 A 
ATOM     28  C   UNL     1       9.164   5.459  -0.587  0.00  0.00    +0.000 A 
ATOM     29  C   UNL     1       8.139   6.380  -0.698  0.00  0.00    +0.004 A 
ENDBRANCH  23  24
BRANCH  23  31
ATOM     30  C   UNL     1       7.393   9.249   1.306  0.00  0.00    +0.005 C 
ATOM     31  C   UNL     1       6.103   8.427   1.360  0.00  0.00    +0.014 C 
ENDBRANCH  23  31
ENDBRANCH  19  23
ENDBRANCH   1  21
BRANCH  12  32
ATOM     32  C   UNL     1       2.839  11.830  -0.105  0.00  0.00    +0.032 C 
ATOM     33  C   UNL     1       3.801  11.585   1.059  0.00  0.00    +0.014 C 
ATOM     34  C   UNL     1       3.568  11.590  -1.428  0.00  0.00    +0.014 C 
ENDBRANCH  12  32
TORSDOF 6
