REMARK  Name = ZINC15078738
REMARK  3 active torsions:
REMARK  status: ('A' for Active; 'I' for Inactive)
REMARK    1  A    between atoms: C_14  and  N_58
REMARK    2  A    between atoms: C_17  and  N_58
REMARK    3  A    between atoms: N_20  and  C_23
REMARK                            x       y       z     vdW  Elec       q    Type
REMARK                         _______ _______ _______ _____ _____    ______ ____
ROOT
ATOM      1  N   UNL     1      -2.886   1.590   2.442  0.00  0.00    +0.384 N 
ATOM      2  H   UNL     1      -2.549   2.538   2.648  0.00  0.00    -0.085 HD
ATOM      3  H   UNL     1      -3.893   1.621   2.240  0.00  0.00    -0.085 HD
ENDROOT
BRANCH   1  17
ATOM      4  C   UNL     1      -5.580  -6.945   4.404  0.00  0.00    +0.002 A 
ATOM      5  C   UNL     1      -6.896  -6.533   4.556  0.00  0.00    +0.001 A 
ATOM      6  C   UNL     1      -7.170  -5.187   4.713  0.00  0.00    +0.017 A 
ATOM      7  C   UNL     1      -6.139  -4.281   4.716  0.00  0.00    +0.041 A 
ATOM      8  C   UNL     1      -4.787  -4.664   4.564  0.00  0.00    +0.080 A 
ATOM      9  C   UNL     1      -4.544  -6.048   4.406  0.00  0.00    +0.029 A 
ATOM     10  N   UNL     1      -3.888  -3.656   4.583  0.00  0.00    -0.225 NA
ATOM     11  C   UNL     1      -4.239  -2.400   4.742  0.00  0.00    +0.162 A 
ATOM     12  S   UNL     1      -6.017  -2.517   4.881  0.00  0.00    -0.052 S 
ATOM     13  N   UNL     1      -3.439  -1.276   4.786  0.00  0.00    -0.311 N 
ATOM     14  C   UNL     1      -3.660  -0.521   6.026  0.00  0.00    +0.107 C 
ATOM     15  C   UNL     1      -2.657   0.632   6.107  0.00  0.00    +0.017 C 
ATOM     16  C   UNL     1      -2.838   1.546   4.891  0.00  0.00    -0.013 C 
ATOM     17  C   UNL     1      -2.651   0.725   3.613  0.00  0.00    -0.054 C 
ATOM     18  C   UNL     1      -3.654  -0.432   3.604  0.00  0.00    +0.091 C 
ENDBRANCH   1  17
BRANCH   1  19
ATOM     19  C   UNL     1      -2.170   1.064   1.264  0.00  0.00    -0.068 C 
ATOM     20  C   UNL     1      -0.729   1.579   1.267  0.00  0.00    +0.003 C 
ATOM     21  C   UNL     1      -0.013   1.086   0.008  0.00  0.00    +0.103 C 
ATOM     22  N   UNL     1      -0.723   1.572  -1.182  0.00  0.00    -0.330 N 
ATOM     23  C   UNL     1      -2.095   1.052  -1.231  0.00  0.00    +0.103 C 
ATOM     24  C   UNL     1      -2.873   1.544  -0.009  0.00  0.00    +0.003 C 
BRANCH  22  25
ATOM     25  C   UNL     1      -0.022   1.251  -2.350  0.00  0.00    +0.033 A 
ATOM     26  C   UNL     1       1.182   0.564  -2.271  0.00  0.00    +0.027 A 
ATOM     27  C   UNL     1       1.872   0.241  -3.424  0.00  0.00    +0.051 A 
ATOM     28  C   UNL     1       1.370   0.611  -4.661  0.00  0.00    +0.166 A 
ATOM     29  C   UNL     1       0.166   1.305  -4.743  0.00  0.00    +0.168 A 
ATOM     30  C   UNL     1      -0.528   1.623  -3.588  0.00  0.00    +0.072 A 
ATOM     31  O   UNL     1      -0.108   1.550  -6.058  0.00  0.00    -0.453 OA
ATOM     32  C   UNL     1       1.139   1.360  -6.752  0.00  0.00    +0.466 C 
ATOM     33  O   UNL     1       1.852   0.421  -5.925  0.00  0.00    -0.453 OA
ENDBRANCH  22  25
ENDBRANCH   1  19
TORSDOF 3
