REMARK  Name = ZINC63137469
REMARK  12 active torsions:
REMARK  status: ('A' for Active; 'I' for Inactive)
REMARK    1  A    between atoms: C_1  and  C_2
REMARK    2  A    between atoms: C_2  and  C_3
REMARK    3  A    between atoms: C_2  and  O_4
REMARK    4  A    between atoms: O_4  and  C_5
REMARK    5  A    between atoms: C_5  and  C_6
REMARK    6  A    between atoms: C_6  and  C_7
REMARK    7  A    between atoms: C_7  and  N_8
REMARK    8  A    between atoms: C_28  and  C_30
REMARK    9  A    between atoms: C_34  and  O_38
REMARK   10  A    between atoms: C_35  and  O_36
REMARK   11  A    between atoms: O_36  and  C_37
REMARK   12  A    between atoms: O_38  and  C_39
REMARK                            x       y       z     vdW  Elec       q    Type
REMARK                         _______ _______ _______ _____ _____    ______ ____
ROOT
ATOM      1  N   UNL     1      -4.781  -3.442  -0.950  0.00  0.00    -0.291 N 
ATOM      2  C   UNL     1      -5.178  -4.274   0.173  0.00  0.00    +0.203 C 
ATOM      3  C   UNL     1      -6.561  -4.814   0.015  0.00  0.00    +0.234 C 
ATOM      4  O   UNL     1      -6.992  -5.525   0.898  0.00  0.00    -0.274 OA
ATOM      5  N   UNL     1      -7.359  -4.569  -1.031  0.00  0.00    -0.279 N 
ATOM      6  C   UNL     1      -6.958  -3.715  -2.144  0.00  0.00    +0.167 C 
ATOM      7  C   UNL     1      -5.573  -3.180  -1.989  0.00  0.00    +0.237 C 
ATOM      8  O   UNL     1      -5.138  -2.466  -2.867  0.00  0.00    -0.274 OA
ATOM      9  C   UNL     1      -7.947  -2.544  -2.289  0.00  0.00    +0.065 C 
ATOM     10  C   UNL     1      -9.332  -3.136  -2.199  0.00  0.00    -0.034 C 
ATOM     11  C   UNL     1     -10.393  -3.018  -2.987  0.00  0.00    -0.001 A 
ATOM     12  C   UNL     1     -10.646  -2.183  -4.172  0.00  0.00    +0.010 A 
ATOM     13  C   UNL     1     -11.861  -2.332  -4.763  0.00  0.00    +0.001 A 
ATOM     14  C   UNL     1     -12.838  -3.217  -4.298  0.00  0.00    +0.002 A 
ATOM     15  C   UNL     1     -12.695  -4.016  -3.211  0.00  0.00    +0.026 A 
ATOM     16  C   UNL     1     -11.462  -3.943  -2.501  0.00  0.00    +0.043 A 
ATOM     17  N   UNL     1     -11.069  -4.568  -1.430  0.00  0.00    -0.375 N 
ATOM     18  C   UNL     1      -9.739  -4.077  -1.071  0.00  0.00    +0.131 C 
ATOM     19  C   UNL     1      -8.698  -5.199  -1.041  0.00  0.00    +0.137 C 
ATOM     20  H   UNL     1     -11.573  -5.244  -0.951  0.00  0.00    +0.160 HD
ENDROOT
BRANCH  19  21
ATOM     21  C   UNL     1      -8.880  -6.033   0.201  0.00  0.00    +0.021 A 
ATOM     22  C   UNL     1      -9.459  -5.477   1.328  0.00  0.00    +0.009 A 
ATOM     23  C   UNL     1      -9.627  -6.239   2.469  0.00  0.00    +0.004 A 
ATOM     24  C   UNL     1      -9.217  -7.559   2.489  0.00  0.00    +0.049 A 
ATOM     25  C   UNL     1      -8.637  -8.122   1.364  0.00  0.00    +0.162 A 
ATOM     26  C   UNL     1      -8.473  -7.357   0.213  0.00  0.00    +0.166 A 
BRANCH  26  27
ATOM     27  O   UNL     1      -7.909  -7.906  -0.896  0.00  0.00    -0.491 OA
ATOM     28  C   UNL     1      -6.481  -7.934  -0.952  0.00  0.00    +0.277 C 
ENDBRANCH  26  27
BRANCH  25  29
ATOM     29  O   UNL     1      -8.234  -9.421   1.382  0.00  0.00    -0.491 OA
ATOM     30  C   UNL     1      -8.439 -10.146   2.596  0.00  0.00    +0.277 C 
ENDBRANCH  25  29
ENDBRANCH  19  21
BRANCH   1  31
ATOM     31  C   UNL     1      -3.440  -2.853  -0.936  0.00  0.00    +0.110 C 
BRANCH  31  32
ATOM     32  C   UNL     1      -3.489  -1.488  -0.246  0.00  0.00    +0.047 C 
BRANCH  32  33
ATOM     33  C   UNL     1      -2.088  -0.874  -0.231  0.00  0.00    +0.161 C 
BRANCH  33  34
ATOM     34  O   UNL     1      -2.134   0.401   0.413  0.00  0.00    -0.377 OA
BRANCH  34  36
ATOM     35  C   UNL     1      -1.087   2.579   0.460  0.00  0.00    +0.037 C 
ATOM     36  C   UNL     1      -0.870   1.064   0.480  0.00  0.00    +0.112 C 
ATOM     37  C   UNL     1      -0.155   0.669   1.774  0.00  0.00    +0.037 C 
ENDBRANCH  34  36
ENDBRANCH  33  34
ENDBRANCH  32  33
ENDBRANCH  31  32
ENDBRANCH   1  31
TORSDOF 8
