REMARK  Name = ZINC03125510
REMARK  8 active torsions:
REMARK  status: ('A' for Active; 'I' for Inactive)
REMARK    1  A    between atoms: C_1  and  N_2
REMARK    2  A    between atoms: N_2  and  C_3
REMARK    3  A    between atoms: N_2  and  C_4
REMARK    4  A    between atoms: C_7  and  C_10
REMARK    5  A    between atoms: N_11  and  C_12
REMARK    6  A    between atoms: C_13  and  C_31
REMARK    7  A    between atoms: N_18  and  C_21
REMARK    8  A    between atoms: C_24  and  C_26
REMARK                            x       y       z     vdW  Elec       q    Type
REMARK                         _______ _______ _______ _____ _____    ______ ____
ROOT
ATOM      1  C   UNL     1       2.647  -0.745  -3.221  0.00  0.00    +0.119 A 
ATOM      2  C   UNL     1       1.502  -1.527  -3.028  0.00  0.00    +0.088 A 
ATOM      3  C   UNL     1       0.588  -1.143  -2.034  0.00  0.00    -0.015 A 
ATOM      4  C   UNL     1       0.885  -0.025  -1.323  0.00  0.00    +0.014 A 
ATOM      5  S   UNL     1       2.426   0.534  -1.993  0.00  0.00    -0.071 S 
ATOM      6  C   UNL     1       0.070   0.579  -0.223  0.00  0.00    +0.149 C 
ATOM      7  N   UNL     1      -1.277  -0.021  -0.264  0.00  0.00    -0.310 N 
ATOM      8  C   UNL     1      -1.188  -1.486  -0.341  0.00  0.00    +0.111 C 
ATOM      9  C   UNL     1      -0.695  -1.912  -1.726  0.00  0.00    +0.056 C 
ENDROOT
BRANCH   7  10
ATOM     10  C   UNL     1      -2.032   0.375   0.835  0.00  0.00    +0.118 A 
ATOM     11  C   UNL     1      -2.679   1.608   0.818  0.00  0.00    +0.079 A 
ATOM     12  C   UNL     1      -3.432   1.987   1.916  0.00  0.00    +0.037 A 
ATOM     13  C   UNL     1      -3.503   1.123   3.001  0.00  0.00    +0.072 A 
ATOM     14  C   UNL     1      -2.832  -0.082   2.951  0.00  0.00    +0.096 A 
ATOM     15 CL   UNL     1      -2.549   2.652  -0.563  0.00  0.00    -0.080 Cl
ATOM     16  N   UNL     1      -2.087  -0.490   1.888  0.00  0.00    -0.348 N 
ATOM     17  H   UNL     1      -1.598  -1.392   1.879  0.00  0.00    +0.167 HD
BRANCH  13  18
ATOM     18  C   UNL     1      -4.307   1.496   4.220  0.00  0.00    +0.419 C 
ATOM     19  F   UNL     1      -4.223   0.469   5.166  0.00  0.00    -0.166 F 
ATOM     20  F   UNL     1      -3.799   2.679   4.768  0.00  0.00    -0.166 F 
ATOM     21  F   UNL     1      -5.644   1.687   3.856  0.00  0.00    -0.166 F 
ENDBRANCH  13  18
ENDBRANCH   7  10
BRANCH   1  23
ATOM     22  C   UNL     1       4.649  -0.064  -4.130  0.00  0.00    +0.120 C 
ATOM     23  N   UNL     1       3.654  -0.913  -4.104  0.00  0.00    -0.247 NA
BRANCH  22  27
ATOM     24  C   UNL     1       7.811  -0.592  -6.899  0.00  0.00    +0.029 A 
ATOM     25  C   UNL     1       7.832   0.486  -6.018  0.00  0.00    +0.024 A 
ATOM     26  C   UNL     1       6.811   0.661  -5.120  0.00  0.00    +0.011 A 
ATOM     27  C   UNL     1       5.745  -0.247  -5.090  0.00  0.00    -0.007 A 
ATOM     28  C   UNL     1       5.730  -1.333  -5.975  0.00  0.00    +0.011 A 
ATOM     29  C   UNL     1       6.753  -1.497  -6.873  0.00  0.00    +0.024 A 
BRANCH  24  31
ATOM     30  C   UNL     1      10.022   0.111  -7.758  0.00  0.00    +0.129 C 
ATOM     31  N   UNL     1       8.850  -0.766  -7.809  0.00  0.00    -0.336 N 
ATOM     32  C   UNL     1       8.771  -1.826  -8.817  0.00  0.00    +0.129 C 
ENDBRANCH  24  31
ENDBRANCH  22  27
ENDBRANCH   1  23
BRANCH   2  33
ATOM     33  C   UNL     1       1.267  -2.692  -3.827  0.00  0.00    +0.102 C 
ATOM     34  N   UNL     1       1.082  -3.616  -4.462  0.00  0.00    -0.191 NA
ENDBRANCH   2  33
TORSDOF 6
