REMARK  Name = ZINC04282437
REMARK  8 active torsions:
REMARK  status: ('A' for Active; 'I' for Inactive)
REMARK    1  A    between atoms: C_4  and  C_7
REMARK    2  A    between atoms: C_8  and  C_9
REMARK    3  A    between atoms: C_9  and  O_11
REMARK    4  A    between atoms: O_11  and  C_12
REMARK    5  A    between atoms: C_17  and  C_18
REMARK    6  A    between atoms: N_19  and  N_20
REMARK    7  A    between atoms: C_21  and  C_23
REMARK    8  A    between atoms: C_23  and  C_24
REMARK                            x       y       z     vdW  Elec       q    Type
REMARK                         _______ _______ _______ _____ _____    ______ ____
ROOT
ATOM      1  C   UNL     1      -2.127  -4.194   0.006  0.00  0.00    +0.141 A 
ATOM      2  C   UNL     1      -0.851  -4.735   0.044  0.00  0.00    +0.048 A 
ATOM      3  C   UNL     1      -0.679  -6.106   0.047  0.00  0.00    +0.019 A 
ATOM      4  C   UNL     1      -1.777  -6.950   0.002  0.00  0.00    +0.019 A 
ATOM      5  C   UNL     1      -3.054  -6.428  -0.042  0.00  0.00    +0.028 A 
ATOM      6  C   UNL     1      -3.240  -5.044  -0.040  0.00  0.00    +0.038 A 
ATOM      7 BR   UNL     1      -1.525  -8.824  -0.000  0.00  0.00    -0.050 Br
ENDROOT
BRANCH   6   8
ATOM      8  C   UNL     1      -4.601  -4.480  -0.086  0.00  0.00    +0.142 C 
ATOM      9  N   UNL     1      -4.771  -3.193  -0.084  0.00  0.00    -0.188 NA
BRANCH   9  10
ATOM     10  N   UNL     1      -6.064  -2.657  -0.128  0.00  0.00    -0.207 N 
ATOM     11  C   UNL     1      -6.240  -1.320  -0.125  0.00  0.00    +0.237 C 
ATOM     12  O   UNL     1      -5.278  -0.582  -0.085  0.00  0.00    -0.274 OA
ATOM     13  H   UNL     1      -6.833  -3.247  -0.160  0.00  0.00    +0.177 HD
BRANCH  11  14
ATOM     14  C   UNL     1      -7.631  -0.743  -0.172  0.00  0.00    +0.133 C 
BRANCH  14  15
ATOM     15  C   UNL     1      -7.552   0.761  -0.159  0.00  0.00    -0.031 A 
ATOM     16  C   UNL     1      -7.661   1.442   1.015  0.00  0.00    +0.005 A 
ATOM     17  C   UNL     1      -7.590   2.833   1.046  0.00  0.00    +0.001 A 
ATOM     18  C   UNL     1      -7.409   3.552  -0.096  0.00  0.00    +0.008 A 
ATOM     19  C   UNL     1      -7.292   2.884  -1.326  0.00  0.00    -0.018 A 
ATOM     20  C   UNL     1      -7.359   1.469  -1.358  0.00  0.00    -0.014 A 
ATOM     21  C   UNL     1      -7.246   0.801  -2.589  0.00  0.00    +0.009 A 
ATOM     22  C   UNL     1      -7.066   1.520  -3.731  0.00  0.00    +0.001 A 
ATOM     23  C   UNL     1      -6.995   2.911  -3.699  0.00  0.00    +0.001 A 
ATOM     24  C   UNL     1      -7.104   3.592  -2.526  0.00  0.00    +0.008 A 
ENDBRANCH  14  15
ENDBRANCH  11  14
ENDBRANCH   9  10
ENDBRANCH   6   8
BRANCH   1  25
ATOM     25  O   UNL     1      -2.296  -2.847   0.009  0.00  0.00    -0.422 OA
BRANCH  25  26
ATOM     26  C   UNL     1      -2.471  -2.233   1.197  0.00  0.00    +0.337 C 
ATOM     27  O   UNL     1      -2.570  -2.893   2.214  0.00  0.00    -0.245 OA
BRANCH  26  29
ATOM     28  C   UNL     1      -2.716  -0.159   2.451  0.00  0.00    +0.015 C 
ATOM     29  C   UNL     1      -2.541  -0.774   1.263  0.00  0.00    +0.092 C 
BRANCH  28  33
ATOM     30  C   UNL     1      -2.919   4.073   2.641  0.00  0.00    +0.000 A 
ATOM     31  C   UNL     1      -3.032   3.326   3.800  0.00  0.00    +0.001 A 
ATOM     32  C   UNL     1      -2.967   1.950   3.747  0.00  0.00    +0.008 A 
ATOM     33  C   UNL     1      -2.786   1.309   2.517  0.00  0.00    -0.025 A 
ATOM     34  C   UNL     1      -2.667   2.072   1.351  0.00  0.00    +0.008 A 
ATOM     35  C   UNL     1      -2.740   3.447   1.420  0.00  0.00    +0.001 A 
ENDBRANCH  28  33
ENDBRANCH  26  29
ENDBRANCH  25  26
ENDBRANCH   1  25
TORSDOF 8
