REMARK  Name = ZINC08712816
REMARK  8 active torsions:
REMARK  status: ('A' for Active; 'I' for Inactive)
REMARK    1  A    between atoms: C_4  and  C_7
REMARK    2  A    between atoms: C_7  and  N_8
REMARK    3  A    between atoms: N_8  and  C_9
REMARK    4  A    between atoms: C_9  and  C_11
REMARK    5  A    between atoms: C_9  and  C_18
REMARK    6  A    between atoms: N_20  and  C_21
REMARK    7  A    between atoms: C_30  and  C_32
REMARK    8  A    between atoms: C_32  and  N_33
REMARK                            x       y       z     vdW  Elec       q    Type
REMARK                         _______ _______ _______ _____ _____    ______ ____
ROOT
ATOM      1  N   UNL     1      -5.342   3.802  -1.270  0.00  0.00    -0.284 N 
ATOM      2  C   UNL     1      -4.011   4.007  -1.211  0.00  0.00    +0.234 C 
ATOM      3  O   UNL     1      -3.308   3.705  -2.153  0.00  0.00    -0.274 OA
ENDROOT
BRANCH   1   4
ATOM      4  C   UNL     1      -6.205   4.277  -0.186  0.00  0.00    +0.143 C 
BRANCH   4   8
ATOM      5  C   UNL     1      -6.258   1.388   2.961  0.00  0.00    +0.000 A 
ATOM      6  C   UNL     1      -5.325   2.408   2.974  0.00  0.00    +0.000 A 
ATOM      7  C   UNL     1      -5.308   3.343   1.956  0.00  0.00    +0.005 A 
ATOM      8  C   UNL     1      -6.223   3.257   0.924  0.00  0.00    -0.030 A 
ATOM      9  C   UNL     1      -7.160   2.241   0.913  0.00  0.00    +0.005 A 
ATOM     10  C   UNL     1      -7.174   1.303   1.929  0.00  0.00    +0.000 A 
ENDBRANCH   4   8
ENDBRANCH   1   4
BRANCH   1  11
ATOM     11  C   UNL     1      -5.925   3.104  -2.419  0.00  0.00    +0.166 C 
BRANCH  11  12
ATOM     12  C   UNL     1      -6.522   1.773  -1.958  0.00  0.00    +0.023 C 
ATOM     13  C   UNL     1      -6.981   0.963  -3.177  0.00  0.00    +0.010 C 
ATOM     14  C   UNL     1      -7.731  -0.275  -2.682  0.00  0.00    +0.027 C 
ATOM     15  C   UNL     1      -6.927  -0.979  -1.628  0.00  0.00    -0.031 C 
ATOM     16  C   UNL     1      -5.942  -0.439  -0.986  0.00  0.00    -0.031 C 
ATOM     17  C   UNL     1      -5.460   0.964  -1.211  0.00  0.00    +0.032 C 
ENDBRANCH  11  12
BRANCH  11  18
ATOM     18  C   UNL     1      -7.009   3.957  -3.027  0.00  0.00    +0.238 C 
ATOM     19  O   UNL     1      -7.534   4.831  -2.370  0.00  0.00    -0.273 OA
ATOM     20  N   UNL     1      -7.394   3.748  -4.301  0.00  0.00    -0.284 N 
ATOM     21  H   UNL     1      -7.013   3.015  -4.810  0.00  0.00    +0.155 HD
BRANCH  20  22
ATOM     22  C   UNL     1      -8.346   4.590  -4.892  0.00  0.00    +0.037 A 
ATOM     23  C   UNL     1      -9.408   5.074  -4.139  0.00  0.00    +0.027 A 
ATOM     24  C   UNL     1     -10.347   5.904  -4.720  0.00  0.00    +0.051 A 
ATOM     25  C   UNL     1     -10.232   6.257  -6.055  0.00  0.00    +0.166 A 
ATOM     26  C   UNL     1      -9.168   5.774  -6.813  0.00  0.00    +0.168 A 
ATOM     27  C   UNL     1      -8.224   4.946  -6.228  0.00  0.00    +0.072 A 
ATOM     28  O   UNL     1      -9.280   6.261  -8.083  0.00  0.00    -0.453 OA
ATOM     29  C   UNL     1     -10.642   6.713  -8.203  0.00  0.00    +0.466 C 
ATOM     30  O   UNL     1     -11.011   7.047  -6.852  0.00  0.00    -0.453 OA
ENDBRANCH  20  22
ENDBRANCH  11  18
ENDBRANCH   1  11
BRANCH   2  31
ATOM     31  C   UNL     1      -3.396   4.611   0.024  0.00  0.00    +0.210 C 
BRANCH  31  32
ATOM     32  N   UNL     1      -1.984   4.912  -0.230  0.00  0.00    -0.255 N 
ATOM     33  C   UNL     1      -0.938   4.022   0.003  0.00  0.00    +0.048 A 
ATOM     34  C   UNL     1      -0.930   2.721   0.489  0.00  0.00    +0.024 A 
ATOM     35  C   UNL     1       0.264   2.041   0.634  0.00  0.00    +0.002 A 
ATOM     36  C   UNL     1       1.465   2.638   0.288  0.00  0.00    +0.001 A 
ATOM     37  C   UNL     1       1.479   3.928  -0.203  0.00  0.00    +0.014 A 
ATOM     38  C   UNL     1       0.281   4.626  -0.347  0.00  0.00    +0.048 A 
ATOM     39  C   UNL     1      -0.043   5.981  -0.829  0.00  0.00    +0.250 C 
ATOM     40  O   UNL     1       0.728   6.830  -1.227  0.00  0.00    -0.282 OA
ATOM     41  C   UNL     1      -1.536   6.082  -0.718  0.00  0.00    +0.292 C 
ATOM     42  O   UNL     1      -2.214   7.043  -1.014  0.00  0.00    -0.266 OA
ENDBRANCH  31  32
ENDBRANCH   2  31
TORSDOF 8
