REMARK  Name = ZINC08859327
REMARK  15 active torsions:
REMARK  status: ('A' for Active; 'I' for Inactive)
REMARK    1  A    between atoms: C_1  and  C_2
REMARK    2  A    between atoms: C_2  and  O_3
REMARK    3  A    between atoms: O_3  and  C_4
REMARK    4  A    between atoms: C_7  and  C_12
REMARK    5  A    between atoms: C_9  and  O_10
REMARK    6  A    between atoms: O_10  and  C_11
REMARK    7  A    between atoms: C_14  and  C_25
REMARK    8  A    between atoms: C_15  and  O_24
REMARK    9  A    between atoms: N_18  and  C_19
REMARK   10  A    between atoms: C_19  and  C_20
REMARK   11  A    between atoms: C_20  and  C_21
REMARK   12  A    between atoms: C_21  and  N_62
REMARK   13  A    between atoms: C_22  and  N_62
REMARK   14  A    between atoms: C_23  and  N_62
REMARK   15  A    between atoms: C_25  and  C_27
REMARK                            x       y       z     vdW  Elec       q    Type
REMARK                         _______ _______ _______ _____ _____    ______ ____
ROOT
ATOM      1  C   UNL     1      -1.348  -0.704   0.069  0.00  0.00    +0.145 C 
ATOM      2  C   UNL     1      -1.593  -1.351   1.412  0.00  0.00    +0.071 C 
ATOM      3  C   UNL     1      -1.693  -2.682   1.192  0.00  0.00    +0.188 C 
ATOM      4  C   UNL     1      -1.522  -2.950  -0.252  0.00  0.00    +0.282 C 
ATOM      5  O   UNL     1      -1.559  -4.050  -0.767  0.00  0.00    -0.267 OA
ATOM      6  N   UNL     1      -1.321  -1.794  -0.913  0.00  0.00    -0.284 N 
ENDROOT
BRANCH   1  10
ATOM      7  C   UNL     1       2.407   1.344   0.088  0.00  0.00    +0.162 A 
ATOM      8  C   UNL     1       2.370  -0.041   0.101  0.00  0.00    +0.050 A 
ATOM      9  C   UNL     1       1.155  -0.700   0.095  0.00  0.00    +0.009 A 
ATOM     10  C   UNL     1      -0.026   0.020   0.076  0.00  0.00    -0.019 A 
ATOM     11  C   UNL     1       0.004   1.402   0.063  0.00  0.00    +0.055 A 
ATOM     12  C   UNL     1       1.219   2.069   0.069  0.00  0.00    +0.162 A 
BRANCH  12  13
ATOM     13  O   UNL     1       1.250   3.428   0.056  0.00  0.00    -0.491 OA
ATOM     14  C   UNL     1      -0.001   4.104  -0.081  0.00  0.00    +0.277 C 
ENDBRANCH  12  13
BRANCH   7  15
ATOM     15  O   UNL     1       3.601   1.994   0.094  0.00  0.00    -0.489 OA
BRANCH  15  17
ATOM     16  C   UNL     1       6.016   2.087   0.116  0.00  0.00    +0.048 C 
ATOM     17  C   UNL     1       4.780   1.186   0.113  0.00  0.00    +0.226 C 
ENDBRANCH  15  17
ENDBRANCH   7  15
ENDBRANCH   1  10
BRANCH   3  18
ATOM     18  O   UNL     1      -1.913  -3.620   2.142  0.00  0.00    -0.502 OA
ATOM     19  H   UNL     1      -1.943  -4.524   1.717  0.00  0.00    +0.292 HD
ENDBRANCH   3  18
BRANCH   2  20
ATOM     20  C   UNL     1      -1.702  -0.667   2.704  0.00  0.00    +0.195 C 
ATOM     21  O   UNL     1      -0.864  -0.857   3.565  0.00  0.00    -0.287 OA
BRANCH  20  22
ATOM     22  C   UNL     1      -2.830   0.252   2.961  0.00  0.00    +0.022 A 
ATOM     23  C   UNL     1      -3.853   0.388   2.019  0.00  0.00    +0.014 A 
ATOM     24  C   UNL     1      -4.905   1.243   2.266  0.00  0.00    +0.039 A 
ATOM     25  C   UNL     1      -4.944   1.976   3.443  0.00  0.00    +0.123 A 
ATOM     26  C   UNL     1      -3.929   1.848   4.380  0.00  0.00    +0.039 A 
ATOM     27  C   UNL     1      -2.875   0.992   4.145  0.00  0.00    +0.014 A 
ATOM     28  F   UNL     1      -5.975   2.816   3.678  0.00  0.00    -0.205 F 
ENDBRANCH  20  22
ENDBRANCH   2  20
BRANCH   6  29
ATOM     29  C   UNL     1      -1.111  -1.650  -2.356  0.00  0.00    +0.107 C 
BRANCH  29  30
ATOM     30  C   UNL     1       0.385  -1.738  -2.665  0.00  0.00    +0.000 C 
BRANCH  30  31
ATOM     31  C   UNL     1       0.604  -1.588  -4.172  0.00  0.00    -0.078 C 
BRANCH  31  34
ATOM     32  C   UNL     1       2.561  -3.014  -4.172  0.00  0.00    -0.097 C 
ATOM     33  C   UNL     1       2.313  -1.298  -5.863  0.00  0.00    -0.097 C 
ATOM     34  N   UNL     1       2.054  -1.654  -4.452  0.00  0.00    +0.376 N 
ATOM     35  H   UNL     1       2.542  -0.985  -3.845  0.00  0.00    -0.083 HD
ENDBRANCH  31  34
ENDBRANCH  30  31
ENDBRANCH  29  30
ENDBRANCH   6  29
TORSDOF 11
