REMARK  Name = ZINC64427246
REMARK  7 active torsions:
REMARK  status: ('A' for Active; 'I' for Inactive)
REMARK    1  A    between atoms: C_7  and  C_10
REMARK    2  A    between atoms: N_11  and  N_12
REMARK    3  A    between atoms: C_13  and  C_15
REMARK    4  A    between atoms: C_15  and  C_16
REMARK    5  A    between atoms: C_16  and  C_17
REMARK    6  A    between atoms: C_17  and  C_18
REMARK    7  A    between atoms: N_20  and  C_21
REMARK                            x       y       z     vdW  Elec       q    Type
REMARK                         _______ _______ _______ _____ _____    ______ ____
ROOT
ATOM      1  N   UNL     1       0.255  -5.437  -0.016  0.00  0.00    -0.207 N 
ATOM      2  C   UNL     1       0.732  -6.697  -0.034  0.00  0.00    +0.232 C 
ATOM      3  O   UNL     1       1.929  -6.892  -0.055  0.00  0.00    -0.274 OA
ATOM      4  H   UNL     1      -0.703  -5.282   0.001  0.00  0.00    +0.177 HD
ENDROOT
BRANCH   1   6
ATOM      5  C   UNL     1       0.677  -3.128  -0.005  0.00  0.00    +0.136 C 
ATOM      6  N   UNL     1       1.141  -4.352  -0.022  0.00  0.00    -0.188 NA
BRANCH   5  13
ATOM      7  C   UNL     1      -0.017   1.352   0.042  0.00  0.00    +0.001 A 
ATOM      8  C   UNL     1       1.163   2.102   0.028  0.00  0.00    +0.002 A 
ATOM      9  C   UNL     1       2.383   1.514   0.003  0.00  0.00    +0.026 A 
ATOM     10  C   UNL     1       2.484   0.097  -0.010  0.00  0.00    +0.043 A 
ATOM     11  N   UNL     1       3.530  -0.702  -0.035  0.00  0.00    -0.380 N 
ATOM     12  C   UNL     1       3.075  -2.095  -0.038  0.00  0.00    +0.150 C 
ATOM     13  C   UNL     1       1.564  -2.042  -0.011  0.00  0.00    +0.000 C 
ATOM     14  C   UNL     1       1.237  -0.688   0.005  0.00  0.00    +0.004 A 
ATOM     15  C   UNL     1       0.001  -0.004   0.031  0.00  0.00    +0.010 A 
ATOM     16  H   UNL     1       4.456  -0.413  -0.048  0.00  0.00    +0.160 HD
ENDBRANCH   5  13
ENDBRANCH   1   6
BRANCH   2  17
ATOM     17  C   UNL     1      -0.221  -7.865  -0.027  0.00  0.00    +0.098 C 
BRANCH  17  18
ATOM     18  C   UNL     1       0.574  -9.172  -0.050  0.00  0.00    +0.018 C 
BRANCH  18  19
ATOM     19  C   UNL     1      -0.394 -10.357  -0.043  0.00  0.00    +0.096 C 
BRANCH  19  20
ATOM     20  C   UNL     1       0.389 -11.645  -0.066  0.00  0.00    +0.217 C 
ATOM     21  O   UNL     1       1.601 -11.617  -0.086  0.00  0.00    -0.275 OA
ATOM     22  N   UNL     1      -0.259 -12.827  -0.065  0.00  0.00    -0.285 N 
ATOM     23  H   UNL     1      -1.225 -12.851   0.019  0.00  0.00    +0.155 HD
BRANCH  22  24
ATOM     24  C   UNL     1       0.463 -14.020  -0.184  0.00  0.00    +0.033 A 
ATOM     25  C   UNL     1      -0.074 -15.091  -0.886  0.00  0.00    +0.024 A 
ATOM     26  C   UNL     1       0.640 -16.267  -1.002  0.00  0.00    +0.017 A 
ATOM     27  C   UNL     1       1.891 -16.379  -0.420  0.00  0.00    +0.018 A 
ATOM     28  C   UNL     1       2.429 -15.313   0.280  0.00  0.00    +0.017 A 
ATOM     29  C   UNL     1       1.721 -14.133   0.395  0.00  0.00    +0.024 A 
ATOM     30 BR   UNL     1       2.866 -17.991  -0.581  0.00  0.00    -0.050 Br
ENDBRANCH  22  24
ENDBRANCH  19  20
ENDBRANCH  18  19
ENDBRANCH  17  18
ENDBRANCH   2  17
TORSDOF 7
