REMARK  Name = ZINC27520232
REMARK  7 active torsions:
REMARK  status: ('A' for Active; 'I' for Inactive)
REMARK    1  A    between atoms: C_1  and  C_2
REMARK    2  A    between atoms: C_2  and  O_3
REMARK    3  A    between atoms: O_3  and  C_4
REMARK    4  A    between atoms: C_4  and  C_6
REMARK    5  A    between atoms: C_10  and  N_11
REMARK    6  A    between atoms: C_13  and  C_26
REMARK    7  A    between atoms: N_28  and  C_29
REMARK                            x       y       z     vdW  Elec       q    Type
REMARK                         _______ _______ _______ _____ _____    ______ ____
ROOT
ATOM      1  N   UNL     1      -2.507  -0.292  -3.622  0.00  0.00    -0.319 N 
ATOM      2  C   UNL     1      -3.341  -0.885  -4.458  0.00  0.00    +0.212 A 
ATOM      3  C   UNL     1      -3.829  -2.252  -4.208  0.00  0.00    +0.098 A 
ATOM      4  C   UNL     1      -5.055  -2.601  -4.768  0.00  0.00    +0.030 A 
ATOM      5  C   UNL     1      -5.723  -1.640  -5.555  0.00  0.00    +0.026 A 
ATOM      6  C   UNL     1      -7.104  -1.856  -5.991  0.00  0.00    -0.007 A 
ATOM      7  C   UNL     1      -7.802  -3.022  -5.666  0.00  0.00    +0.009 A 
ATOM      8  C   UNL     1      -9.088  -3.180  -6.092  0.00  0.00    +0.001 A 
ATOM      9  C   UNL     1      -9.716  -2.195  -6.848  0.00  0.00    +0.001 A 
ATOM     10  C   UNL     1      -9.063  -1.046  -7.182  0.00  0.00    +0.008 A 
ATOM     11  C   UNL     1      -7.738  -0.851  -6.760  0.00  0.00    -0.017 A 
ATOM     12  C   UNL     1      -7.033   0.324  -7.086  0.00  0.00    +0.012 A 
ATOM     13  C   UNL     1      -5.749   0.505  -6.685  0.00  0.00    +0.047 A 
ATOM     14  C   UNL     1      -5.072  -0.456  -5.929  0.00  0.00    +0.138 A 
ATOM     15  O   UNL     1      -3.783  -0.254  -5.575  0.00  0.00    -0.439 OA
ATOM     16  H   UNL     1      -2.164  -0.820  -2.720  0.00  0.00    +0.169 HD
ENDROOT
BRANCH   1  21
ATOM     17  C   UNL     1      -1.201   1.756  -3.124  0.00  0.00    +0.093 A 
ATOM     18  C   UNL     1      -0.906   3.087  -3.628  0.00  0.00    -0.021 A 
ATOM     19  C   UNL     1      -1.500   3.433  -4.792  0.00  0.00    -0.004 A 
ATOM     20  S   UNL     1      -2.473   2.024  -5.249  0.00  0.00    -0.075 S 
ATOM     21  C   UNL     1      -2.076   0.958  -3.874  0.00  0.00    +0.095 A 
ATOM     22  C   UNL     1      -1.367   4.731  -5.527  0.00  0.00    +0.043 C 
ATOM     23  C   UNL     1      -0.749   5.766  -4.572  0.00  0.00    +0.005 C 
ATOM     24  C   UNL     1       0.474   5.136  -3.899  0.00  0.00    +0.005 C 
ATOM     25  C   UNL     1       0.025   4.060  -2.910  0.00  0.00    +0.037 C 
BRANCH  17  26
ATOM     26  C   UNL     1      -0.630   1.285  -1.915  0.00  0.00    +0.342 C 
ATOM     27  O   UNL     1       0.433   0.693  -1.935  0.00  0.00    -0.245 OA
BRANCH  26  28
ATOM     28  O   UNL     1      -1.265   1.493  -0.743  0.00  0.00    -0.461 OA
BRANCH  28  30
ATOM     29  C   UNL     1      -1.493   1.320   1.657  0.00  0.00    +0.048 C 
ATOM     30  C   UNL     1      -0.632   0.991   0.436  0.00  0.00    +0.229 C 
ENDBRANCH  28  30
ENDBRANCH  26  28
ENDBRANCH  17  26
ENDBRANCH   1  21
BRANCH   3  31
ATOM     31  C   UNL     1      -3.053  -3.208  -3.401  0.00  0.00    +0.253 C 
ATOM     32  O   UNL     1      -3.481  -4.331  -3.211  0.00  0.00    -0.270 OA
ATOM     33  N   UNL     1      -1.869  -2.840  -2.873  0.00  0.00    -0.281 N 
ATOM     34  H   UNL     1      -1.440  -1.857  -3.117  0.00  0.00    +0.155 HD
BRANCH  33  35
ATOM     35  C   UNL     1      -1.185  -3.708  -2.016  0.00  0.00    +0.034 A 
ATOM     36  C   UNL     1      -1.894  -4.550  -1.168  0.00  0.00    +0.023 A 
ATOM     37  C   UNL     1      -1.216  -5.409  -0.326  0.00  0.00    +0.002 A 
ATOM     38  C   UNL     1       0.167  -5.424  -0.319  0.00  0.00    +0.000 A 
ATOM     39  C   UNL     1       0.875  -4.584  -1.157  0.00  0.00    +0.002 A 
ATOM     40  C   UNL     1       0.203  -3.726  -2.006  0.00  0.00    +0.023 A 
ENDBRANCH  33  35
ENDBRANCH   3  31
TORSDOF 6
