REMARK  Name = ZINC47139558
REMARK  5 active torsions:
REMARK  status: ('A' for Active; 'I' for Inactive)
REMARK    1  A    between atoms: C_4  and  N_11
REMARK    2  A    between atoms: C_5  and  C_7
REMARK    3  A    between atoms: C_12  and  C_14
REMARK    4  A    between atoms: C_14  and  N_15
REMARK    5  A    between atoms: C_21  and  C_35
REMARK                            x       y       z     vdW  Elec       q    Type
REMARK                         _______ _______ _______ _____ _____    ______ ____
ROOT
ATOM      1  N   UNL     1       7.180   0.264  -0.382  0.00  0.00    -0.288 N 
ATOM      2  C   UNL     1       7.575   0.726  -1.614  0.00  0.00    +0.090 A 
ATOM      3  C   UNL     1       8.592   1.614  -1.589  0.00  0.00    +0.035 A 
ATOM      4  S   UNL     1       8.963   1.761   0.139  0.00  0.00    -0.030 S 
ATOM      5  C   UNL     1       7.797   0.703   0.732  0.00  0.00    +0.292 A 
ATOM      6  O   UNL     1       7.567   0.404   1.891  0.00  0.00    -0.259 OA
ATOM      7  C   UNL     1       9.264   2.334  -2.730  0.00  0.00    +0.099 C 
ATOM      8  C   UNL     1       8.371   2.254  -3.913  0.00  0.00    +0.021 C 
ATOM      9  C   UNL     1       8.584   3.028  -5.209  0.00  0.00    -0.006 C 
ATOM     10  C   UNL     1       7.097   3.434  -5.542  0.00  0.00    +0.004 C 
ATOM     11  C   UNL     1       6.399   2.065  -5.730  0.00  0.00    +0.005 C 
ATOM     12  C   UNL     1       7.524   0.995  -5.755  0.00  0.00    +0.003 C 
ATOM     13  C   UNL     1       8.755   1.879  -6.279  0.00  0.00    +0.008 C 
ATOM     14  C   UNL     1       8.067   0.797  -4.329  0.00  0.00    +0.060 C 
ATOM     15  S   UNL     1       6.827   0.200  -3.151  0.00  0.00    -0.103 S 
ENDROOT
BRANCH   7  16
ATOM     16  C   UNL     1      10.584   1.675  -3.041  0.00  0.00    +0.113 A 
ATOM     17  C   UNL     1      11.791   2.266  -2.981  0.00  0.00    +0.045 A 
ATOM     18  C   UNL     1      12.743   1.289  -3.351  0.00  0.00    +0.041 A 
ATOM     19  C   UNL     1      12.061   0.160  -3.614  0.00  0.00    +0.195 A 
ATOM     20  O   UNL     1      10.754   0.398  -3.419  0.00  0.00    -0.467 OA
ENDBRANCH   7  16
BRANCH   1  21
ATOM     21  C   UNL     1       6.083  -0.701  -0.278  0.00  0.00    +0.222 C 
BRANCH  21  23
ATOM     22  N   UNL     1       3.622  -0.651  -0.037  0.00  0.00    -0.284 N 
ATOM     23  C   UNL     1       4.775   0.037  -0.147  0.00  0.00    +0.237 C 
ATOM     24  O   UNL     1       4.761   1.250  -0.141  0.00  0.00    -0.274 OA
ATOM     25  H   UNL     1       3.639  -1.618   0.038  0.00  0.00    +0.155 HD
BRANCH  22  29
ATOM     26  C   UNL     1      -0.019   1.375  -0.023  0.00  0.00    +0.001 A 
ATOM     27  C   UNL     1       1.087   1.947  -0.626  0.00  0.00    +0.002 A 
ATOM     28  C   UNL     1       2.295   1.278  -0.633  0.00  0.00    +0.024 A 
ATOM     29  C   UNL     1       2.399   0.030  -0.032  0.00  0.00    +0.045 A 
ATOM     30  C   UNL     1       1.287  -0.541   0.573  0.00  0.00    +0.076 A 
ATOM     31  C   UNL     1       0.082   0.133   0.576  0.00  0.00    +0.014 A 
BRANCH  30  32
ATOM     32  C   UNL     1       1.396  -1.895   1.226  0.00  0.00    +0.419 C 
ATOM     33  F   UNL     1       0.155  -2.255   1.761  0.00  0.00    -0.166 F 
ATOM     34  F   UNL     1       1.785  -2.842   0.273  0.00  0.00    -0.166 F 
ATOM     35  F   UNL     1       2.349  -1.845   2.249  0.00  0.00    -0.166 F 
ENDBRANCH  30  32
ENDBRANCH  22  29
ENDBRANCH  21  23
ENDBRANCH   1  21
TORSDOF 5
