REMARK  Name = ZINC36083028
REMARK  11 active torsions:
REMARK  status: ('A' for Active; 'I' for Inactive)
REMARK    1  A    between atoms: C_1  and  C_2
REMARK    2  A    between atoms: C_2  and  C_4
REMARK    3  A    between atoms: C_2  and  N_10
REMARK    4  A    between atoms: C_11  and  C_13
REMARK    5  A    between atoms: C_16  and  C_18
REMARK    6  A    between atoms: C_18  and  N_19
REMARK    7  A    between atoms: N_19  and  C_20
REMARK    8  A    between atoms: N_19  and  C_29
REMARK    9  A    between atoms: C_20  and  C_21
REMARK   10  A    between atoms: C_29  and  C_30
REMARK   11  A    between atoms: C_29  and  C_31
REMARK                            x       y       z     vdW  Elec       q    Type
REMARK                         _______ _______ _______ _____ _____    ______ ____
ROOT
ATOM      1  C   UNL     1       2.949  -0.355   2.263  0.00  0.00    +0.163 A 
ATOM      2  C   UNL     1       2.063  -1.322   2.627  0.00  0.00    +0.230 A 
ATOM      3  O   UNL     1       2.602  -1.976   3.668  0.00  0.00    -0.449 OA
ATOM      4  C   UNL     1       3.793  -1.423   3.938  0.00  0.00    +0.179 A 
ATOM      5  N   UNL     1       4.016  -0.455   3.101  0.00  0.00    -0.210 NA
ENDROOT
BRANCH   1   7
ATOM      6  N   UNL     1       3.754   1.516   0.911  0.00  0.00    -0.303 N 
ATOM      7  C   UNL     1       2.785   0.613   1.163  0.00  0.00    +0.266 C 
ATOM      8  O   UNL     1       1.777   0.597   0.483  0.00  0.00    -0.268 OA
ATOM      9  H   UNL     1       4.558   1.529   1.454  0.00  0.00    +0.150 HD
BRANCH   6  11
ATOM     10  C   UNL     1       2.797   3.687   0.317  0.00  0.00    +0.033 C 
ATOM     11  C   UNL     1       3.592   2.478  -0.181  0.00  0.00    +0.100 C 
BRANCH  11  12
ATOM     12  C   UNL     1       4.948   2.930  -0.658  0.00  0.00    -0.027 A 
ATOM     13  C   UNL     1       5.958   3.167   0.256  0.00  0.00    +0.005 A 
ATOM     14  C   UNL     1       7.202   3.582  -0.181  0.00  0.00    +0.000 A 
ATOM     15  C   UNL     1       7.436   3.759  -1.532  0.00  0.00    +0.000 A 
ATOM     16  C   UNL     1       6.427   3.522  -2.446  0.00  0.00    +0.000 A 
ATOM     17  C   UNL     1       5.184   3.103  -2.009  0.00  0.00    +0.005 A 
ENDBRANCH  11  12
ENDBRANCH   6  11
ENDBRANCH   1   7
BRANCH   4  18
ATOM     18  C   UNL     1       4.729  -1.859   5.036  0.00  0.00    +0.020 C 
BRANCH  18  19
ATOM     19  N   UNL     1       4.867  -0.777   6.020  0.00  0.00    +0.390 N 
ATOM     20  H   UNL     1       5.095   0.083   5.545  0.00  0.00    -0.080 HD
BRANCH  19  21
ATOM     21  C   UNL     1       3.603  -0.613   6.749  0.00  0.00    -0.074 C 
ATOM     22  C   UNL     1       2.539  -0.049   5.805  0.00  0.00    -0.013 C 
ATOM     23  C   UNL     1       3.142  -1.971   7.283  0.00  0.00    -0.013 C 
ENDBRANCH  19  21
BRANCH  19  24
ATOM     24  C   UNL     1       5.939  -1.111   6.968  0.00  0.00    -0.041 C 
BRANCH  24  25
ATOM     25  C   UNL     1       6.159   0.048   7.906  0.00  0.00    -0.046 A 
ATOM     26  C   UNL     1       7.031   1.062   7.558  0.00  0.00    +0.004 A 
ATOM     27  C   UNL     1       7.233   2.125   8.418  0.00  0.00    +0.020 A 
ATOM     28  C   UNL     1       6.563   2.174   9.628  0.00  0.00    +0.042 A 
ATOM     29  C   UNL     1       5.690   1.159   9.976  0.00  0.00    +0.040 A 
ATOM     30  C   UNL     1       5.484   0.098   9.113  0.00  0.00    +0.044 A 
ATOM     31 CL   UNL     1       4.385  -1.173   9.546  0.00  0.00    -0.083 Cl
ATOM     32 CL   UNL     1       6.818   3.509  10.708  0.00  0.00    -0.083 Cl
ENDBRANCH  24  25
ENDBRANCH  19  24
ENDBRANCH  18  19
ENDBRANCH   4  18
TORSDOF 8
