REMARK  Name = ZINC23060799
REMARK  7 active torsions:
REMARK  status: ('A' for Active; 'I' for Inactive)
REMARK    1  A    between atoms: C_1  and  C_2
REMARK    2  A    between atoms: C_10  and  C_11
REMARK    3  A    between atoms: C_11  and  O_13
REMARK    4  A    between atoms: O_13  and  C_14
REMARK    5  A    between atoms: C_14  and  C_15
REMARK    6  A    between atoms: N_17  and  C_18
REMARK    7  A    between atoms: C_20  and  N_25
REMARK                            x       y       z     vdW  Elec       q    Type
REMARK                         _______ _______ _______ _____ _____    ______ ____
ROOT
ATOM      1  C   UNL     1       2.373   1.129   0.004  0.00  0.00    +0.328 C 
ENDROOT
BRANCH   1   2
ATOM      2  C   UNL     1       3.555   2.062  -0.014  0.00  0.00    +0.255 C 
ATOM      3  O   UNL     1       3.381   3.262  -0.010  0.00  0.00    -0.272 OA
ATOM      4  N   UNL     1       4.807   1.564  -0.035  0.00  0.00    -0.281 N 
ATOM      5  H   UNL     1       4.968   0.478   0.035  0.00  0.00    +0.155 HD
BRANCH   4   6
ATOM      6  C   UNL     1       5.903   2.428  -0.147  0.00  0.00    +0.054 A 
ATOM      7  C   UNL     1       5.865   3.680   0.451  0.00  0.00    +0.057 A 
ATOM      8  C   UNL     1       6.950   4.528   0.344  0.00  0.00    +0.128 A 
ATOM      9  C   UNL     1       8.069   4.136  -0.367  0.00  0.00    +0.034 A 
ATOM     10  C   UNL     1       8.109   2.892  -0.969  0.00  0.00    +0.024 A 
ATOM     11  C   UNL     1       7.029   2.036  -0.861  0.00  0.00    +0.062 A 
ATOM     12 CL   UNL     1       7.079   0.474  -1.617  0.00  0.00    -0.082 Cl
BRANCH   8  13
ATOM     13  N   UNL     1       6.912   5.861   0.986  0.00  0.00    +0.056 N 
ATOM     14  O   UNL     1       7.866   6.612   0.887  0.00  0.00    -0.126 OA
ATOM     15  O   UNL     1       5.927   6.208   1.613  0.00  0.00    -0.126 OA
ENDBRANCH   8  13
ENDBRANCH   4   6
ENDBRANCH   1   2
BRANCH   1  16
ATOM     16  O   UNL     1       1.145   1.903   0.025  0.00  0.00    -0.450 OA
BRANCH  16  17
ATOM     17  C   UNL     1      -0.014   1.213   0.043  0.00  0.00    +0.376 C 
ATOM     18  O   UNL     1       0.002  -0.002   0.041  0.00  0.00    -0.241 OA
BRANCH  17  28
ATOM     19  C   UNL     1      -2.817  -0.135   0.061  0.00  0.00    +0.048 C 
ATOM     20  C   UNL     1      -2.520   1.343   0.067  0.00  0.00    +0.010 A 
ATOM     21  C   UNL     1      -3.493   2.435   0.084  0.00  0.00    +0.025 A 
ATOM     22  C   UNL     1      -4.889   2.495   0.101  0.00  0.00    +0.032 A 
ATOM     23  C   UNL     1      -5.514   3.711   0.109  0.00  0.00    +0.042 A 
ATOM     24  C   UNL     1      -4.771   4.884   0.102  0.00  0.00    +0.023 A 
ATOM     25  C   UNL     1      -3.393   4.846   0.086  0.00  0.00    +0.048 A 
ATOM     26  C   UNL     1      -2.735   3.621   0.077  0.00  0.00    +0.136 A 
ATOM     27  O   UNL     1      -1.434   3.273   0.062  0.00  0.00    -0.448 OA
ATOM     28  C   UNL     1      -1.295   1.931   0.059  0.00  0.00    +0.216 A 
ATOM     29 CL   UNL     1      -7.248   3.788   0.129  0.00  0.00    -0.084 Cl
ENDBRANCH  17  28
ENDBRANCH  16  17
ENDBRANCH   1  16
TORSDOF 6
