REMARK  Name = ZINC13787740
REMARK  7 active torsions:
REMARK  status: ('A' for Active; 'I' for Inactive)
REMARK    1  A    between atoms: C_1  and  C_2
REMARK    2  A    between atoms: C_2  and  O_3
REMARK    3  A    between atoms: O_3  and  C_4
REMARK    4  A    between atoms: C_9  and  N_10
REMARK    5  A    between atoms: C_15  and  C_29
REMARK    6  A    between atoms: N_17  and  C_23
REMARK    7  A    between atoms: C_34  and  O_35
REMARK                            x       y       z     vdW  Elec       q    Type
REMARK                         _______ _______ _______ _____ _____    ______ ____
ROOT
ATOM      1  N   UNL     1       1.953  -1.466  -3.426  0.00  0.00    -0.204 N 
ATOM      2  C   UNL     1       3.240  -0.991  -3.390  0.00  0.00    +0.235 C 
ATOM      3  O   UNL     1       4.154  -1.384  -2.696  0.00  0.00    -0.274 OA
ATOM      4  C   UNL     1       3.268   0.077  -4.360  0.00  0.00    +0.146 C 
ATOM      5  C   UNL     1       4.231   0.825  -5.185  0.00  0.00    +0.161 C 
ATOM      6  N   UNL     1       3.368   1.334  -6.299  0.00  0.00    -0.244 N 
ATOM      7  O   UNL     1       2.039   0.802  -6.099  0.00  0.00    -0.257 OA
ATOM      8  C   UNL     1       2.277  -0.468  -5.465  0.00  0.00    +0.249 C 
ATOM      9  C   UNL     1       1.253  -1.010  -4.506  0.00  0.00    +0.259 C 
ATOM     10  O   UNL     1       0.051  -1.036  -4.660  0.00  0.00    -0.272 OA
ENDROOT
BRANCH   5  11
ATOM     11  C   UNL     1       4.834   1.964  -4.404  0.00  0.00    +0.022 A 
ATOM     12  C   UNL     1       4.289   3.230  -4.496  0.00  0.00    +0.029 A 
ATOM     13  C   UNL     1       4.842   4.277  -3.781  0.00  0.00    +0.043 A 
ATOM     14  C   UNL     1       5.944   4.059  -2.972  0.00  0.00    +0.043 A 
ATOM     15  C   UNL     1       6.492   2.794  -2.877  0.00  0.00    +0.084 A 
ATOM     16  C   UNL     1       5.934   1.741  -3.590  0.00  0.00    +0.140 A 
ATOM     17 CL   UNL     1       7.874   2.520  -1.863  0.00  0.00    -0.080 Cl
ATOM     18 CL   UNL     1       4.155   5.867  -3.899  0.00  0.00    -0.083 Cl
BRANCH  16  19
ATOM     19  O   UNL     1       6.469   0.495  -3.494  0.00  0.00    -0.505 OA
ATOM     20  H   UNL     1       7.161   0.313  -4.144  0.00  0.00    +0.292 HD
ENDBRANCH  16  19
ENDBRANCH   5  11
BRANCH   1  26
ATOM     21  C   UNL     1       0.777  -1.810  -1.336  0.00  0.00    +0.142 A 
ATOM     22  C   UNL     1       0.243  -2.669  -0.388  0.00  0.00    +0.047 A 
ATOM     23  C   UNL     1       0.351  -4.037  -0.555  0.00  0.00    +0.004 A 
ATOM     24  C   UNL     1       0.992  -4.553  -1.667  0.00  0.00    +0.002 A 
ATOM     25  C   UNL     1       1.526  -3.704  -2.617  0.00  0.00    +0.027 A 
ATOM     26  C   UNL     1       1.416  -2.330  -2.459  0.00  0.00    +0.086 A 
BRANCH  21  27
ATOM     27  O   UNL     1       0.671  -0.465  -1.174  0.00  0.00    -0.490 OA
BRANCH  27  29
ATOM     28  C   UNL     1      -0.019   1.526   0.010  0.00  0.00    +0.048 C 
ATOM     29  C   UNL     1       0.002  -0.004   0.002  0.00  0.00    +0.226 C 
ENDBRANCH  27  29
ENDBRANCH  21  27
ENDBRANCH   1  26
BRANCH   6  30
ATOM     30  C   UNL     1       3.773   2.171  -7.340  0.00  0.00    +0.065 A 
ATOM     31  C   UNL     1       5.091   2.606  -7.412  0.00  0.00    +0.028 A 
ATOM     32  C   UNL     1       5.489   3.433  -8.443  0.00  0.00    +0.002 A 
ATOM     33  C   UNL     1       4.577   3.830  -9.404  0.00  0.00    +0.000 A 
ATOM     34  C   UNL     1       3.264   3.400  -9.336  0.00  0.00    +0.002 A 
ATOM     35  C   UNL     1       2.861   2.567  -8.310  0.00  0.00    +0.028 A 
ENDBRANCH   6  30
TORSDOF 6
