REMARK  Name = ZINC40083001
REMARK  19 active torsions:
REMARK  status: ('A' for Active; 'I' for Inactive)
REMARK    1  A    between atoms: C_1  and  C_2
REMARK    2  A    between atoms: C_2  and  O_3
REMARK    3  A    between atoms: O_3  and  C_4
REMARK    4  A    between atoms: C_7  and  C_13
REMARK    5  A    between atoms: C_9  and  O_10
REMARK    6  A    between atoms: O_10  and  C_11
REMARK    7  A    between atoms: C_11  and  C_12
REMARK    8  A    between atoms: C_15  and  C_27
REMARK    9  A    between atoms: N_19  and  C_20
REMARK   10  A    between atoms: C_20  and  C_21
REMARK   11  A    between atoms: C_21  and  O_22
REMARK   12  A    between atoms: O_22  and  C_23
REMARK   13  A    between atoms: C_23  and  C_24
REMARK   14  A    between atoms: C_24  and  O_25
REMARK   15  A    between atoms: C_27  and  C_29
REMARK   16  A    between atoms: C_32  and  O_36
REMARK   17  A    between atoms: C_34  and  C_35
REMARK   18  A    between atoms: O_36  and  C_37
REMARK   19  A    between atoms: C_37  and  C_38
REMARK                            x       y       z     vdW  Elec       q    Type
REMARK                         _______ _______ _______ _____ _____    ______ ____
ROOT
ATOM      1  C   UNL     1       1.012  -5.902  -2.019  0.00  0.00    +0.145 C 
ATOM      2  C   UNL     1       2.132  -6.660  -1.346  0.00  0.00    +0.076 C 
ATOM      3  C   UNL     1       1.579  -7.763  -0.790  0.00  0.00    +0.249 C 
ATOM      4  C   UNL     1       0.127  -7.770  -1.067  0.00  0.00    +0.288 C 
ATOM      5  O   UNL     1      -0.649  -8.630  -0.700  0.00  0.00    -0.266 OA
ATOM      6  N   UNL     1      -0.209  -6.683  -1.788  0.00  0.00    -0.281 N 
ATOM      7  O   UNL     1       2.248  -8.708  -0.091  0.00  0.00    -0.282 OA
ENDROOT
BRANCH   1  11
ATOM      8  C   UNL     1       0.617  -2.014  -0.283  0.00  0.00    +0.162 A 
ATOM      9  C   UNL     1       0.248  -3.138   0.437  0.00  0.00    +0.050 A 
ATOM     10  C   UNL     1       0.376  -4.394  -0.127  0.00  0.00    +0.009 A 
ATOM     11  C   UNL     1       0.873  -4.531  -1.410  0.00  0.00    -0.019 A 
ATOM     12  C   UNL     1       1.244  -3.413  -2.134  0.00  0.00    +0.055 A 
ATOM     13  C   UNL     1       1.113  -2.152  -1.577  0.00  0.00    +0.162 A 
BRANCH  13  14
ATOM     14  O   UNL     1       1.471  -1.051  -2.290  0.00  0.00    -0.489 OA
BRANCH  14  15
ATOM     15  C   UNL     1       1.869  -1.258  -3.647  0.00  0.00    +0.226 C 
ATOM     16  C   UNL     1       2.270   0.080  -4.271  0.00  0.00    +0.048 C 
ENDBRANCH  14  15
ENDBRANCH  13  14
BRANCH   8  17
ATOM     17  O   UNL     1       0.491  -0.778   0.270  0.00  0.00    -0.489 OA
BRANCH  17  19
ATOM     18  C   UNL     1      -0.093   0.748   2.050  0.00  0.00    +0.048 C 
ATOM     19  C   UNL     1      -0.024  -0.713   1.601  0.00  0.00    +0.226 C 
ENDBRANCH  17  19
ENDBRANCH   8  17
ENDBRANCH   1  11
BRANCH   2  20
ATOM     20  C   UNL     1       3.546  -6.274  -1.303  0.00  0.00    +0.195 C 
ATOM     21  O   UNL     1       3.934  -5.310  -1.936  0.00  0.00    -0.287 OA
BRANCH  20  22
ATOM     22  C   UNL     1       4.500  -7.056  -0.492  0.00  0.00    +0.025 A 
ATOM     23  C   UNL     1       5.418  -7.907  -1.116  0.00  0.00    +0.015 A 
ATOM     24  C   UNL     1       6.305  -8.635  -0.356  0.00  0.00    +0.046 A 
ATOM     25  C   UNL     1       6.290  -8.524   1.031  0.00  0.00    +0.121 A 
ATOM     26  C   UNL     1       5.379  -7.680   1.655  0.00  0.00    +0.049 A 
ATOM     27  C   UNL     1       4.492  -6.944   0.902  0.00  0.00    -0.036 A 
ATOM     28  C   UNL     1       3.509  -6.024   1.579  0.00  0.00    +0.044 C 
BRANCH  25  29
ATOM     29  O   UNL     1       7.167  -9.243   1.776  0.00  0.00    -0.488 OA
BRANCH  29  30
ATOM     30  C   UNL     1       8.149 -10.004   1.069  0.00  0.00    +0.256 C 
BRANCH  30  31
ATOM     31  C   UNL     1       9.005 -10.758   2.054  0.00  0.00    +0.006 C 
ATOM     32  C   UNL     1       9.294 -12.018   1.839  0.00  0.00    +0.007 C 
ENDBRANCH  30  31
ENDBRANCH  29  30
ENDBRANCH  25  29
ENDBRANCH  20  22
ENDBRANCH   2  20
BRANCH   6  33
ATOM     33  C   UNL     1      -1.554  -6.340  -2.257  0.00  0.00    +0.137 C 
BRANCH  33  34
ATOM     34  C   UNL     1      -1.784  -6.954  -3.639  0.00  0.00    +0.179 C 
BRANCH  34  35
ATOM     35  O   UNL     1      -1.772  -8.379  -3.535  0.00  0.00    -0.376 OA
BRANCH  35  36
ATOM     36  C   UNL     1      -1.980  -9.054  -4.777  0.00  0.00    +0.187 C 
BRANCH  36  37
ATOM     37  C   UNL     1      -1.947 -10.567  -4.548  0.00  0.00    +0.184 C 
BRANCH  37  38
ATOM     38  O   UNL     1      -3.050 -10.947  -3.722  0.00  0.00    -0.393 OA
ATOM     39  H   UNL     1      -3.093 -11.894  -3.534  0.00  0.00    +0.209 HD
ENDBRANCH  37  38
ENDBRANCH  36  37
ENDBRANCH  35  36
ENDBRANCH  34  35
ENDBRANCH  33  34
ENDBRANCH   6  33
TORSDOF 16
