REMARK  Name = ZINC09747899
REMARK  5 active torsions:
REMARK  status: ('A' for Active; 'I' for Inactive)
REMARK    1  A    between atoms: C_3  and  C_6
REMARK    2  A    between atoms: C_11  and  S_21
REMARK    3  A    between atoms: C_13  and  C_15
REMARK    4  A    between atoms: C_15  and  N_44
REMARK    5  A    between atoms: S_21  and  C_22
REMARK                            x       y       z     vdW  Elec       q    Type
REMARK                         _______ _______ _______ _____ _____    ______ ____
ROOT
ATOM      1  C   UNL     1      -1.459  -2.926  -0.013  0.00  0.00    +0.008 A 
ATOM      2  C   UNL     1      -2.147  -4.085   0.136  0.00  0.00    +0.057 A 
ATOM      3  S   UNL     1      -3.851  -3.565   0.103  0.00  0.00    -0.076 S 
ATOM      4  C   UNL     1      -3.610  -1.822  -0.121  0.00  0.00    +0.113 A 
ATOM      5  C   UNL     1      -2.207  -1.681  -0.157  0.00  0.00    +0.048 A 
ATOM      6  C   UNL     1      -1.732  -0.353  -0.325  0.00  0.00    +0.116 A 
ATOM      7  N   UNL     1      -2.606   0.636  -0.443  0.00  0.00    -0.227 NA
ATOM      8  C   UNL     1      -3.909   0.430  -0.405  0.00  0.00    +0.115 A 
ATOM      9  N   UNL     1      -4.409  -0.780  -0.246  0.00  0.00    -0.227 NA
ENDROOT
BRANCH   1  12
ATOM     10  C   UNL     1       2.243  -2.402   0.579  0.00  0.00    +0.008 A 
ATOM     11  C   UNL     1       0.889  -2.247   0.785  0.00  0.00    +0.016 A 
ATOM     12  C   UNL     1       0.018  -2.923  -0.028  0.00  0.00    +0.021 A 
ATOM     13  S   UNL     1       1.134  -3.807  -1.106  0.00  0.00    -0.097 S 
ATOM     14  C   UNL     1       2.672  -3.217  -0.417  0.00  0.00    +0.046 A 
ENDBRANCH   1  12
BRANCH   8  15
ATOM     15  C   UNL     1      -4.846   1.602  -0.546  0.00  0.00    -0.001 C 
BRANCH  15  21
ATOM     16  C   UNL     1      -3.970   2.229  -2.715  0.00  0.00    -0.050 C 
ATOM     17  C   UNL     1      -4.330   2.374  -4.196  0.00  0.00    +0.141 C 
ATOM     18  O   UNL     1      -5.410   3.303  -4.330  0.00  0.00    -0.383 OA
ATOM     19  C   UNL     1      -6.588   2.923  -3.613  0.00  0.00    +0.141 C 
ATOM     20  C   UNL     1      -6.250   2.784  -2.126  0.00  0.00    -0.050 C 
ATOM     21  N   UNL     1      -5.170   1.785  -1.977  0.00  0.00    +0.387 N 
ATOM     22  H   UNL     1      -5.488   0.889  -2.364  0.00  0.00    -0.081 HD
ENDBRANCH  15  21
ENDBRANCH   8  15
BRANCH   6  23
ATOM     23  S   UNL     1      -0.002  -0.026  -0.383  0.00  0.00    -0.040 S 
BRANCH  23  24
ATOM     24  C   UNL     1      -0.028   1.722  -0.606  0.00  0.00    +0.166 A 
ATOM     25  N   UNL     1      -1.061   2.536  -0.706  0.00  0.00    -0.133 NA
ATOM     26  N   UNL     1      -0.855   3.886  -0.875  0.00  0.00    -0.125 NA
ATOM     27  C   UNL     1       0.375   4.358  -0.947  0.00  0.00    +0.180 A 
ATOM     28  S   UNL     1       1.337   2.864  -0.764  0.00  0.00    -0.024 S 
ATOM     29  N   UNL     1       0.807   5.667  -1.117  0.00  0.00    -0.336 N 
ATOM     30  H   UNL     1       1.756   5.865  -1.151  0.00  0.00    +0.144 HD
ATOM     31  H   UNL     1       0.159   6.384  -1.204  0.00  0.00    +0.144 HD
ENDBRANCH  23  24
ENDBRANCH   6  23
TORSDOF 5
