REMARK  Name = ZINC08614886
REMARK  4 active torsions:
REMARK  status: ('A' for Active; 'I' for Inactive)
REMARK    1  A    between atoms: C_4  and  N_7
REMARK    2  A    between atoms: C_16  and  C_22
REMARK    3  A    between atoms: N_24  and  C_25
REMARK    4  A    between atoms: C_25  and  C_26
REMARK                            x       y       z     vdW  Elec       q    Type
REMARK                         _______ _______ _______ _____ _____    ______ ____
ROOT
ATOM      1  N   UNL     1       3.620  -0.650  -0.036  0.00  0.00    -0.292 N 
ATOM      2  C   UNL     1       3.644  -2.031   0.060  0.00  0.00    +0.186 A 
ATOM      3  N   UNL     1       4.673  -2.828   0.157  0.00  0.00    -0.139 NA
ATOM      4  N   UNL     1       4.517  -4.209   0.247  0.00  0.00    -0.169 N 
ATOM      5  C   UNL     1       5.520  -5.134   0.352  0.00  0.00    +0.283 A 
ATOM      6  O   UNL     1       6.686  -4.783   0.375  0.00  0.00    -0.265 OA
ATOM      7  C   UNL     1       5.168  -6.551   0.436  0.00  0.00    +0.067 A 
ATOM      8  C   UNL     1       6.145  -7.545   0.546  0.00  0.00    +0.016 A 
ATOM      9  C   UNL     1       5.778  -8.855   0.623  0.00  0.00    +0.014 A 
ATOM     10  C   UNL     1       4.426  -9.225   0.594  0.00  0.00    +0.039 A 
ATOM     11  C   UNL     1       3.436  -8.258   0.486  0.00  0.00    +0.041 A 
ATOM     12  C   UNL     1       3.799  -6.910   0.406  0.00  0.00    +0.080 A 
ATOM     13  N   UNL     1       2.882  -5.932   0.301  0.00  0.00    -0.221 NA
ATOM     14  C   UNL     1       3.228  -4.677   0.227  0.00  0.00    +0.201 A 
ATOM     15  S   UNL     1       2.276  -3.176   0.093  0.00  0.00    -0.013 S 
ATOM     16  H   UNL     1       4.451  -0.155  -0.118  0.00  0.00    +0.154 HD
ENDROOT
BRANCH   1  20
ATOM     17  C   UNL     1      -0.016   1.380   0.025  0.00  0.00    +0.000 A 
ATOM     18  C   UNL     1       0.141   0.223   0.766  0.00  0.00    +0.002 A 
ATOM     19  C   UNL     1       1.346  -0.452   0.748  0.00  0.00    +0.023 A 
ATOM     20  C   UNL     1       2.400   0.031  -0.016  0.00  0.00    +0.033 A 
ATOM     21  C   UNL     1       2.239   1.194  -0.759  0.00  0.00    +0.023 A 
ATOM     22  C   UNL     1       1.032   1.865  -0.737  0.00  0.00    +0.002 A 
ENDBRANCH   1  20
BRANCH  10  23
ATOM     23  C   UNL     1       4.051 -10.654   0.678  0.00  0.00    +0.244 C 
ATOM     24  O   UNL     1       2.880 -10.978   0.653  0.00  0.00    -0.270 OA
ATOM     25  N   UNL     1       5.009 -11.596   0.782  0.00  0.00    -0.307 N 
ATOM     26  H   UNL     1       5.944 -11.338   0.802  0.00  0.00    +0.149 HD
BRANCH  25  27
ATOM     27  C   UNL     1       4.639 -13.011   0.866  0.00  0.00    +0.147 C 
BRANCH  27  28
ATOM     28  C   UNL     1       5.886 -13.851   0.975  0.00  0.00    +0.007 A 
ATOM     29  C   UNL     1       6.546 -14.258   2.086  0.00  0.00    +0.013 A 
ATOM     30  C   UNL     1       7.682 -15.033   1.945  0.00  0.00    +0.008 A 
ATOM     31  C   UNL     1       8.102 -15.363   0.699  0.00  0.00    +0.045 A 
ATOM     32  S   UNL     1       6.871 -14.574  -0.326  0.00  0.00    -0.100 S 
ENDBRANCH  27  28
ENDBRANCH  25  27
ENDBRANCH  10  23
TORSDOF 4
