REMARK  Name = ZINC63362242
REMARK  7 active torsions:
REMARK  status: ('A' for Active; 'I' for Inactive)
REMARK    1  A    between atoms: C_1  and  C_2
REMARK    2  A    between atoms: C_2  and  O_3
REMARK    3  A    between atoms: O_3  and  C_4
REMARK    4  A    between atoms: C_7  and  N_10
REMARK    5  A    between atoms: C_11  and  C_13
REMARK    6  A    between atoms: C_16  and  N_19
REMARK    7  A    between atoms: C_22  and  C_38
REMARK                            x       y       z     vdW  Elec       q    Type
REMARK                         _______ _______ _______ _____ _____    ______ ____
ROOT
ATOM      1  N   UNL     1       2.657 -12.044   3.139  0.00  0.00    -0.192 N 
ATOM      2  C   UNL     1       3.269 -12.655   4.174  0.00  0.00    +0.253 C 
ATOM      3  O   UNL     1       3.758 -12.127   5.150  0.00  0.00    -0.272 OA
ATOM      4  C   UNL     1       3.218 -14.135   3.866  0.00  0.00    +0.137 C 
ATOM      5  C   UNL     1       4.639 -14.695   3.734  0.00  0.00    +0.139 C 
ATOM      6  C   UNL     1       4.525 -15.975   2.915  0.00  0.00    -0.034 C 
ATOM      7  C   UNL     1       5.040 -16.945   3.664  0.00  0.00    -0.001 A 
ATOM      8  C   UNL     1       5.261 -18.375   3.393  0.00  0.00    +0.010 A 
ATOM      9  C   UNL     1       5.811 -19.098   4.405  0.00  0.00    +0.001 A 
ATOM     10  C   UNL     1       6.159 -18.547   5.642  0.00  0.00    +0.002 A 
ATOM     11  C   UNL     1       5.996 -17.242   5.975  0.00  0.00    +0.026 A 
ATOM     12  C   UNL     1       5.429 -16.380   4.991  0.00  0.00    +0.043 A 
ATOM     13  N   UNL     1       5.180 -15.093   5.037  0.00  0.00    -0.375 N 
ATOM     14  C   UNL     1       3.872 -16.032   1.556  0.00  0.00    +0.052 C 
ATOM     15  C   UNL     1       2.479 -15.384   1.692  0.00  0.00    +0.115 C 
ATOM     16  N   UNL     1       2.613 -14.179   2.516  0.00  0.00    -0.268 N 
ATOM     17  C   UNL     1       2.257 -12.924   2.212  0.00  0.00    +0.316 C 
ATOM     18  O   UNL     1       1.644 -12.619   1.208  0.00  0.00    -0.252 OA
ATOM     19  C   UNL     1       2.385 -14.905   4.894  0.00  0.00    +0.044 C 
ATOM     20  H   UNL     1       5.322 -14.504   5.795  0.00  0.00    +0.160 HD
ENDROOT
BRANCH   1  24
ATOM     21  C   UNL     1       2.066  -7.926   2.867  0.00  0.00    +0.037 A 
ATOM     22  C   UNL     1       1.504  -8.779   1.913  0.00  0.00    +0.015 A 
ATOM     23  C   UNL     1       1.702 -10.138   2.006  0.00  0.00    +0.025 A 
ATOM     24  C   UNL     1       2.459 -10.663   3.047  0.00  0.00    +0.045 A 
ATOM     25  C   UNL     1       3.020  -9.818   3.999  0.00  0.00    +0.025 A 
ATOM     26  C   UNL     1       2.832  -8.456   3.909  0.00  0.00    +0.015 A 
BRANCH  21  28
ATOM     27  N   UNL     1       1.117  -5.958   1.766  0.00  0.00    -0.281 N 
ATOM     28  C   UNL     1       1.856  -6.468   2.771  0.00  0.00    +0.248 C 
ATOM     29  O   UNL     1       2.350  -5.727   3.599  0.00  0.00    -0.270 OA
ATOM     30  H   UNL     1       0.660  -6.552   1.150  0.00  0.00    +0.155 HD
BRANCH  27  34
ATOM     31  C   UNL     1       0.796  -1.827   1.302  0.00  0.00    +0.121 A 
ATOM     32  C   UNL     1      -0.272  -2.647   0.969  0.00  0.00    +0.047 A 
ATOM     33  C   UNL     1      -0.166  -4.016   1.122  0.00  0.00    +0.027 A 
ATOM     34  C   UNL     1       1.010  -4.571   1.610  0.00  0.00    +0.034 A 
ATOM     35  C   UNL     1       2.078  -3.749   1.944  0.00  0.00    +0.027 A 
ATOM     36  C   UNL     1       1.973  -2.382   1.785  0.00  0.00    +0.047 A 
BRANCH  31  37
ATOM     37  O   UNL     1       0.692  -0.480   1.152  0.00  0.00    -0.492 OA
BRANCH  37  39
ATOM     38  C   UNL     1      -0.478   1.547   0.549  0.00  0.00    +0.048 C 
ATOM     39  C   UNL     1      -0.549   0.022   0.650  0.00  0.00    +0.225 C 
ENDBRANCH  37  39
ENDBRANCH  31  37
ENDBRANCH  27  34
ENDBRANCH  21  28
ENDBRANCH   1  24
TORSDOF 5
