REMARK  Name = ZINC13499190
REMARK  16 active torsions:
REMARK  status: ('A' for Active; 'I' for Inactive)
REMARK    1  A    between atoms: C_1  and  C_2
REMARK    2  A    between atoms: C_2  and  O_3
REMARK    3  A    between atoms: O_3  and  C_4
REMARK    4  A    between atoms: C_4  and  C_6
REMARK    5  A    between atoms: C_6  and  N_7
REMARK    6  A    between atoms: C_8  and  C_12
REMARK    7  A    between atoms: C_12  and  C_14
REMARK    8  A    between atoms: C_12  and  N_17
REMARK    9  A    between atoms: C_14  and  C_15
REMARK   10  A    between atoms: C_14  and  C_16
REMARK   11  A    between atoms: N_17  and  C_18
REMARK   12  A    between atoms: N_17  and  C_24
REMARK   13  A    between atoms: C_18  and  C_19
REMARK   14  A    between atoms: C_24  and  C_25
REMARK   15  A    between atoms: C_28  and  C_38
REMARK   16  A    between atoms: C_31  and  C_37
REMARK                            x       y       z     vdW  Elec       q    Type
REMARK                         _______ _______ _______ _____ _____    ______ ____
ROOT
ATOM      1  N   UNL     1      -1.124  -4.608   4.656  0.00  0.00    -0.281 NA
ENDROOT
BRANCH   1   2
ATOM      2  C   UNL     1      -1.081  -3.895   3.372  0.00  0.00    +0.130 C 
BRANCH   2   4
ATOM      3  N   UNL     1       1.081  -3.547   2.065  0.00  0.00    -0.217 N 
ATOM      4  C   UNL     1       0.129  -4.339   2.591  0.00  0.00    +0.169 A 
ATOM      5  N   UNL     1       0.458  -5.572   2.293  0.00  0.00    -0.112 NA
ATOM      6  N   UNL     1       1.555  -5.539   1.619  0.00  0.00    -0.023 NA
ATOM      7  N   UNL     1       1.931  -4.317   1.474  0.00  0.00    -0.043 NA
BRANCH   3   8
ATOM      8  C   UNL     1       1.138  -2.085   2.142  0.00  0.00    +0.267 C 
BRANCH   8   9
ATOM      9  C   UNL     1       0.452  -1.491   0.939  0.00  0.00    +0.329 C 
ATOM     10  O   UNL     1       0.058  -2.211   0.052  0.00  0.00    -0.249 OA
BRANCH   9  11
ATOM     11  O   UNL     1       0.279  -0.163   0.853  0.00  0.00    -0.464 OA
BRANCH  11  13
ATOM     12  C   UNL     1      -0.483   1.855  -0.236  0.00  0.00    +0.048 C 
ATOM     13  C   UNL     1      -0.379   0.331  -0.316  0.00  0.00    +0.229 C 
ENDBRANCH  11  13
ENDBRANCH   9  11
ENDBRANCH   8   9
ENDBRANCH   3   8
ENDBRANCH   2   4
BRANCH   2  14
ATOM     14  C   UNL     1      -2.348  -4.207   2.573  0.00  0.00    +0.008 C 
ATOM     15  C   UNL     1      -2.334  -3.411   1.266  0.00  0.00    +0.009 C 
ATOM     16  C   UNL     1      -2.397  -5.703   2.259  0.00  0.00    +0.009 C 
ENDBRANCH   2  14
ENDBRANCH   1   2
BRANCH   1  17
ATOM     17  C   UNL     1       0.119  -4.407   5.412  0.00  0.00    +0.159 C 
BRANCH  17  18
ATOM     18  C   UNL     1       0.224  -5.450   6.494  0.00  0.00    +0.119 A 
ATOM     19  C   UNL     1       0.886  -6.617   6.400  0.00  0.00    +0.046 A 
ATOM     20  C   UNL     1       0.723  -7.282   7.637  0.00  0.00    +0.041 A 
ATOM     21  C   UNL     1      -0.029  -6.481   8.413  0.00  0.00    +0.195 A 
ATOM     22  O   UNL     1      -0.324  -5.371   7.718  0.00  0.00    -0.467 OA
ENDBRANCH  17  18
ENDBRANCH   1  17
BRANCH   1  23
ATOM     23  C   UNL     1      -2.293  -4.199   5.446  0.00  0.00    +0.126 C 
BRANCH  23  24
ATOM     24  C   UNL     1      -2.293  -2.700   5.605  0.00  0.00    +0.032 A 
ATOM     25  C   UNL     1      -2.994  -1.929   4.738  0.00  0.00    +0.020 A 
ATOM     26  C   UNL     1      -2.974  -0.476   4.920  0.00  0.00    +0.002 A 
ATOM     27  C   UNL     1      -3.678   0.371   4.058  0.00  0.00    -0.041 A 
ATOM     28  C   UNL     1      -3.639   1.722   4.255  0.00  0.00    +0.004 A 
ATOM     29  C   UNL     1      -2.906   2.262   5.303  0.00  0.00    +0.005 A 
ATOM     30  C   UNL     1      -2.204   1.447   6.164  0.00  0.00    -0.026 A 
ATOM     31  C   UNL     1      -2.230   0.068   5.984  0.00  0.00    +0.052 A 
ATOM     32  N   UNL     1      -1.538  -0.772   6.831  0.00  0.00    -0.322 N 
ATOM     33  H   UNL     1      -1.026  -0.395   7.563  0.00  0.00    +0.169 HD
ATOM     34  C   UNL     1      -1.567  -2.105   6.659  0.00  0.00    +0.254 A 
ATOM     35  O   UNL     1      -0.947  -2.817   7.430  0.00  0.00    -0.268 OA
ATOM     36  C   UNL     1      -1.412   2.047   7.297  0.00  0.00    +0.046 C 
ATOM     37  C   UNL     1      -4.476  -0.205   2.916  0.00  0.00    +0.044 C 
ENDBRANCH  23  24
ENDBRANCH   1  23
TORSDOF 11
