REMARK  Name = ZINC19640104
REMARK  6 active torsions:
REMARK  status: ('A' for Active; 'I' for Inactive)
REMARK    1  A    between atoms: C_1  and  C_2
REMARK    2  A    between atoms: C_2  and  O_3
REMARK    3  A    between atoms: O_3  and  C_4
REMARK    4  A    between atoms: C_7  and  C_10
REMARK    5  A    between atoms: C_15  and  C_20
REMARK    6  A    between atoms: C_29  and  C_31
REMARK                            x       y       z     vdW  Elec       q    Type
REMARK                         _______ _______ _______ _____ _____    ______ ____
ROOT
ATOM      1  C   UNL     1      -2.001  -6.092  -0.011  0.00  0.00    +0.175 C 
ATOM      2  C   UNL     1      -2.769  -6.501  -1.248  0.00  0.00    +0.041 C 
ATOM      3  C   UNL     1      -4.059  -6.896  -1.194  0.00  0.00    +0.020 C 
ATOM      4  C   UNL     1      -4.801  -7.300  -2.446  0.00  0.00    +0.063 C 
ATOM      5  C   UNL     1      -4.255  -6.519  -3.643  0.00  0.00    +0.068 C 
ATOM      6  C   UNL     1      -2.756  -6.812  -3.768  0.00  0.00    +0.091 C 
ATOM      7  C   UNL     1      -2.080  -6.453  -2.474  0.00  0.00    +0.164 C 
ATOM      8  O   UNL     1      -0.914  -6.113  -2.487  0.00  0.00    -0.292 OA
ATOM      9  N   UNL     1      -4.750  -6.955  -0.007  0.00  0.00    -0.287 N 
ATOM     10  C   UNL     1      -4.024  -6.897   1.171  0.00  0.00    +0.219 A 
ATOM     11  N   UNL     1      -2.730  -6.498   1.184  0.00  0.00    -0.220 N 
ATOM     12  N   UNL     1      -2.311  -6.565   2.512  0.00  0.00    -0.143 NA
ATOM     13  C   UNL     1      -3.338  -6.981   3.211  0.00  0.00    +0.256 A 
ATOM     14  N   UNL     1      -4.371  -7.179   2.397  0.00  0.00    -0.189 NA
ATOM     15  H   UNL     1      -5.716  -7.034   0.005  0.00  0.00    +0.155 HD
ENDROOT
BRANCH   1  19
ATOM     16  C   UNL     1      -1.498  -1.848   0.006  0.00  0.00    +0.121 A 
ATOM     17  C   UNL     1      -0.388  -2.679  -0.003  0.00  0.00    +0.046 A 
ATOM     18  C   UNL     1      -0.553  -4.051  -0.008  0.00  0.00    +0.009 A 
ATOM     19  C   UNL     1      -1.823  -4.596  -0.005  0.00  0.00    -0.018 A 
ATOM     20  C   UNL     1      -2.932  -3.769   0.004  0.00  0.00    +0.009 A 
ATOM     21  C   UNL     1      -2.772  -2.397   0.016  0.00  0.00    +0.046 A 
BRANCH  16  22
ATOM     22  O   UNL     1      -1.339  -0.499   0.012  0.00  0.00    -0.492 OA
BRANCH  22  24
ATOM     23  C   UNL     1      -0.019   1.526   0.010  0.00  0.00    +0.048 C 
ATOM     24  C   UNL     1       0.002  -0.004   0.002  0.00  0.00    +0.225 C 
ENDBRANCH  22  24
ENDBRANCH  16  22
ENDBRANCH   1  19
BRANCH   5  25
ATOM     25  C   UNL     1      -4.965  -6.953  -4.899  0.00  0.00    +0.109 A 
ATOM     26  C   UNL     1      -5.686  -6.159  -5.711  0.00  0.00    +0.045 A 
ATOM     27  C   UNL     1      -6.168  -6.974  -6.760  0.00  0.00    +0.041 A 
ATOM     28  C   UNL     1      -5.713  -8.219  -6.528  0.00  0.00    +0.195 A 
ATOM     29  O   UNL     1      -4.980  -8.199  -5.402  0.00  0.00    -0.468 OA
ENDBRANCH   5  25
BRANCH  13  30
ATOM     30  C   UNL     1      -3.347  -7.201   4.702  0.00  0.00    +0.454 C 
ATOM     31  F   UNL     1      -4.045  -6.159   5.323  0.00  0.00    -0.163 F 
ATOM     32  F   UNL     1      -3.973  -8.418   4.990  0.00  0.00    -0.163 F 
ATOM     33  F   UNL     1      -2.032  -7.229   5.178  0.00  0.00    -0.163 F 
ENDBRANCH  13  30
TORSDOF 5
