REMARK  Name = ZINC18189984
REMARK  7 active torsions:
REMARK  status: ('A' for Active; 'I' for Inactive)
REMARK    1  A    between atoms: C_1  and  C_2
REMARK    2  A    between atoms: C_2  and  C_3
REMARK    3  A    between atoms: C_3  and  N_4
REMARK    4  A    between atoms: C_7  and  C_10
REMARK    5  A    between atoms: C_18  and  C_20
REMARK    6  A    between atoms: C_29  and  N_32
REMARK    7  A    between atoms: C_33  and  C_35
REMARK                            x       y       z     vdW  Elec       q    Type
REMARK                         _______ _______ _______ _____ _____    ______ ____
ROOT
ATOM      1  N   UNL     1       2.849   5.305  -0.715  0.00  0.00    -0.250 N 
ATOM      2  C   UNL     1       1.895   6.251  -0.362  0.00  0.00    +0.168 A 
ATOM      3  N   UNL     1       1.927   7.563  -0.507  0.00  0.00    -0.224 NA
ATOM      4  C   UNL     1       0.917   8.323  -0.113  0.00  0.00    +0.082 A 
ATOM      5  C   UNL     1      -0.177   7.739   0.463  0.00  0.00    +0.077 A 
ATOM      6  S   UNL     1       0.302   6.017   0.413  0.00  0.00    -0.060 S 
ATOM      7  C   UNL     1       2.775   4.685  -1.909  0.00  0.00    +0.227 C 
ATOM      8  O   UNL     1       3.555   3.797  -2.182  0.00  0.00    -0.275 OA
ENDROOT
BRANCH   7   9
ATOM      9  C   UNL     1       1.723   5.096  -2.907  0.00  0.00    +0.050 C 
ATOM     10  C   UNL     1       0.631   4.025  -2.967  0.00  0.00    +0.020 C 
ATOM     11  C   UNL     1      -0.437   4.442  -3.979  0.00  0.00    -0.008 C 
ATOM     12  C   UNL     1      -1.054   5.775  -3.551  0.00  0.00    +0.007 C 
ATOM     13  C   UNL     1       0.038   6.846  -3.491  0.00  0.00    -0.008 C 
ATOM     14  C   UNL     1       1.106   6.429  -2.478  0.00  0.00    +0.020 C 
ATOM     15  C   UNL     1       0.677   7.000  -4.872  0.00  0.00    +0.029 C 
ATOM     16  C   UNL     1       1.293   5.667  -5.301  0.00  0.00    +0.036 C 
ATOM     17  C   UNL     1       0.202   4.597  -5.361  0.00  0.00    +0.029 C 
ATOM     18  C   UNL     1       2.362   5.250  -4.288  0.00  0.00    +0.042 C 
BRANCH  16  19
ATOM     19  N   UNL     1       1.905   5.815  -6.624  0.00  0.00    -0.310 N 
ATOM     20  C   UNL     1       1.150   6.179  -7.679  0.00  0.00    +0.210 C 
ATOM     21  O   UNL     1      -0.036   6.384  -7.534  0.00  0.00    -0.276 OA
ATOM     22  C   UNL     1       1.780   6.331  -9.040  0.00  0.00    +0.109 C 
ATOM     23  H   UNL     1       2.982   5.629  -6.756  0.00  0.00    +0.149 HD
ENDBRANCH  16  19
ENDBRANCH   7   9
BRANCH   4  24
ATOM     24  C   UNL     1       0.973   9.794  -0.291  0.00  0.00    +0.019 A 
ATOM     25  C   UNL     1      -0.021  10.450  -1.017  0.00  0.00    +0.013 A 
ATOM     26  C   UNL     1       0.033  11.819  -1.175  0.00  0.00    +0.021 A 
ATOM     27  C   UNL     1       1.078  12.542  -0.625  0.00  0.00    +0.042 A 
ATOM     28  C   UNL     1       2.070  11.897   0.093  0.00  0.00    +0.040 A 
ATOM     29  C   UNL     1       2.023  10.527   0.262  0.00  0.00    +0.052 A 
ATOM     30 CL   UNL     1       3.268   9.718   1.162  0.00  0.00    -0.083 Cl
ATOM     31 CL   UNL     1       1.144  14.264  -0.835  0.00  0.00    -0.083 Cl
ENDBRANCH   4  24
BRANCH   1  32
ATOM     32  C   UNL     1       3.936   4.980   0.212  0.00  0.00    +0.115 C 
BRANCH  32  34
ATOM     33  C   UNL     1       6.324   5.434   0.792  0.00  0.00    +0.005 C 
ATOM     34  C   UNL     1       5.162   5.834  -0.119  0.00  0.00    +0.016 C 
ENDBRANCH  32  34
ENDBRANCH   1  32
TORSDOF 5
