REMARK  Name = ZINC51394140
REMARK  4 active torsions:
REMARK  status: ('A' for Active; 'I' for Inactive)
REMARK    1  A    between atoms: C_4  and  S_8
REMARK    2  A    between atoms: S_8  and  C_9
REMARK    3  A    between atoms: C_9  and  C_10
REMARK    4  A    between atoms: C_14  and  C_17
REMARK                            x       y       z     vdW  Elec       q    Type
REMARK                         _______ _______ _______ _____ _____    ______ ____
ROOT
ATOM      1  C   UNL     1      -5.100   0.315   0.054  0.00  0.00    +0.109 C 
ENDROOT
BRANCH   1   2
ATOM      2  C   UNL     1      -6.472  -0.362   0.064  0.00  0.00    +0.130 C 
ATOM      3  C   UNL     1      -7.598   0.703   0.045  0.00  0.00    +0.035 C 
ATOM      4  C   UNL     1      -8.764  -0.112  -0.579  0.00  0.00    +0.046 C 
ATOM      5  C   UNL     1      -8.024  -1.040  -1.565  0.00  0.00    +0.231 C 
ATOM      6  O   UNL     1      -6.658  -1.128  -1.137  0.00  0.00    -0.361 OA
BRANCH   5   7
ATOM      7  C   UNL     1      -8.654  -2.409  -1.550  0.00  0.00    +0.384 C 
ATOM      8  O   UNL     1      -9.800  -2.557  -1.937  0.00  0.00    -0.243 OA
ATOM      9  O   UNL     1      -8.017  -3.369  -1.150  0.00  0.00    -0.243 OA
ENDBRANCH   5   7
ENDBRANCH   1   2
BRANCH   1  10
ATOM     10  S   UNL     1      -3.801  -0.951   0.034  0.00  0.00    -0.083 S 
BRANCH  10  14
ATOM     11  C   UNL     1      -0.017   1.378   0.010  0.00  0.00    +0.092 A 
ATOM     12  C   UNL     1       0.002  -0.004   0.002  0.00  0.00    +0.119 A 
ATOM     13  N   UNL     1      -1.144  -0.667   0.010  0.00  0.00    -0.230 NA
ATOM     14  C   UNL     1      -2.303  -0.024   0.025  0.00  0.00    +0.192 A 
ATOM     15  N   UNL     1      -2.361   1.300   0.033  0.00  0.00    -0.183 NA
ATOM     16  C   UNL     1      -1.251   2.027   0.031  0.00  0.00    +0.274 A 
ATOM     17  O   UNL     1      -1.315   3.381   0.039  0.00  0.00    -0.266 OA
ENDBRANCH  10  14
ENDBRANCH   1  10
TORSDOF 4
