REMARK  Name = ZINC33454882
REMARK  10 active torsions:
REMARK  status: ('A' for Active; 'I' for Inactive)
REMARK    1  A    between atoms: C_1  and  C_2
REMARK    2  A    between atoms: C_2  and  O_3
REMARK    3  A    between atoms: O_3  and  C_4
REMARK    4  A    between atoms: C_4  and  C_5
REMARK    5  A    between atoms: C_5  and  C_6
REMARK    6  A    between atoms: C_6  and  N_7
REMARK    7  A    between atoms: C_11  and  C_12
REMARK    8  A    between atoms: C_13  and  N_24
REMARK    9  A    between atoms: C_18  and  C_23
REMARK   10  A    between atoms: C_27  and  C_30
REMARK                            x       y       z     vdW  Elec       q    Type
REMARK                         _______ _______ _______ _____ _____    ______ ____
ROOT
ATOM      1  C   UNL     1       0.344   4.201  -0.238  0.00  0.00    +0.081 A 
ATOM      2  C   UNL     1       0.502   5.601  -0.106  0.00  0.00    +0.136 A 
ATOM      3  N   UNL     1      -0.568   6.368   0.044  0.00  0.00    -0.214 NA
ATOM      4  C   UNL     1      -1.798   5.853   0.083  0.00  0.00    +0.142 A 
ATOM      5  C   UNL     1      -2.896   6.716   0.248  0.00  0.00    +0.047 A 
ATOM      6  C   UNL     1      -4.157   6.199   0.289  0.00  0.00    +0.008 A 
ATOM      7  C   UNL     1      -4.341   4.815   0.165  0.00  0.00    -0.034 A 
ATOM      8  C   UNL     1      -3.274   4.001   0.008  0.00  0.00    +0.099 A 
ATOM      9  N   UNL     1      -2.009   4.508  -0.035  0.00  0.00    -0.267 N 
ATOM     10  C   UNL     1      -0.965   3.666  -0.195  0.00  0.00    +0.267 A 
ATOM     11  O   UNL     1      -1.148   2.465  -0.301  0.00  0.00    -0.267 OA
ATOM     12  C   UNL     1      -5.731   4.235   0.209  0.00  0.00    +0.045 C 
ENDROOT
BRANCH   1  17
ATOM     13  N   UNL     1       1.710   1.310   2.624  0.00  0.00    -0.255 N 
ATOM     14  C   UNL     1       1.202   2.251   1.847  0.00  0.00    +0.258 C 
ATOM     15  O   UNL     1       0.248   2.916   2.211  0.00  0.00    -0.269 OA
ATOM     16  C   UNL     1       1.798   2.462   0.571  0.00  0.00    +0.077 C 
ATOM     17  C   UNL     1       1.467   3.358  -0.404  0.00  0.00    +0.037 C 
ATOM     18  S   UNL     1       3.098   1.235   0.595  0.00  0.00    -0.061 S 
ATOM     19  C   UNL     1       2.765   0.569   2.219  0.00  0.00    +0.121 C 
ATOM     20  S   UNL     1       3.576  -0.689   3.050  0.00  0.00    -0.027 S 
BRANCH  13  21
ATOM     21  C   UNL     1       1.120   1.067   3.943  0.00  0.00    +0.117 C 
BRANCH  21  22
ATOM     22  C   UNL     1       0.014   0.017   3.821  0.00  0.00    +0.047 C 
BRANCH  22  23
ATOM     23  C   UNL     1      -0.602  -0.238   5.198  0.00  0.00    +0.161 C 
BRANCH  23  24
ATOM     24  O   UNL     1      -1.635  -1.219   5.085  0.00  0.00    -0.380 OA
BRANCH  24  26
ATOM     25  C   UNL     1      -3.361  -2.586   6.081  0.00  0.00    +0.034 C 
ATOM     26  C   UNL     1      -2.279  -1.531   6.321  0.00  0.00    +0.156 C 
ENDBRANCH  24  26
ENDBRANCH  23  24
ENDBRANCH  22  23
ENDBRANCH  21  22
ENDBRANCH  13  21
ENDBRANCH   1  17
BRANCH   2  27
ATOM     27  N   UNL     1       1.759   6.164  -0.136  0.00  0.00    -0.314 N 
ATOM     28  C   UNL     1       2.557   5.733   1.020  0.00  0.00    +0.107 C 
ATOM     29  C   UNL     1       3.987   6.257   0.878  0.00  0.00    +0.031 C 
ATOM     30  C   UNL     1       3.960   7.786   0.794  0.00  0.00    +0.078 C 
ATOM     31  C   UNL     1       3.084   8.209  -0.388  0.00  0.00    +0.031 C 
ATOM     32  C   UNL     1       1.679   7.628  -0.210  0.00  0.00    +0.107 C 
BRANCH  30  33
ATOM     33  C   UNL     1       5.360   8.306   0.595  0.00  0.00    +0.214 C 
ATOM     34  O   UNL     1       5.632   8.952  -0.395  0.00  0.00    -0.276 OA
ATOM     35  N   UNL     1       6.310   8.054   1.517  0.00  0.00    -0.329 N 
ATOM     36  H   UNL     1       7.332   8.433   1.372  0.00  0.00    +0.145 HD
ATOM     37  H   UNL     1       6.063   7.468   2.415  0.00  0.00    +0.145 HD
ENDBRANCH  30  33
ENDBRANCH   2  27
TORSDOF 8
