REMARK  Name = ZINC39454103
REMARK  2 active torsions:
REMARK  status: ('A' for Active; 'I' for Inactive)
REMARK    1  A    between atoms: C_1  and  O_2
REMARK    2  A    between atoms: O_2  and  N_3
REMARK                            x       y       z     vdW  Elec       q    Type
REMARK                         _______ _______ _______ _____ _____    ______ ____
ROOT
ATOM      1  N   UNL     1      -1.284  -0.598   0.011  0.00  0.00    -0.139 N 
ATOM      2  C   UNL     1      -1.884  -0.880   1.233  0.00  0.00    +0.149 A 
ATOM      3  C   UNL     1      -3.134  -1.464   1.293  0.00  0.00    +0.085 A 
ATOM      4  C   UNL     1      -3.853  -1.788   0.049  0.00  0.00    +0.100 A 
ATOM      5  C   UNL     1      -3.217  -1.487  -1.185  0.00  0.00    +0.070 A 
ATOM      6  C   UNL     1      -1.884  -0.863  -1.162  0.00  0.00    +0.293 A 
ATOM      7  O   UNL     1      -1.323  -0.592  -2.207  0.00  0.00    -0.264 OA
ATOM      8  C   UNL     1      -3.849  -1.773  -2.386  0.00  0.00    +0.026 A 
ATOM      9  C   UNL     1      -5.121  -2.364  -2.331  0.00  0.00    +0.014 A 
ATOM     10  C   UNL     1      -5.717  -2.644  -1.022  0.00  0.00    +0.073 A 
ATOM     11  N   UNL     1      -5.051  -2.341   0.091  0.00  0.00    -0.245 NA
ATOM     12  C   UNL     1      -6.993  -3.234  -0.978  0.00  0.00    +0.028 A 
ATOM     13  C   UNL     1      -7.638  -3.530  -2.139  0.00  0.00    +0.003 A 
ATOM     14  C   UNL     1      -7.069  -3.264  -3.382  0.00  0.00    +0.015 A 
ATOM     15  C   UNL     1      -5.838  -2.693  -3.494  0.00  0.00    +0.023 A 
ATOM     16  I   UNL     1      -5.020  -2.308  -5.384  0.00  0.00    -0.043 I 
ATOM     17  N   UNL     1      -3.705  -1.747   2.518  0.00  0.00    -0.328 N 
ATOM     18  C   UNL     1      -2.814  -1.985   3.664  0.00  0.00    +0.146 C 
ATOM     19  C   UNL     1      -1.843  -0.804   3.769  0.00  0.00    +0.115 C 
ATOM     20  C   UNL     1      -1.198  -0.567   2.429  0.00  0.00    +0.187 C 
ATOM     21  O   UNL     1      -0.077  -0.102   2.374  0.00  0.00    -0.290 OA
ATOM     22 BR   UNL     1      -1.806  -3.650   3.386  0.00  0.00    -0.067 Br
ATOM     23  H   UNL     1      -4.669  -1.788   2.621  0.00  0.00    +0.147 HD
ENDROOT
BRANCH   1  25
ATOM     24  C   UNL     1      -0.017   1.425   0.010  0.00  0.00    +0.311 C 
ATOM     25  O   UNL     1       0.002  -0.004   0.002  0.00  0.00    -0.411 OA
ENDBRANCH   1  25
TORSDOF 1
