REMARK  Name = ZINC42427740
REMARK  6 active torsions:
REMARK  status: ('A' for Active; 'I' for Inactive)
REMARK    1  A    between atoms: C_1  and  C_2
REMARK    2  A    between atoms: C_3  and  N_20
REMARK    3  A    between atoms: C_4  and  N_8
REMARK    4  A    between atoms: N_5  and  C_7
REMARK    5  A    between atoms: C_10  and  C_17
REMARK    6  A    between atoms: C_14  and  C_16
REMARK                            x       y       z     vdW  Elec       q    Type
REMARK                         _______ _______ _______ _____ _____    ______ ____
ROOT
ATOM      1  N   UNL     1       0.191  -3.183  -1.615  0.00  0.00    -0.310 N 
ATOM      2  C   UNL     1       0.346  -2.968  -3.060  0.00  0.00    +0.119 C 
ATOM      3  C   UNL     1      -0.845  -3.605  -3.784  0.00  0.00    +0.092 C 
ATOM      4  C   UNL     1      -0.959  -5.075  -3.375  0.00  0.00    +0.016 C 
ATOM      5  C   UNL     1      -1.203  -5.170  -1.867  0.00  0.00    +0.023 C 
ATOM      6  C   UNL     1      -0.010  -4.552  -1.121  0.00  0.00    +0.072 C 
ATOM      7  C   UNL     1      -0.303  -4.518   0.380  0.00  0.00    +0.028 C 
ENDROOT
BRANCH   1  11
ATOM      8  C   UNL     1      -1.153   0.702   1.226  0.00  0.00    +0.069 C 
ATOM      9  C   UNL     1      -0.330  -0.367   0.553  0.00  0.00    +0.082 A 
ATOM     10  C   UNL     1      -0.812  -1.327  -0.343  0.00  0.00    +0.088 A 
ATOM     11  C   UNL     1       0.240  -2.106  -0.726  0.00  0.00    +0.141 A 
ATOM     12  N   UNL     1       1.346  -1.641  -0.084  0.00  0.00    -0.252 N 
ATOM     13  N   UNL     1       0.958  -0.550   0.704  0.00  0.00    -0.173 NA
ATOM     14  C   UNL     1       2.703  -2.182  -0.201  0.00  0.00    +0.174 C 
BRANCH  10  15
ATOM     15  N   UNL     1      -2.152  -1.466  -0.775  0.00  0.00    -0.354 N 
ATOM     16  H   UNL     1      -2.845  -0.906  -0.392  0.00  0.00    +0.142 HD
ATOM     17  H   UNL     1      -2.377  -2.120  -1.454  0.00  0.00    +0.142 HD
ENDBRANCH  10  15
ENDBRANCH   1  11
BRANCH   3  18
ATOM     18  C   UNL     1      -0.637  -3.511  -5.273  0.00  0.00    +0.215 C 
ATOM     19  O   UNL     1       0.364  -2.987  -5.714  0.00  0.00    -0.276 OA
ATOM     20  N   UNL     1      -1.564  -4.009  -6.115  0.00  0.00    -0.329 N 
ATOM     21  H   UNL     1      -2.365  -4.428  -5.763  0.00  0.00    +0.145 HD
ATOM     22  H   UNL     1      -1.430  -3.948  -7.074  0.00  0.00    +0.145 HD
ENDBRANCH   3  18
TORSDOF 3
