REMARK  Name = ZINC03670493
REMARK  12 active torsions:
REMARK  status: ('A' for Active; 'I' for Inactive)
REMARK    1  A    between atoms: C_1  and  C_2
REMARK    2  A    between atoms: C_2  and  C_3
REMARK    3  A    between atoms: C_2  and  C_4
REMARK    4  A    between atoms: C_4  and  C_5
REMARK    5  A    between atoms: C_5  and  N_6
REMARK    6  A    between atoms: C_7  and  C_9
REMARK    7  A    between atoms: C_9  and  O_31
REMARK    8  A    between atoms: N_19  and  C_20
REMARK    9  A    between atoms: C_23  and  O_28
REMARK   10  A    between atoms: C_25  and  O_26
REMARK   11  A    between atoms: O_26  and  C_27
REMARK   12  A    between atoms: O_28  and  C_29
REMARK                            x       y       z     vdW  Elec       q    Type
REMARK                         _______ _______ _______ _____ _____    ______ ____
ROOT
ATOM      1  C   UNL     1      -6.273  -1.266   2.559  0.00  0.00    +0.247 C 
ATOM      2  C   UNL     1      -7.737  -1.617   2.692  0.00  0.00    +0.034 A 
ATOM      3  C   UNL     1      -8.142  -2.760   3.342  0.00  0.00    +0.025 A 
ATOM      4  C   UNL     1      -9.492  -3.050   3.445  0.00  0.00    +0.018 A 
ATOM      5  C   UNL     1     -10.428  -2.192   2.895  0.00  0.00    +0.017 A 
ATOM      6  C   UNL     1     -10.024  -1.044   2.243  0.00  0.00    +0.025 A 
ATOM      7  C   UNL     1      -8.671  -0.749   2.138  0.00  0.00    +0.043 A 
ATOM      8  N   UNL     1      -8.242   0.406   1.482  0.00  0.00    -0.269 N 
ATOM      9  C   UNL     1      -6.950   0.737   1.358  0.00  0.00    +0.314 C 
ATOM     10  O   UNL     1      -6.669   1.766   0.775  0.00  0.00    -0.252 OA
ATOM     11  N   UNL     1      -5.949  -0.019   1.844  0.00  0.00    -0.211 N 
ATOM     12 BR   UNL     1     -10.057  -4.620   4.335  0.00  0.00    -0.050 Br
ATOM     13  H   UNL     1      -8.910   0.998   1.103  0.00  0.00    +0.156 HD
ENDROOT
BRANCH  11  14
ATOM     14  C   UNL     1      -4.614   0.378   1.678  0.00  0.00    +0.083 A 
ATOM     15  C   UNL     1      -3.902  -0.032   0.561  0.00  0.00    +0.031 A 
ATOM     16  C   UNL     1      -2.588   0.364   0.394  0.00  0.00    +0.048 A 
ATOM     17  C   UNL     1      -1.976   1.163   1.348  0.00  0.00    +0.124 A 
ATOM     18  C   UNL     1      -2.683   1.575   2.467  0.00  0.00    +0.093 A 
ATOM     19  C   UNL     1      -4.002   1.184   2.635  0.00  0.00    +0.145 A 
BRANCH  19  20
ATOM     20  O   UNL     1      -4.697   1.588   3.731  0.00  0.00    -0.493 OA
ATOM     21  C   UNL     1      -4.006   2.413   4.670  0.00  0.00    +0.277 C 
ENDBRANCH  19  20
BRANCH  17  22
ATOM     22  O   UNL     1      -0.682   1.547   1.184  0.00  0.00    -0.495 OA
ATOM     23  C   UNL     1      -0.013   1.086   0.008  0.00  0.00    +0.277 C 
ENDBRANCH  17  22
ENDBRANCH  11  14
BRANCH   1  25
ATOM     24  N   UNL     1      -5.795  -2.596   0.529  0.00  0.00    -0.311 N 
ATOM     25  C   UNL     1      -5.586  -2.402   1.846  0.00  0.00    +0.269 C 
ATOM     26  O   UNL     1      -4.845  -3.142   2.458  0.00  0.00    -0.270 OA
ATOM     27  H   UNL     1      -6.388  -2.004   0.039  0.00  0.00    +0.149 HD
BRANCH  24  28
ATOM     28  C   UNL     1      -5.127  -3.700  -0.164  0.00  0.00    +0.104 C 
BRANCH  28  29
ATOM     29  C   UNL     1      -5.532  -3.696  -1.640  0.00  0.00    +0.022 C 
BRANCH  29  31
ATOM     30  C   UNL     1      -5.342  -6.182  -1.808  0.00  0.00    +0.007 C 
ATOM     31  C   UNL     1      -4.835  -4.850  -2.363  0.00  0.00    -0.016 C 
ATOM     32  C   UNL     1      -5.141  -4.772  -3.860  0.00  0.00    +0.007 C 
ENDBRANCH  29  31
ENDBRANCH  28  29
ENDBRANCH  24  28
ENDBRANCH   1  25
BRANCH   1  33
ATOM     33  O   UNL     1      -5.719  -1.177   3.873  0.00  0.00    -0.360 OA
ATOM     34  H   UNL     1      -5.882  -1.957   4.422  0.00  0.00    +0.213 HD
ENDBRANCH   1  33
TORSDOF 8
