REMARK  Name = ZINC19328047
REMARK  10 active torsions:
REMARK  status: ('A' for Active; 'I' for Inactive)
REMARK    1  A    between atoms: C_1  and  C_2
REMARK    2  A    between atoms: C_2  and  O_3
REMARK    3  A    between atoms: O_3  and  C_4
REMARK    4  A    between atoms: C_4  and  C_6
REMARK    5  A    between atoms: C_7  and  C_28
REMARK    6  A    between atoms: C_8  and  C_13
REMARK    7  A    between atoms: C_11  and  C_12
REMARK    8  A    between atoms: N_14  and  N_15
REMARK    9  A    between atoms: C_16  and  C_18
REMARK   10  A    between atoms: C_20  and  N_26
REMARK                            x       y       z     vdW  Elec       q    Type
REMARK                         _______ _______ _______ _____ _____    ______ ____
ROOT
ATOM      1  N   UNL     1      -1.386  -6.498   3.595  0.00  0.00    -0.202 N 
ATOM      2  C   UNL     1      -1.370  -6.394   4.939  0.00  0.00    +0.283 C 
ATOM      3  O   UNL     1      -1.322  -5.299   5.464  0.00  0.00    -0.267 OA
ATOM      4  H   UNL     1      -1.429  -7.489   3.121  0.00  0.00    +0.178 HD
ENDROOT
BRANCH   2   5
ATOM      5  C   UNL     1      -1.410  -7.614   5.776  0.00  0.00    +0.149 A 
ATOM      6  C   UNL     1      -1.387  -7.500   7.163  0.00  0.00    +0.094 A 
ATOM      7  C   UNL     1      -1.430  -8.660   7.937  0.00  0.00    +0.067 A 
ATOM      8  C   UNL     1      -1.484  -9.890   7.284  0.00  0.00    +0.100 A 
ATOM      9  C   UNL     1      -1.498  -9.922   5.899  0.00  0.00    +0.150 A 
ATOM     10  N   UNL     1      -1.461  -8.809   5.195  0.00  0.00    -0.228 NA
ATOM     11 CL   UNL     1      -1.565 -11.450   5.079  0.00  0.00    -0.060 Cl
ATOM     12 CL   UNL     1      -1.533 -11.367   8.196  0.00  0.00    -0.078 Cl
ATOM     13 CL   UNL     1      -1.312  -5.939   7.918  0.00  0.00    -0.079 Cl
BRANCH   7  14
ATOM     14  N   UNL     1      -1.415  -8.590   9.329  0.00  0.00    -0.356 N 
ATOM     15  H   UNL     1      -1.450  -9.514   9.926  0.00  0.00    +0.142 HD
ATOM     16  H   UNL     1      -1.367  -7.612   9.830  0.00  0.00    +0.142 HD
ENDBRANCH   7  14
ENDBRANCH   2   5
BRANCH   1  18
ATOM     17  C   UNL     1      -1.363  -5.443   1.507  0.00  0.00    +0.156 C 
ATOM     18  N   UNL     1      -1.348  -5.343   2.803  0.00  0.00    -0.186 NA
BRANCH  17  21
ATOM     19  C   UNL     1      -1.247  -2.103   0.003  0.00  0.00    +0.083 A 
ATOM     20  C   UNL     1      -1.264  -2.951   1.138  0.00  0.00    -0.010 A 
ATOM     21  C   UNL     1      -1.324  -4.233   0.677  0.00  0.00    +0.063 A 
ATOM     22  N   UNL     1      -1.335  -4.199  -0.698  0.00  0.00    -0.357 N 
ATOM     23  H   UNL     1      -1.377  -5.137  -1.271  0.00  0.00    +0.166 HD
ATOM     24  C   UNL     1      -1.289  -2.917  -1.111  0.00  0.00    +0.028 A 
ATOM     25  C   UNL     1      -1.286  -2.452  -2.545  0.00  0.00    +0.064 C 
ATOM     26  C   UNL     1      -1.225  -2.519   2.581  0.00  0.00    +0.047 C 
BRANCH  19  27
ATOM     27  C   UNL     1      -1.190  -0.632   0.010  0.00  0.00    +0.341 C 
ATOM     28  O   UNL     1      -2.219   0.016   0.023  0.00  0.00    -0.245 OA
BRANCH  27  29
ATOM     29  O   UNL     1       0.002  -0.004   0.002  0.00  0.00    -0.461 OA
BRANCH  29  31
ATOM     30  C   UNL     1       1.418   1.977  -0.001  0.00  0.00    +0.048 C 
ATOM     31  C   UNL     1      -0.018   1.448   0.010  0.00  0.00    +0.229 C 
ENDBRANCH  29  31
ENDBRANCH  27  29
ENDBRANCH  19  27
ENDBRANCH  17  21
ENDBRANCH   1  18
TORSDOF 7
