REMARK  Name = ZINC28823512
REMARK  8 active torsions:
REMARK  status: ('A' for Active; 'I' for Inactive)
REMARK    1  A    between atoms: C_1  and  C_2
REMARK    2  A    between atoms: C_4  and  C_38
REMARK    3  A    between atoms: C_4  and  C_39
REMARK    4  A    between atoms: C_18  and  O_22
REMARK    5  A    between atoms: C_19  and  O_20
REMARK    6  A    between atoms: O_20  and  C_21
REMARK    7  A    between atoms: C_25  and  C_26
REMARK    8  A    between atoms: C_30  and  C_32
REMARK                            x       y       z     vdW  Elec       q    Type
REMARK                         _______ _______ _______ _____ _____    ______ ____
ROOT
ATOM      1  C   UNL     1       1.688   0.713   4.931  0.00  0.00    +0.039 C 
ATOM      2  C   UNL     1       1.000   1.136   3.659  0.00  0.00    -0.072 C 
ATOM      3  C   UNL     1       0.249   0.273   3.045  0.00  0.00    -0.040 C 
ATOM      4  C   UNL     1      -0.477   0.583   1.767  0.00  0.00    -0.054 C 
ATOM      5  N   UNL     1      -0.575   2.035   1.578  0.00  0.00    +0.389 N 
ATOM      6  C   UNL     1       0.749   2.662   1.713  0.00  0.00    -0.035 C 
ATOM      7  C   UNL     1       1.214   2.534   3.160  0.00  0.00    +0.038 C 
ATOM      8  C   UNL     1       2.665   2.912   3.279  0.00  0.00    +0.009 C 
ATOM      9  C   UNL     1       3.522   2.647   2.246  0.00  0.00    -0.004 C 
ATOM     10  C   UNL     1       3.023   1.984   1.035  0.00  0.00    +0.003 C 
ATOM     11  C   UNL     1       1.717   1.989   0.778  0.00  0.00    -0.041 C 
ATOM     12  C   UNL     1       4.934   3.042   2.387  0.00  0.00    +0.070 A 
ATOM     13  C   UNL     1       5.345   3.659   3.579  0.00  0.00    +0.140 A 
ATOM     14  C   UNL     1       6.670   4.037   3.729  0.00  0.00    +0.051 A 
ATOM     15  C   UNL     1       7.580   3.807   2.713  0.00  0.00    +0.053 A 
ATOM     16  C   UNL     1       7.180   3.197   1.534  0.00  0.00    +0.159 A 
ATOM     17  C   UNL     1       5.856   2.812   1.364  0.00  0.00    +0.172 A 
ATOM     18  O   UNL     1       4.456   3.883   4.574  0.00  0.00    -0.455 OA
ATOM     19  C   UNL     1       3.159   3.536   4.443  0.00  0.00    +0.133 C 
ATOM     20  C   UNL     1       2.300   3.796   5.466  0.00  0.00    +0.054 C 
ATOM     21  C   UNL     1       0.285  -0.031   0.590  0.00  0.00    -0.006 C 
ATOM     22  C   UNL     1      -1.884  -0.014   1.826  0.00  0.00    -0.006 C 
ATOM     23  H   UNL     1      -0.972   2.248   0.575  0.00  0.00    -0.084 HD
ATOM     24  H   UNL     1      -1.250   2.458   2.337  0.00  0.00    -0.084 HD
ENDROOT
BRANCH  20  25
ATOM     25  C   UNL     1       2.816   4.280   6.753  0.00  0.00    -0.021 A 
ATOM     26  C   UNL     1       1.970   4.958   7.640  0.00  0.00    +0.008 A 
ATOM     27  C   UNL     1       2.457   5.412   8.848  0.00  0.00    +0.001 A 
ATOM     28  C   UNL     1       3.779   5.201   9.191  0.00  0.00    +0.008 A 
ATOM     29  C   UNL     1       4.633   4.528   8.318  0.00  0.00    -0.016 A 
ATOM     30  C   UNL     1       4.153   4.061   7.100  0.00  0.00    +0.016 A 
BRANCH  29  31
ATOM     31  C   UNL     1       6.052   4.304   8.691  0.00  0.00    +0.000 A 
ATOM     32  C   UNL     1       6.545   4.764   9.916  0.00  0.00    +0.011 A 
ATOM     33  C   UNL     1       7.875   4.530  10.217  0.00  0.00    +0.020 A 
ATOM     34  C   UNL     1       8.667   3.855   9.306  0.00  0.00    +0.111 A 
ATOM     35  N   UNL     1       8.174   3.434   8.158  0.00  0.00    -0.263 NA
ATOM     36  C   UNL     1       6.913   3.628   7.830  0.00  0.00    +0.119 A 
ENDBRANCH  29  31
ENDBRANCH  20  25
BRANCH  17  37
ATOM     37  O   UNL     1       5.460   2.214   0.209  0.00  0.00    -0.491 OA
ATOM     38  C   UNL     1       5.003   3.069  -0.840  0.00  0.00    +0.277 C 
ENDBRANCH  17  37
BRANCH  16  39
ATOM     39  O   UNL     1       8.085   2.976   0.542  0.00  0.00    -0.503 OA
ATOM     40  H   UNL     1       7.769   2.493  -0.394  0.00  0.00    +0.292 HD
ENDBRANCH  16  39
TORSDOF 4
