REMARK  Name = ZINC28067218
REMARK  8 active torsions:
REMARK  status: ('A' for Active; 'I' for Inactive)
REMARK    1  A    between atoms: C_1  and  C_2
REMARK    2  A    between atoms: C_2  and  C_3
REMARK    3  A    between atoms: C_2  and  C_4
REMARK    4  A    between atoms: C_7  and  C_10
REMARK    5  A    between atoms: C_13  and  C_34
REMARK    6  A    between atoms: C_20  and  C_23
REMARK    7  A    between atoms: C_23  and  C_24
REMARK    8  A    between atoms: N_26  and  C_27
REMARK                            x       y       z     vdW  Elec       q    Type
REMARK                         _______ _______ _______ _____ _____    ______ ____
ROOT
ATOM      1  C   UNL     1       4.765   0.567  -0.065  0.00  0.00    +0.136 C 
ATOM      2  C   UNL     1       3.771   1.745  -0.058  0.00  0.00    +0.087 C 
ATOM      3  C   UNL     1       2.414   1.077  -0.038  0.00  0.00    +0.069 C 
ATOM      4  N   UNL     1       2.565  -0.203  -0.043  0.00  0.00    -0.182 NA
ATOM      5  N   UNL     1       3.894  -0.620  -0.058  0.00  0.00    -0.195 N 
ATOM      6  C   UNL     1       4.319  -1.917  -0.067  0.00  0.00    +0.170 C 
ATOM      7  N   UNL     1       5.566  -2.371  -0.081  0.00  0.00    -0.157 NA
ATOM      8  C   UNL     1       5.889  -3.635  -0.088  0.00  0.00    +0.252 C 
ATOM      9  O   UNL     1       7.046  -4.010  -0.102  0.00  0.00    -0.272 OA
ATOM     10  C   UNL     1       4.717  -4.608  -0.078  0.00  0.00    +0.150 C 
ATOM     11  S   UNL     1       3.328  -3.404  -0.052  0.00  0.00    -0.078 S 
ENDROOT
BRANCH   1  15
ATOM     12  C   UNL     1       7.156   0.657  -3.603  0.00  0.00    -0.045 A 
ATOM     13  C   UNL     1       7.696   1.053  -2.394  0.00  0.00    +0.004 A 
ATOM     14  C   UNL     1       6.922   1.024  -1.249  0.00  0.00    +0.006 A 
ATOM     15  C   UNL     1       5.608   0.599  -1.313  0.00  0.00    -0.025 A 
ATOM     16  C   UNL     1       5.070   0.198  -2.522  0.00  0.00    +0.006 A 
ATOM     17  C   UNL     1       5.842   0.232  -3.667  0.00  0.00    +0.004 A 
BRANCH  12  19
ATOM     18  C   UNL     1       8.095  -0.721  -5.439  0.00  0.00    +0.012 C 
ATOM     19  C   UNL     1       7.999   0.689  -4.852  0.00  0.00    +0.013 C 
ATOM     20  C   UNL     1       7.356   1.625  -5.877  0.00  0.00    +0.012 C 
ENDBRANCH  12  19
ENDBRANCH   1  15
BRANCH   3  21
ATOM     21  C   UNL     1       1.119   1.781  -0.022  0.00  0.00    -0.002 A 
ATOM     22  C   UNL     1      -0.074   1.056  -0.011  0.00  0.00    +0.010 A 
ATOM     23  C   UNL     1      -1.282   1.721  -0.001  0.00  0.00    +0.001 A 
ATOM     24  C   UNL     1      -1.314   3.105   0.008  0.00  0.00    +0.000 A 
ATOM     25  C   UNL     1      -0.136   3.830  -0.003  0.00  0.00    +0.001 A 
ATOM     26  C   UNL     1       1.080   3.178  -0.018  0.00  0.00    +0.010 A 
ENDBRANCH   3  21
BRANCH  10  27
ATOM     27  C   UNL     1       4.695  -5.469  -1.343  0.00  0.00    +0.120 C 
BRANCH  27  28
ATOM     28  C   UNL     1       3.596  -6.495  -1.233  0.00  0.00    +0.219 C 
ATOM     29  O   UNL     1       2.900  -6.534  -0.241  0.00  0.00    -0.275 OA
ATOM     30  N   UNL     1       3.388  -7.369  -2.238  0.00  0.00    -0.283 N 
ATOM     31  H   UNL     1       3.971  -7.288  -3.167  0.00  0.00    +0.155 HD
BRANCH  30  32
ATOM     32  C   UNL     1       2.430  -8.381  -2.098  0.00  0.00    +0.069 A 
ATOM     33  C   UNL     1       1.265  -8.142  -1.383  0.00  0.00    +0.026 A 
ATOM     34  C   UNL     1       0.320  -9.141  -1.251  0.00  0.00    +0.002 A 
ATOM     35  C   UNL     1       0.537 -10.382  -1.821  0.00  0.00    +0.003 A 
ATOM     36  C   UNL     1       1.699 -10.627  -2.529  0.00  0.00    +0.040 A 
ATOM     37  C   UNL     1       2.647  -9.630  -2.670  0.00  0.00    +0.144 A 
ATOM     38  F   UNL     1       3.783  -9.869  -3.362  0.00  0.00    -0.204 F 
ENDBRANCH  30  32
ENDBRANCH  27  28
ENDBRANCH  10  27
TORSDOF 6
