REMARK  Name = ZINC02100459
REMARK  8 active torsions:
REMARK  status: ('A' for Active; 'I' for Inactive)
REMARK    1  A    between atoms: C_1  and  O_2
REMARK    2  A    between atoms: O_2  and  C_3
REMARK    3  A    between atoms: C_6  and  O_40
REMARK    4  A    between atoms: C_7  and  C_9
REMARK    5  A    between atoms: N_28  and  C_31
REMARK    6  A    between atoms: C_31  and  C_32
REMARK    7  A    between atoms: C_32  and  C_33
REMARK    8  A    between atoms: O_40  and  C_41
REMARK                            x       y       z     vdW  Elec       q    Type
REMARK                         _______ _______ _______ _____ _____    ______ ____
ROOT
ATOM      1  C   UNL     1       1.716  -0.188  -6.103  0.00  0.00    +0.158 C 
ATOM      2  C   UNL     1       2.208  -1.618  -6.102  0.00  0.00    +0.046 A 
ATOM      3  C   UNL     1       1.876  -2.519  -5.153  0.00  0.00    -0.015 A 
ATOM      4  C   UNL     1       2.532  -3.763  -5.503  0.00  0.00    +0.003 A 
ATOM      5  C   UNL     1       2.555  -5.025  -4.901  0.00  0.00    +0.010 A 
ATOM      6  C   UNL     1       3.302  -5.995  -5.521  0.00  0.00    +0.001 A 
ATOM      7  C   UNL     1       4.003  -5.749  -6.690  0.00  0.00    +0.002 A 
ATOM      8  C   UNL     1       3.998  -4.510  -7.308  0.00  0.00    +0.026 A 
ATOM      9  C   UNL     1       3.249  -3.505  -6.699  0.00  0.00    +0.047 A 
ATOM     10  N   UNL     1       3.030  -2.199  -7.031  0.00  0.00    -0.356 N 
ATOM     11  H   UNL     1       3.400  -1.750  -7.807  0.00  0.00    +0.166 HD
ATOM     12  C   UNL     1       0.988  -2.233  -3.970  0.00  0.00    +0.069 C 
ATOM     13  C   UNL     1       0.194  -0.948  -4.246  0.00  0.00    +0.167 C 
ATOM     14  N   UNL     1       1.098   0.068  -4.784  0.00  0.00    -0.276 N 
ATOM     15  C   UNL     1       1.381   1.205  -4.146  0.00  0.00    +0.234 C 
ATOM     16  O   UNL     1       2.197   1.949  -4.649  0.00  0.00    -0.274 OA
ATOM     17  C   UNL     1       0.756   1.628  -2.857  0.00  0.00    +0.203 C 
ATOM     18  N   UNL     1      -0.216   0.659  -2.377  0.00  0.00    -0.291 N 
ATOM     19  C   UNL     1      -0.478  -0.493  -2.991  0.00  0.00    +0.237 C 
ATOM     20  O   UNL     1      -1.317  -1.219  -2.501  0.00  0.00    -0.274 OA
ENDROOT
BRANCH   1  25
ATOM     21  C   UNL     1      -0.856  -0.922  -8.772  0.00  0.00    +0.121 A 
ATOM     22  C   UNL     1      -1.184   0.356  -9.200  0.00  0.00    +0.049 A 
ATOM     23  C   UNL     1      -0.575   1.455  -8.626  0.00  0.00    +0.049 A 
ATOM     24  C   UNL     1       0.366   1.280  -7.622  0.00  0.00    +0.126 A 
ATOM     25  C   UNL     1       0.694   0.002  -7.194  0.00  0.00    +0.024 A 
ATOM     26  C   UNL     1       0.088  -1.097  -7.771  0.00  0.00    +0.055 A 
BRANCH  21  28
ATOM     27  C   UNL     1      -2.415  -1.749 -10.366  0.00  0.00    +0.277 C 
ATOM     28  O   UNL     1      -1.456  -2.003  -9.337  0.00  0.00    -0.495 OA
ENDBRANCH  21  28
BRANCH  24  29
ATOM     29  O   UNL     1       0.966   2.361  -7.056  0.00  0.00    -0.495 OA
ATOM     30  C   UNL     1       0.580   3.647  -7.546  0.00  0.00    +0.277 C 
ENDBRANCH  24  29
ENDBRANCH   1  25
BRANCH  18  31
ATOM     31  C   UNL     1      -0.954   0.972  -1.151  0.00  0.00    +0.113 C 
BRANCH  31  32
ATOM     32  C   UNL     1      -0.187   0.431   0.057  0.00  0.00    +0.057 C 
BRANCH  32  33
ATOM     33  C   UNL     1      -0.946   0.752   1.319  0.00  0.00    -0.011 A 
ATOM     34  C   UNL     1      -0.630   1.883   2.047  0.00  0.00    +0.006 A 
ATOM     35  C   UNL     1      -1.329   2.181   3.201  0.00  0.00    +0.000 A 
ATOM     36  C   UNL     1      -2.340   1.342   3.635  0.00  0.00    +0.003 A 
ATOM     37  C   UNL     1      -2.654   0.207   2.911  0.00  0.00    +0.038 A 
ATOM     38  C   UNL     1      -1.957  -0.089   1.752  0.00  0.00    +0.127 A 
ATOM     39  F   UNL     1      -2.264  -1.198   1.044  0.00  0.00    -0.205 F 
ENDBRANCH  32  33
ENDBRANCH  31  32
ENDBRANCH  18  31
TORSDOF 6
