REMARK  Name = ZINC42404932
REMARK  4 active torsions:
REMARK  status: ('A' for Active; 'I' for Inactive)
REMARK    1  A    between atoms: C_1  and  C_2
REMARK    2  A    between atoms: C_6  and  C_21
REMARK    3  A    between atoms: C_8  and  N_11
REMARK    4  A    between atoms: C_16  and  C_18
REMARK                            x       y       z     vdW  Elec       q    Type
REMARK                         _______ _______ _______ _____ _____    ______ ____
ROOT
ATOM      1  N   UNL     1       2.759   0.053   2.241  0.00  0.00    +0.390 N 
ATOM      2  C   UNL     1       4.167   0.468   2.193  0.00  0.00    -0.077 C 
ATOM      3  C   UNL     1       5.020  -0.517   2.994  0.00  0.00    -0.019 C 
ATOM      4  C   UNL     1       4.540  -0.535   4.449  0.00  0.00    -0.003 C 
ATOM      5  C   UNL     1       3.052  -0.896   4.481  0.00  0.00    -0.006 C 
ATOM      6  C   UNL     1       2.272   0.103   3.624  0.00  0.00    +0.019 C 
ATOM      7  H   UNL     1       2.676  -0.889   1.890  0.00  0.00    -0.080 HD
ENDROOT
BRANCH   1  13
ATOM      8  C   UNL     1      -0.162   1.396  -0.570  0.00  0.00    +0.007 C 
ATOM      9  C   UNL     1       1.317   1.544  -0.936  0.00  0.00    -0.015 C 
ATOM     10  C   UNL     1       1.760   2.988  -0.696  0.00  0.00    +0.004 C 
ATOM     11  C   UNL     1       1.562   3.343   0.779  0.00  0.00    +0.017 C 
ATOM     12  C   UNL     1       2.399   2.402   1.648  0.00  0.00    +0.078 C 
ATOM     13  C   UNL     1       1.956   0.957   1.407  0.00  0.00    -0.050 C 
ATOM     14  C   UNL     1       2.154   0.602  -0.068  0.00  0.00    -0.011 C 
BRANCH  12  15
ATOM     15  C   UNL     1       2.208   2.744   3.067  0.00  0.00    +0.064 C 
ATOM     16  N   UNL     1       2.061   3.008   4.162  0.00  0.00    -0.196 NA
ENDBRANCH  12  15
ENDBRANCH   1  13
BRANCH   6  17
ATOM     17  C   UNL     1       0.806  -0.248   3.653  0.00  0.00    +0.197 C 
ATOM     18  O   UNL     1       0.343  -0.984   2.808  0.00  0.00    -0.278 OA
ATOM     19  N   UNL     1       0.011   0.255   4.617  0.00  0.00    -0.331 N 
ATOM     20  H   UNL     1       0.382   0.844   5.293  0.00  0.00    +0.145 HD
ATOM     21  H   UNL     1      -0.932   0.029   4.636  0.00  0.00    +0.145 HD
ENDBRANCH   6  17
TORSDOF 3
