REMARK  Name = ZINC09543072
REMARK  10 active torsions:
REMARK  status: ('A' for Active; 'I' for Inactive)
REMARK    1  A    between atoms: C_1  and  C_2
REMARK    2  A    between atoms: C_5  and  C_31
REMARK    3  A    between atoms: C_6  and  C_8
REMARK    4  A    between atoms: C_10  and  C_21
REMARK    5  A    between atoms: C_12  and  N_20
REMARK    6  A    between atoms: C_13  and  C_17
REMARK    7  A    between atoms: C_24  and  O_29
REMARK    8  A    between atoms: C_25  and  O_27
REMARK    9  A    between atoms: O_27  and  C_28
REMARK   10  A    between atoms: O_29  and  C_30
REMARK                            x       y       z     vdW  Elec       q    Type
REMARK                         _______ _______ _______ _____ _____    ______ ____
ROOT
ATOM      1  C   UNL     1      -2.065   7.348   0.408  0.00  0.00    +0.073 A 
ATOM      2  C   UNL     1      -3.314   6.786   0.669  0.00  0.00    +0.037 A 
ATOM      3  C   UNL     1      -3.459   5.410   0.728  0.00  0.00    -0.004 A 
ATOM      4  C   UNL     1      -2.311   4.585   0.517  0.00  0.00    +0.037 A 
ATOM      5  C   UNL     1      -2.224   3.136   0.525  0.00  0.00    +0.054 A 
ATOM      6  C   UNL     1      -0.996   2.552   0.298  0.00  0.00    +0.097 A 
ATOM      7  S   UNL     1       0.085   3.948   0.052  0.00  0.00    -0.062 S 
ATOM      8  C   UNL     1      -1.095   5.259   0.259  0.00  0.00    +0.112 A 
ATOM      9  N   UNL     1      -1.006   6.570   0.214  0.00  0.00    -0.239 NA
ENDROOT
BRANCH   1  15
ATOM     10  C   UNL     1      -4.116  11.900   0.432  0.00  0.00    +0.044 C 
ATOM     11  C   UNL     1      -2.900  11.012   0.358  0.00  0.00    -0.050 A 
ATOM     12  C   UNL     1      -1.642  11.575   0.232  0.00  0.00    +0.003 A 
ATOM     13  C   UNL     1      -0.521  10.767   0.163  0.00  0.00    +0.004 A 
ATOM     14  C   UNL     1      -0.652   9.394   0.220  0.00  0.00    -0.041 A 
ATOM     15  C   UNL     1      -1.917   8.822   0.347  0.00  0.00    +0.004 A 
ATOM     16  C   UNL     1      -3.044   9.641   0.411  0.00  0.00    +0.013 A 
ATOM     17  C   UNL     1       0.570   8.515   0.145  0.00  0.00    +0.044 C 
ENDBRANCH   1  15
BRANCH   3  18
ATOM     18  C   UNL     1      -4.781   4.803   1.006  0.00  0.00    -0.013 A 
ATOM     19  C   UNL     1      -5.360   3.936   0.079  0.00  0.00    +0.012 A 
ATOM     20  C   UNL     1      -6.589   3.367   0.341  0.00  0.00    +0.050 A 
ATOM     21  C   UNL     1      -7.257   3.663   1.520  0.00  0.00    +0.162 A 
ATOM     22  C   UNL     1      -6.686   4.532   2.447  0.00  0.00    +0.162 A 
ATOM     23  C   UNL     1      -5.451   5.101   2.192  0.00  0.00    +0.058 A 
BRANCH  22  24
ATOM     24  O   UNL     1      -7.342   4.821   3.603  0.00  0.00    -0.491 OA
ATOM     25  C   UNL     1      -6.697   5.720   4.508  0.00  0.00    +0.277 C 
ENDBRANCH  22  24
BRANCH  21  26
ATOM     26  O   UNL     1      -8.470   3.105   1.772  0.00  0.00    -0.491 OA
ATOM     27  C   UNL     1      -8.997   2.223   0.778  0.00  0.00    +0.277 C 
ENDBRANCH  21  26
ENDBRANCH   3  18
BRANCH   6  28
ATOM     28  C   UNL     1      -0.672   1.173   0.263  0.00  0.00    +0.250 C 
ATOM     29  O   UNL     1      -1.538   0.339   0.453  0.00  0.00    -0.270 OA
ATOM     30  N   UNL     1       0.595   0.785   0.018  0.00  0.00    -0.325 N 
ATOM     31  H   UNL     1       0.817  -0.159  -0.007  0.00  0.00    +0.145 HD
ATOM     32  H   UNL     1       1.285   1.449  -0.138  0.00  0.00    +0.145 HD
ENDBRANCH   6  28
BRANCH   5  33
ATOM     33  N   UNL     1      -3.350   2.358   0.761  0.00  0.00    -0.356 N 
ATOM     34  H   UNL     1      -4.098   2.725   1.258  0.00  0.00    +0.142 HD
ATOM     35  H   UNL     1      -3.388   1.448   0.428  0.00  0.00    +0.142 HD
ENDBRANCH   5  33
TORSDOF 6
