REMARK  Name = ZINC04357869
REMARK  17 active torsions:
REMARK  status: ('A' for Active; 'I' for Inactive)
REMARK    1  A    between atoms: C_1  and  C_2
REMARK    2  A    between atoms: C_7  and  C_8
REMARK    3  A    between atoms: C_8  and  N_9
REMARK    4  A    between atoms: C_13  and  C_14
REMARK    5  A    between atoms: C_14  and  N_70
REMARK    6  A    between atoms: C_15  and  C_16
REMARK    7  A    between atoms: C_15  and  N_70
REMARK    8  A    between atoms: C_16  and  C_17
REMARK    9  A    between atoms: C_17  and  C_18
REMARK   10  A    between atoms: C_17  and  C_19
REMARK   11  A    between atoms: C_20  and  C_21
REMARK   12  A    between atoms: C_20  and  N_70
REMARK   13  A    between atoms: C_21  and  C_23
REMARK   14  A    between atoms: C_21  and  O_32
REMARK   15  A    between atoms: C_23  and  O_24
REMARK   16  A    between atoms: O_24  and  C_25
REMARK   17  A    between atoms: C_30  and  C_31
REMARK                            x       y       z     vdW  Elec       q    Type
REMARK                         _______ _______ _______ _____ _____    ______ ____
ROOT
ATOM      1  N   UNL     1       1.162   2.476   0.515  0.00  0.00    +0.385 N 
ATOM      2  H   UNL     1       1.685   2.083  -0.277  0.00  0.00    -0.081 HD
ENDROOT
BRANCH   1   3
ATOM      3  C   UNL     1      -0.285   2.342   0.248  0.00  0.00    -0.024 C 
BRANCH   3   8
ATOM      4  N   UNL     1      -0.437   1.881  -2.263  0.00  0.00    -0.348 N 
ATOM      5  C   UNL     1      -0.755   2.576  -3.391  0.00  0.00    +0.086 A 
ATOM      6  C   UNL     1      -1.065   3.839  -3.035  0.00  0.00    +0.019 A 
ATOM      7  C   UNL     1      -0.939   3.925  -1.634  0.00  0.00    +0.021 A 
ATOM      8  C   UNL     1      -0.548   2.714  -1.189  0.00  0.00    +0.003 A 
BRANCH   4   9
ATOM      9  C   UNL     1      -0.041   0.471  -2.212  0.00  0.00    +0.156 C 
BRANCH   9  16
ATOM     10  C   UNL     1      -1.611  -0.446  -4.458  0.00  0.00    +0.044 C 
ATOM     11  C   UNL     1      -2.011  -0.823  -3.055  0.00  0.00    -0.046 A 
ATOM     12  C   UNL     1      -3.126  -1.612  -2.843  0.00  0.00    +0.004 A 
ATOM     13  C   UNL     1      -3.496  -1.954  -1.556  0.00  0.00    +0.000 A 
ATOM     14  C   UNL     1      -2.748  -1.511  -0.481  0.00  0.00    +0.000 A 
ATOM     15  C   UNL     1      -1.630  -0.726  -0.693  0.00  0.00    +0.005 A 
ATOM     16  C   UNL     1      -1.260  -0.385  -1.981  0.00  0.00    -0.025 A 
ENDBRANCH   9  16
ENDBRANCH   4   9
ENDBRANCH   3   8
ENDBRANCH   1   3
BRANCH   1  17
ATOM     17  C   UNL     1       1.520   1.732   1.741  0.00  0.00    -0.078 C 
BRANCH  17  18
ATOM     18  C   UNL     1       1.599   0.242   1.406  0.00  0.00    -0.016 C 
BRANCH  18  19
ATOM     19  C   UNL     1       1.883  -0.554   2.681  0.00  0.00    -0.019 C 
ATOM     20  C   UNL     1       0.700  -0.417   3.642  0.00  0.00    +0.007 C 
ATOM     21  C   UNL     1       2.085  -2.029   2.328  0.00  0.00    +0.007 C 
ENDBRANCH  18  19
ENDBRANCH  17  18
ENDBRANCH   1  17
BRANCH   1  22
ATOM     22  C   UNL     1       1.519   3.902   0.666  0.00  0.00    -0.043 C 
BRANCH  22  23
ATOM     23  C   UNL     1       3.039   4.042   0.562  0.00  0.00    +0.135 C 
BRANCH  23  24
ATOM     24  O   UNL     1       3.465   3.652  -0.745  0.00  0.00    -0.390 OA
ATOM     25  H   UNL     1       3.141   4.226  -1.452  0.00  0.00    +0.210 HD
ENDBRANCH  23  24
BRANCH  23  26
ATOM     26  C   UNL     1       3.435   5.498   0.814  0.00  0.00    +0.258 C 
BRANCH  26  27
ATOM     27  O   UNL     1       4.860   5.608   0.833  0.00  0.00    -0.489 OA
BRANCH  27  28
ATOM     28  C   UNL     1       5.381   6.844   1.047  0.00  0.00    +0.124 A 
ATOM     29  C   UNL     1       4.538   7.931   1.229  0.00  0.00    +0.046 A 
ATOM     30  C   UNL     1       5.071   9.186   1.452  0.00  0.00    +0.004 A 
ATOM     31  C   UNL     1       6.442   9.362   1.482  0.00  0.00    +0.000 A 
ATOM     32  C   UNL     1       7.284   8.281   1.295  0.00  0.00    +0.007 A 
ATOM     33  C   UNL     1       6.756   7.023   1.077  0.00  0.00    -0.009 A 
ATOM     34  C   UNL     1       7.675   5.846   0.872  0.00  0.00    +0.047 C 
ENDBRANCH  27  28
ENDBRANCH  26  27
ENDBRANCH  23  26
ENDBRANCH  22  23
ENDBRANCH   1  22
TORSDOF 13
