REMARK  Name = ZINC14994115
REMARK  6 active torsions:
REMARK  status: ('A' for Active; 'I' for Inactive)
REMARK    1  A    between atoms: C_4  and  C_7
REMARK    2  A    between atoms: C_7  and  N_65
REMARK    3  A    between atoms: C_10  and  C_13
REMARK    4  A    between atoms: C_13  and  C_25
REMARK    5  A    between atoms: N_16  and  C_20
REMARK    6  A    between atoms: C_25  and  C_26
REMARK                            x       y       z     vdW  Elec       q    Type
REMARK                         _______ _______ _______ _____ _____    ______ ____
ROOT
ATOM      1  C   UNL     1       4.196  -0.767  -5.160  0.00  0.00    +0.119 C 
ATOM      2  C   UNL     1       5.657  -1.147  -5.301  0.00  0.00    +0.247 C 
ATOM      3  O   UNL     1       6.183  -2.179  -4.941  0.00  0.00    -0.273 OA
ATOM      4  N   UNL     1       6.249  -0.100  -5.908  0.00  0.00    -0.221 N 
ATOM      5  C   UNL     1       5.374   0.879  -6.167  0.00  0.00    +0.310 C 
ATOM      6  O   UNL     1       5.672   1.925  -6.710  0.00  0.00    -0.252 OA
ATOM      7  N   UNL     1       4.128   0.576  -5.760  0.00  0.00    -0.284 N 
ATOM      8  H   UNL     1       3.339   1.134  -5.845  0.00  0.00    +0.151 HD
ENDROOT
BRANCH   1  11
ATOM      9  C   UNL     1       1.978  -0.099  -2.085  0.00  0.00    -0.078 C 
ATOM     10  C   UNL     1       2.355  -0.203  -3.565  0.00  0.00    -0.013 C 
ATOM     11  C   UNL     1       3.792  -0.719  -3.685  0.00  0.00    +0.018 C 
ATOM     12  C   UNL     1       4.730   0.225  -2.928  0.00  0.00    -0.013 C 
ATOM     13  C   UNL     1       4.284   0.317  -1.467  0.00  0.00    -0.078 C 
ATOM     14  N   UNL     1       2.903   0.842  -1.419  0.00  0.00    +0.382 N 
ATOM     15  H   UNL     1       2.873   1.743  -1.911  0.00  0.00    -0.081 HD
BRANCH  14  16
ATOM     16  C   UNL     1       2.490   1.048  -0.016  0.00  0.00    -0.043 C 
BRANCH  16  20
ATOM     17  C   UNL     1      -1.238   3.133   0.029  0.00  0.00    +0.000 A 
ATOM     18  C   UNL     1      -1.219   1.751   0.017  0.00  0.00    +0.000 A 
ATOM     19  C   UNL     1      -0.013   1.076   0.008  0.00  0.00    +0.002 A 
ATOM     20  C   UNL     1       1.175   1.783   0.000  0.00  0.00    -0.064 A 
ATOM     21  C   UNL     1       1.156   3.165   0.008  0.00  0.00    +0.002 A 
ATOM     22  C   UNL     1      -0.050   3.840   0.022  0.00  0.00    +0.000 A 
ENDBRANCH  16  20
ENDBRANCH  14  16
ENDBRANCH   1  11
BRANCH   4  23
ATOM     23  C   UNL     1       7.674  -0.040  -6.241  0.00  0.00    +0.086 C 
ATOM     24  C   UNL     1       8.324   1.185  -5.566  0.00  0.00    +0.023 C 
ATOM     25  C   UNL     1       9.348   1.696  -6.610  0.00  0.00    +0.002 C 
ATOM     26  C   UNL     1       8.605   1.480  -7.952  0.00  0.00    +0.002 C 
ATOM     27  C   UNL     1       7.853   0.147  -7.758  0.00  0.00    +0.023 C 
ENDBRANCH   4  23
BRANCH   1  28
ATOM     28  C   UNL     1       3.305  -1.746  -5.929  0.00  0.00    +0.070 C 
BRANCH  28  29
ATOM     29  C   UNL     1       3.723  -1.775  -7.376  0.00  0.00    -0.045 A 
ATOM     30  C   UNL     1       3.143  -0.904  -8.280  0.00  0.00    +0.006 A 
ATOM     31  C   UNL     1       3.530  -0.926  -9.607  0.00  0.00    +0.038 A 
ATOM     32  C   UNL     1       4.490  -1.828 -10.033  0.00  0.00    +0.123 A 
ATOM     33  C   UNL     1       5.067  -2.703  -9.128  0.00  0.00    +0.038 A 
ATOM     34  C   UNL     1       4.683  -2.675  -7.800  0.00  0.00    +0.006 A 
ATOM     35  F   UNL     1       4.864  -1.854 -11.331  0.00  0.00    -0.205 F 
ENDBRANCH  28  29
ENDBRANCH   1  28
TORSDOF 6
