REMARK  Name = ZINC35705929
REMARK  12 active torsions:
REMARK  status: ('A' for Active; 'I' for Inactive)
REMARK    1  A    between atoms: C_1  and  C_2
REMARK    2  A    between atoms: C_2  and  O_3
REMARK    3  A    between atoms: O_3  and  C_4
REMARK    4  A    between atoms: C_4  and  C_6
REMARK    5  A    between atoms: C_13  and  C_15
REMARK    6  A    between atoms: C_18  and  C_20
REMARK    7  A    between atoms: C_20  and  N_21
REMARK    8  A    between atoms: N_21  and  C_22
REMARK    9  A    between atoms: N_21  and  C_30
REMARK   10  A    between atoms: C_22  and  C_23
REMARK   11  A    between atoms: C_26  and  C_29
REMARK   12  A    between atoms: C_30  and  C_31
REMARK                            x       y       z     vdW  Elec       q    Type
REMARK                         _______ _______ _______ _____ _____    ______ ____
ROOT
ATOM      1  C   UNL     1       2.251  -6.118  -8.925  0.00  0.00    +0.020 C 
ENDROOT
BRANCH   1   5
ATOM      2  C   UNL     1       0.341  -3.273  -7.751  0.00  0.00    +0.164 A 
ATOM      3  C   UNL     1       1.473  -2.649  -8.174  0.00  0.00    +0.230 A 
ATOM      4  O   UNL     1       2.292  -3.602  -8.646  0.00  0.00    -0.449 OA
ATOM      5  C   UNL     1       1.677  -4.786  -8.515  0.00  0.00    +0.179 A 
ATOM      6  N   UNL     1       0.509  -4.604  -7.976  0.00  0.00    -0.210 NA
BRANCH   2  13
ATOM      7  C   UNL     1      -3.128  -3.408  -4.578  0.00  0.00    +0.115 C 
ATOM      8  C   UNL     1      -3.248  -4.925  -4.742  0.00  0.00    +0.018 C 
ATOM      9  C   UNL     1      -1.977  -5.471  -5.395  0.00  0.00    +0.020 C 
ATOM     10  C   UNL     1      -1.811  -4.846  -6.784  0.00  0.00    +0.108 C 
ATOM     11  N   UNL     1      -1.840  -3.383  -6.650  0.00  0.00    -0.295 N 
ATOM     12  C   UNL     1      -2.975  -2.759  -5.957  0.00  0.00    +0.122 C 
ATOM     13  C   UNL     1      -0.844  -2.628  -7.154  0.00  0.00    +0.268 C 
ATOM     14  O   UNL     1      -0.921  -1.415  -7.117  0.00  0.00    -0.268 OA
BRANCH   7  15
ATOM     15  C   UNL     1      -4.367  -2.874  -3.906  0.00  0.00    +0.312 C 
ATOM     16  O   UNL     1      -5.255  -3.630  -3.589  0.00  0.00    -0.250 OA
BRANCH  15  17
ATOM     17  O   UNL     1      -4.484  -1.560  -3.659  0.00  0.00    -0.465 OA
BRANCH  17  19
ATOM     18  C   UNL     1      -5.636   0.392  -2.822  0.00  0.00    +0.048 C 
ATOM     19  C   UNL     1      -5.685  -1.125  -3.019  0.00  0.00    +0.229 C 
ENDBRANCH  17  19
ENDBRANCH  15  17
ENDBRANCH   7  15
ENDBRANCH   2  13
ENDBRANCH   1   5
BRANCH   1  20
ATOM     20  N   UNL     1       1.884  -6.402 -10.319  0.00  0.00    +0.391 N 
ATOM     21  H   UNL     1       0.881  -6.347 -10.420  0.00  0.00    -0.080 HD
BRANCH  20  22
ATOM     22  C   UNL     1       2.340  -7.750 -10.680  0.00  0.00    -0.042 C 
BRANCH  22  23
ATOM     23  C   UNL     1       1.591  -8.770  -9.863  0.00  0.00    -0.064 A 
ATOM     24  C   UNL     1       2.146  -9.266  -8.698  0.00  0.00    +0.002 A 
ATOM     25  C   UNL     1       1.459 -10.202  -7.948  0.00  0.00    +0.003 A 
ATOM     26  C   UNL     1       0.215 -10.642  -8.362  0.00  0.00    -0.050 A 
ATOM     27  C   UNL     1      -0.341 -10.145  -9.527  0.00  0.00    +0.003 A 
ATOM     28  C   UNL     1       0.345  -9.206 -10.274  0.00  0.00    +0.002 A 
ATOM     29  C   UNL     1      -0.534 -11.662  -7.545  0.00  0.00    +0.044 C 
ENDBRANCH  22  23
ENDBRANCH  20  22
BRANCH  20  30
ATOM     30  C   UNL     1       2.519  -5.416 -11.203  0.00  0.00    -0.042 C 
BRANCH  30  31
ATOM     31  C   UNL     1       2.027  -5.614 -12.613  0.00  0.00    -0.064 A 
ATOM     32  C   UNL     1       2.763  -6.377 -13.501  0.00  0.00    +0.004 A 
ATOM     33  C   UNL     1       2.311  -6.560 -14.794  0.00  0.00    +0.038 A 
ATOM     34  C   UNL     1       1.122  -5.979 -15.201  0.00  0.00    +0.123 A 
ATOM     35  C   UNL     1       0.386  -5.216 -14.311  0.00  0.00    +0.038 A 
ATOM     36  C   UNL     1       0.836  -5.038 -13.016  0.00  0.00    +0.004 A 
ATOM     37  F   UNL     1       0.680  -6.157 -16.465  0.00  0.00    -0.205 F 
ENDBRANCH  30  31
ENDBRANCH  20  30
ENDBRANCH   1  20
TORSDOF 10
