REMARK  Name = ZINC12098832
REMARK  8 active torsions:
REMARK  status: ('A' for Active; 'I' for Inactive)
REMARK    1  A    between atoms: C_4  and  C_7
REMARK    2  A    between atoms: C_7  and  C_8
REMARK    3  A    between atoms: C_8  and  C_9
REMARK    4  A    between atoms: C_9  and  C_10
REMARK    5  A    between atoms: C_10  and  C_17
REMARK    6  A    between atoms: C_22  and  C_23
REMARK    7  A    between atoms: C_22  and  N_64
REMARK    8  A    between atoms: C_25  and  C_28
REMARK                            x       y       z     vdW  Elec       q    Type
REMARK                         _______ _______ _______ _____ _____    ______ ____
ROOT
ATOM      1  C   UNL     1      -0.697   1.991   1.278  0.00  0.00    +0.018 C 
ATOM      2  C   UNL     1      -0.798   3.518   1.213  0.00  0.00    -0.013 C 
ATOM      3  C   UNL     1      -1.421   4.039   2.510  0.00  0.00    -0.078 C 
ATOM      4  C   UNL     1      -0.521   2.169   3.762  0.00  0.00    -0.078 C 
ATOM      5  C   UNL     1       0.130   1.592   2.503  0.00  0.00    -0.013 C 
ATOM      6  N   UNL     1      -0.564   3.642   3.648  0.00  0.00    +0.384 N 
ATOM      7  H   UNL     1       0.388   3.992   3.486  0.00  0.00    -0.081 HD
ENDROOT
BRANCH   1   8
ATOM      8  C   UNL     1      -0.018   1.469   0.010  0.00  0.00    +0.115 C 
ATOM      9  C   UNL     1       1.450   1.845  -0.002  0.00  0.00    +0.244 C 
ATOM     10  O   UNL     1       1.920   2.963  -0.001  0.00  0.00    -0.273 OA
ATOM     11  N   UNL     1       2.125   0.679  -0.015  0.00  0.00    -0.238 N 
ATOM     12  C   UNL     1       1.296  -0.371  -0.012  0.00  0.00    +0.307 C 
ATOM     13  O   UNL     1       1.670  -1.528  -0.022  0.00  0.00    -0.252 OA
ATOM     14  N   UNL     1       0.002  -0.004   0.002  0.00  0.00    -0.285 N 
ATOM     15  H   UNL     1       3.093   0.609  -0.024  0.00  0.00    +0.159 HD
ATOM     16  H   UNL     1      -0.768  -0.594   0.006  0.00  0.00    +0.151 HD
BRANCH   8  17
ATOM     17  C   UNL     1      -0.721   2.005  -1.239  0.00  0.00    +0.036 C 
BRANCH  17  18
ATOM     18  C   UNL     1      -0.065   1.412  -2.487  0.00  0.00    +0.007 C 
BRANCH  18  19
ATOM     19  C   UNL     1      -0.768   1.947  -3.736  0.00  0.00    +0.035 C 
BRANCH  19  23
ATOM     20  C   UNL     1       1.063   0.293  -7.223  0.00  0.00    +0.000 A 
ATOM     21  C   UNL     1       0.003  -0.361  -6.622  0.00  0.00    +0.000 A 
ATOM     22  C   UNL     1      -0.590   0.175  -5.495  0.00  0.00    +0.003 A 
ATOM     23  C   UNL     1      -0.122   1.363  -4.966  0.00  0.00    -0.047 A 
ATOM     24  C   UNL     1       0.935   2.019  -5.569  0.00  0.00    +0.003 A 
ATOM     25  C   UNL     1       1.531   1.481  -6.694  0.00  0.00    +0.000 A 
ENDBRANCH  19  23
ENDBRANCH  18  19
ENDBRANCH  17  18
ENDBRANCH   8  17
ENDBRANCH   1   8
BRANCH   6  26
ATOM     26  C   UNL     1      -1.085   4.230   4.900  0.00  0.00    -0.015 C 
BRANCH  26  27
ATOM     27  C   UNL     1      -0.914   5.726   4.841  0.00  0.00    +0.062 A 
ATOM     28  N   UNL     1      -1.750   6.631   4.393  0.00  0.00    -0.246 NA
ATOM     29  C   UNL     1      -1.449   7.920   4.413  0.00  0.00    +0.078 A 
ATOM     30  C   UNL     1      -0.227   8.285   4.909  0.00  0.00    +0.075 A 
ATOM     31  S   UNL     1       0.443   6.686   5.342  0.00  0.00    -0.082 S 
BRANCH  29  32
ATOM     32  C   UNL     1      -2.405   8.937   3.909  0.00  0.00    +0.001 A 
ATOM     33  C   UNL     1      -3.681   8.554   3.499  0.00  0.00    +0.010 A 
ATOM     34  C   UNL     1      -4.568   9.505   3.036  0.00  0.00    +0.001 A 
ATOM     35  C   UNL     1      -4.188  10.833   2.967  0.00  0.00    +0.000 A 
ATOM     36  C   UNL     1      -2.921  11.218   3.368  0.00  0.00    +0.001 A 
ATOM     37  C   UNL     1      -2.028  10.277   3.838  0.00  0.00    +0.010 A 
ENDBRANCH  29  32
ENDBRANCH  26  27
ENDBRANCH   6  26
TORSDOF 8
