REMARK  Name = ZINC12928325
REMARK  5 active torsions:
REMARK  status: ('A' for Active; 'I' for Inactive)
REMARK    1  A    between atoms: C_3  and  N_11
REMARK    2  A    between atoms: C_6  and  N_7
REMARK    3  A    between atoms: C_12  and  C_14
REMARK    4  A    between atoms: C_14  and  N_56
REMARK    5  A    between atoms: C_17  and  C_20
REMARK                            x       y       z     vdW  Elec       q    Type
REMARK                         _______ _______ _______ _____ _____    ______ ____
ROOT
ATOM      1  C   UNL     1      -4.639   0.184   1.079  0.00  0.00    -0.077 C 
ATOM      2  C   UNL     1      -5.719  -0.891   0.948  0.00  0.00    -0.006 C 
ATOM      3  C   UNL     1      -7.088  -0.271   1.240  0.00  0.00    +0.072 C 
ATOM      4  C   UNL     1      -7.330   0.891   0.274  0.00  0.00    -0.006 C 
ATOM      5  C   UNL     1      -6.203   1.916   0.424  0.00  0.00    -0.077 C 
ATOM      6  N   UNL     1      -4.915   1.262   0.106  0.00  0.00    +0.385 N 
ATOM      7  H   UNL     1      -4.972   0.855  -0.835  0.00  0.00    -0.081 HD
ENDROOT
BRANCH   3   8
ATOM      8  C   UNL     1      -8.162  -1.312   1.055  0.00  0.00    +0.219 C 
ATOM      9  O   UNL     1      -8.967  -1.199   0.154  0.00  0.00    -0.275 OA
ATOM     10  N   UNL     1      -8.229  -2.368   1.889  0.00  0.00    -0.301 N 
ATOM     11  C   UNL     1      -9.198  -3.406   1.618  0.00  0.00    +0.108 C 
ATOM     12  C   UNL     1     -10.536  -3.071   2.310  0.00  0.00    +0.019 C 
ATOM     13  C   UNL     1     -10.410  -3.231   3.767  0.00  0.00    +0.002 C 
ATOM     14  C   UNL     1      -9.400  -2.290   4.418  0.00  0.00    +0.002 C 
ATOM     15  C   UNL     1      -8.022  -2.897   4.327  0.00  0.00    +0.019 C 
ATOM     16  C   UNL     1      -7.315  -2.413   3.047  0.00  0.00    +0.108 C 
ENDBRANCH   3   8
BRANCH   6  17
ATOM     17  C   UNL     1      -3.824   2.258   0.133  0.00  0.00    +0.019 C 
BRANCH  17  19
ATOM     18  N   UNL     1      -3.062   4.136  -1.286  0.00  0.00    -0.286 N 
ATOM     19  C   UNL     1      -3.993   3.194  -1.036  0.00  0.00    +0.201 C 
ATOM     20  O   UNL     1      -4.967   3.100  -1.753  0.00  0.00    -0.278 OA
ATOM     21  H   UNL     1      -2.246   4.162  -0.762  0.00  0.00    +0.155 HD
BRANCH  18  24
ATOM     22  C   UNL     1      -4.769   6.323  -3.700  0.00  0.00    +0.034 A 
ATOM     23  C   UNL     1      -4.564   5.389  -2.702  0.00  0.00    +0.026 A 
ATOM     24  C   UNL     1      -3.273   5.077  -2.300  0.00  0.00    +0.048 A 
ATOM     25  C   UNL     1      -2.190   5.705  -2.904  0.00  0.00    +0.041 A 
ATOM     26  C   UNL     1      -2.402   6.638  -3.901  0.00  0.00    +0.049 A 
ATOM     27  C   UNL     1      -3.690   6.946  -4.299  0.00  0.00    +0.127 A 
ATOM     28 BR   UNL     1      -0.428   5.284  -2.360  0.00  0.00    -0.048 Br
BRANCH  27  29
ATOM     29  N   UNL     1      -3.914   7.945  -5.367  0.00  0.00    +0.056 N 
ATOM     30  O   UNL     1      -5.048   8.218  -5.719  0.00  0.00    -0.126 OA
ATOM     31  O   UNL     1      -2.964   8.495  -5.896  0.00  0.00    -0.126 OA
ENDBRANCH  27  29
ENDBRANCH  18  24
ENDBRANCH  17  19
ENDBRANCH   6  17
TORSDOF 5
