REMARK  Name = ZINC66668803
REMARK  5 active torsions:
REMARK  status: ('A' for Active; 'I' for Inactive)
REMARK    1  A    between atoms: C_1  and  C_2
REMARK    2  A    between atoms: C_7  and  N_10
REMARK    3  A    between atoms: C_11  and  C_13
REMARK    4  A    between atoms: C_13  and  N_14
REMARK    5  A    between atoms: N_22  and  C_23
REMARK                            x       y       z     vdW  Elec       q    Type
REMARK                         _______ _______ _______ _____ _____    ______ ____
ROOT
ATOM      1  N   UNL     1      -2.582  -5.538   2.171  0.00  0.00    -0.291 NA
ATOM      2  C   UNL     1      -2.015  -6.407   1.131  0.00  0.00    +0.104 C 
ATOM      3  C   UNL     1      -1.715  -7.785   1.729  0.00  0.00    +0.124 C 
ATOM      4  N   UNL     1      -2.939  -8.295   2.365  0.00  0.00    -0.283 N 
ATOM      5  C   UNL     1      -3.642  -7.424   3.319  0.00  0.00    +0.124 C 
ATOM      6  C   UNL     1      -3.866  -6.060   2.658  0.00  0.00    +0.104 C 
ATOM      7  C   UNL     1      -3.405  -9.528   2.081  0.00  0.00    +0.307 C 
ATOM      8  O   UNL     1      -2.865 -10.199   1.223  0.00  0.00    -0.252 OA
ATOM      9  N   UNL     1      -4.468 -10.017   2.749  0.00  0.00    -0.267 N 
ATOM     10  H   UNL     1      -4.939  -9.459   3.387  0.00  0.00    +0.156 HD
ENDROOT
BRANCH   9  11
ATOM     11  C   UNL     1      -4.893 -11.332   2.522  0.00  0.00    +0.073 A 
ATOM     12  C   UNL     1      -4.040 -12.245   1.916  0.00  0.00    +0.026 A 
ATOM     13  C   UNL     1      -4.460 -13.541   1.693  0.00  0.00    +0.005 A 
ATOM     14  C   UNL     1      -5.731 -13.933   2.071  0.00  0.00    +0.041 A 
ATOM     15  C   UNL     1      -6.587 -13.028   2.675  0.00  0.00    +0.160 A 
ATOM     16  C   UNL     1      -6.168 -11.728   2.908  0.00  0.00    +0.179 A 
ATOM     17  F   UNL     1      -7.000 -10.845   3.502  0.00  0.00    -0.201 F 
ATOM     18  F   UNL     1      -7.829 -13.414   3.043  0.00  0.00    -0.202 F 
ENDBRANCH   9  11
BRANCH   1  19
ATOM     19  C   UNL     1      -2.724  -4.159   1.686  0.00  0.00    +0.180 C 
BRANCH  19  21
ATOM     20  N   UNL     1      -1.242  -2.312   0.972  0.00  0.00    -0.311 N 
ATOM     21  C   UNL     1      -1.359  -3.575   1.426  0.00  0.00    +0.227 C 
ATOM     22  O   UNL     1      -0.366  -4.242   1.625  0.00  0.00    -0.274 OA
ATOM     23  H   UNL     1      -2.036  -1.778   0.812  0.00  0.00    +0.149 HD
BRANCH  20  29
ATOM     24  C   UNL     1      -1.044   1.845  -0.098  0.00  0.00    +0.007 C 
ATOM     25  C   UNL     1      -0.975   0.321  -0.206  0.00  0.00    -0.012 C 
ATOM     26  C   UNL     1      -0.511  -0.071  -1.611  0.00  0.00    +0.003 C 
ATOM     27  C   UNL     1      -0.443  -1.596  -1.718  0.00  0.00    +0.002 C 
ATOM     28  C   UNL     1       0.548  -2.136  -0.685  0.00  0.00    +0.022 C 
ATOM     29  C   UNL     1       0.085  -1.744   0.720  0.00  0.00    +0.073 C 
ATOM     30  C   UNL     1       0.016  -0.219   0.827  0.00  0.00    +0.025 C 
ENDBRANCH  20  29
ENDBRANCH  19  21
ENDBRANCH   1  19
TORSDOF 4
