REMARK  Name = ZINC09606961
REMARK  10 active torsions:
REMARK  status: ('A' for Active; 'I' for Inactive)
REMARK    1  A    between atoms: C_1  and  C_2
REMARK    2  A    between atoms: C_3  and  C_7
REMARK    3  A    between atoms: C_10  and  S_12
REMARK    4  A    between atoms: S_12  and  C_13
REMARK    5  A    between atoms: C_13  and  C_14
REMARK    6  A    between atoms: N_16  and  C_17
REMARK    7  A    between atoms: C_17  and  C_19
REMARK    8  A    between atoms: C_17  and  C_30
REMARK    9  A    between atoms: C_30  and  C_31
REMARK   10  A    between atoms: C_30  and  C_32
REMARK                            x       y       z     vdW  Elec       q    Type
REMARK                         _______ _______ _______ _____ _____    ______ ____
ROOT
ATOM      1  C   UNL     1       7.097   1.464   5.045  0.00  0.00    +0.224 C 
ATOM      2  O   UNL     1       6.984   1.829   6.196  0.00  0.00    -0.275 OA
ATOM      3  N   UNL     1       8.309   1.124   4.563  0.00  0.00    -0.308 N 
ATOM      4  H   UNL     1       8.400   0.832   3.642  0.00  0.00    +0.149 HD
ENDROOT
BRANCH   1   5
ATOM      5  C   UNL     1       5.884   1.390   4.155  0.00  0.00    +0.174 C 
BRANCH   5   6
ATOM      6  S   UNL     1       4.420   1.905   5.087  0.00  0.00    -0.056 S 
BRANCH   6  10
ATOM      7  C   UNL     1       1.304   1.711   2.784  0.00  0.00    +0.253 A 
ATOM      8  N   UNL     1       2.258   1.309   1.980  0.00  0.00    -0.106 NA
ATOM      9  N   UNL     1       3.381   1.325   2.608  0.00  0.00    -0.101 NA
ATOM     10  C   UNL     1       3.186   1.728   3.841  0.00  0.00    +0.278 A 
ATOM     11  O   UNL     1       1.870   1.981   3.981  0.00  0.00    -0.411 OA
BRANCH   7  14
ATOM     12  C   UNL     1      -0.013   1.086   0.008  0.00  0.00    +0.087 C 
ATOM     13  C   UNL     1      -0.718   1.572   1.248  0.00  0.00    +0.114 A 
ATOM     14  C   UNL     1      -0.130   1.839   2.446  0.00  0.00    +0.079 A 
ATOM     15  C   UNL     1      -1.214   2.279   3.332  0.00  0.00    +0.054 A 
ATOM     16  C   UNL     1      -2.336   2.237   2.595  0.00  0.00    +0.196 A 
ATOM     17  O   UNL     1      -2.031   1.820   1.357  0.00  0.00    -0.467 OA
ENDBRANCH   7  14
ENDBRANCH   6  10
ENDBRANCH   5   6
ENDBRANCH   1   5
BRANCH   3  18
ATOM     18  C   UNL     1       9.489   1.195   5.428  0.00  0.00    +0.106 C 
BRANCH  18  19
ATOM     19  C   UNL     1      10.540   0.240   4.924  0.00  0.00    -0.023 A 
ATOM     20  C   UNL     1      10.755   0.107   3.565  0.00  0.00    +0.009 A 
ATOM     21  C   UNL     1      11.719  -0.768   3.095  0.00  0.00    +0.050 A 
ATOM     22  C   UNL     1      12.467  -1.511   3.992  0.00  0.00    +0.162 A 
ATOM     23  C   UNL     1      12.251  -1.377   5.356  0.00  0.00    +0.162 A 
ATOM     24  C   UNL     1      11.290  -0.496   5.824  0.00  0.00    +0.055 A 
ATOM     25  O   UNL     1      12.994  -2.114   6.232  0.00  0.00    -0.488 OA
ATOM     26  C   UNL     1      14.381  -1.778   6.312  0.00  0.00    +0.232 C 
ATOM     27  C   UNL     1      15.170  -2.485   5.221  0.00  0.00    +0.082 C 
ATOM     28  C   UNL     1      14.774  -2.023   3.828  0.00  0.00    +0.232 C 
ATOM     29  O   UNL     1      13.419  -2.379   3.542  0.00  0.00    -0.488 OA
ENDBRANCH  18  19
BRANCH  18  30
ATOM     30  C   UNL     1      10.046   2.620   5.414  0.00  0.00    +0.008 C 
ATOM     31  C   UNL     1       8.978   3.590   5.926  0.00  0.00    +0.009 C 
ATOM     32  C   UNL     1      11.278   2.695   6.318  0.00  0.00    +0.009 C 
ENDBRANCH  18  30
ENDBRANCH   3  18
TORSDOF 7
