REMARK  Name = ZINC63879089
REMARK  8 active torsions:
REMARK  status: ('A' for Active; 'I' for Inactive)
REMARK    1  A    between atoms: C_1  and  C_2
REMARK    2  A    between atoms: N_8  and  S_9
REMARK    3  A    between atoms: S_9  and  C_12
REMARK    4  A    between atoms: C_15  and  N_18
REMARK    5  A    between atoms: C_19  and  C_21
REMARK    6  A    between atoms: C_21  and  C_22
REMARK    7  A    between atoms: C_22  and  C_23
REMARK    8  A    between atoms: C_23  and  C_24
REMARK                            x       y       z     vdW  Elec       q    Type
REMARK                         _______ _______ _______ _____ _____    ______ ____
ROOT
ATOM      1  C   UNL     1      -2.950  -5.103   2.229  0.00  0.00    +0.113 A 
ATOM      2  C   UNL     1      -3.061  -5.757   1.015  0.00  0.00    +0.031 A 
ATOM      3  C   UNL     1      -3.962  -6.793   0.866  0.00  0.00    +0.025 A 
ATOM      4  C   UNL     1      -4.757  -7.178   1.938  0.00  0.00    +0.033 A 
ATOM      5  C   UNL     1      -4.644  -6.521   3.155  0.00  0.00    +0.025 A 
ATOM      6  C   UNL     1      -3.737  -5.488   3.299  0.00  0.00    +0.031 A 
ENDROOT
BRANCH   4   7
ATOM      7  N   UNL     1      -5.671  -8.227   1.790  0.00  0.00    -0.285 N 
ATOM      8  C   UNL     1      -5.385  -9.261   0.973  0.00  0.00    +0.217 C 
ATOM      9  O   UNL     1      -4.298  -9.330   0.441  0.00  0.00    -0.275 OA
ATOM     10  H   UNL     1      -6.511  -8.211   2.275  0.00  0.00    +0.155 HD
BRANCH   8  11
ATOM     11  C   UNL     1      -6.417 -10.330   0.722  0.00  0.00    +0.096 C 
BRANCH  11  12
ATOM     12  C   UNL     1      -5.842 -11.378  -0.234  0.00  0.00    +0.014 C 
BRANCH  12  13
ATOM     13  C   UNL     1      -6.889 -12.464  -0.489  0.00  0.00    +0.033 C 
BRANCH  13  14
ATOM     14  C   UNL     1      -6.323 -13.496  -1.430  0.00  0.00    -0.042 C 
ATOM     15  C   UNL     1      -5.728 -14.663  -1.094  0.00  0.00    -0.001 A 
ATOM     16  C   UNL     1      -5.440 -15.297   0.198  0.00  0.00    +0.010 A 
ATOM     17  C   UNL     1      -4.817 -16.497   0.216  0.00  0.00    +0.001 A 
ATOM     18  C   UNL     1      -4.440 -17.149  -0.966  0.00  0.00    +0.002 A 
ATOM     19  C   UNL     1      -4.671 -16.631  -2.191  0.00  0.00    +0.026 A 
ATOM     20  C   UNL     1      -5.321 -15.373  -2.328  0.00  0.00    +0.043 A 
ATOM     21  N   UNL     1      -5.651 -14.672  -3.385  0.00  0.00    -0.380 N 
ATOM     22  C   UNL     1      -6.312 -13.440  -2.942  0.00  0.00    +0.144 C 
ATOM     23  H   UNL     1      -5.490 -14.928  -4.307  0.00  0.00    +0.160 HD
ENDBRANCH  13  14
ENDBRANCH  12  13
ENDBRANCH  11  12
ENDBRANCH   8  11
ENDBRANCH   4   7
BRANCH   1  24
ATOM     24  S   UNL     1      -1.800  -3.782   2.415  0.00  0.00    +0.100 S 
ATOM     25  O   UNL     1      -2.271  -2.981   3.489  0.00  0.00    -0.146 OA
ATOM     26  O   UNL     1      -1.573  -3.255   1.114  0.00  0.00    -0.146 OA
BRANCH  24  33
ATOM     27  C   UNL     1       3.995  -2.539   3.900  0.00  0.00    +0.041 C 
ATOM     28  C   UNL     1       2.559  -2.857   4.323  0.00  0.00    +0.153 C 
ATOM     29  C   UNL     1       2.046  -4.110   3.584  0.00  0.00    +0.111 C 
ATOM     30  C   UNL     1       0.658  -3.688   3.127  0.00  0.00    +0.151 C 
ATOM     31  N   UNL     1       0.733  -2.320   2.991  0.00  0.00    -0.250 N 
ATOM     32  O   UNL     1       1.673  -1.802   3.917  0.00  0.00    -0.269 OA
ATOM     33  N   UNL     1      -0.367  -4.447   2.913  0.00  0.00    -0.114 NA
ATOM     34  H   UNL     1       0.221  -1.792   2.359  0.00  0.00    +0.196 HD
ENDBRANCH  24  33
ENDBRANCH   1  24
TORSDOF 7
