REMARK  Name = ZINC07320445
REMARK  6 active torsions:
REMARK  status: ('A' for Active; 'I' for Inactive)
REMARK    1  A    between atoms: C_1  and  C_2
REMARK    2  A    between atoms: C_3  and  C_8
REMARK    3  A    between atoms: C_4  and  N_7
REMARK    4  A    between atoms: C_8  and  C_21
REMARK    5  A    between atoms: N_9  and  N_10
REMARK    6  A    between atoms: N_12  and  C_20
REMARK                            x       y       z     vdW  Elec       q    Type
REMARK                         _______ _______ _______ _____ _____    ______ ____
ROOT
ATOM      1  C   UNL     1       1.448   1.605   2.510  0.00  0.00    +0.072 C 
ATOM      2  N   UNL     1       2.265   2.584   2.228  0.00  0.00    -0.151 NA
ATOM      3  C   UNL     1       1.994   0.265   2.929  0.00  0.00    +0.068 C 
ENDROOT
BRANCH   2   4
ATOM      4  N   UNL     1       3.649   2.389   2.315  0.00  0.00    -0.124 NA
ATOM      5  C   UNL     1       4.473   3.376   2.030  0.00  0.00    +0.195 A 
ATOM      6  N   UNL     1       5.847   3.388   2.060  0.00  0.00    -0.321 N 
ATOM      7  C   UNL     1       6.537   4.538   1.718  0.00  0.00    +0.057 A 
ATOM      8  C   UNL     1       7.930   4.722   1.691  0.00  0.00    +0.027 A 
ATOM      9  C   UNL     1       8.475   5.932   1.333  0.00  0.00    +0.002 A 
ATOM     10  C   UNL     1       7.674   7.008   0.990  0.00  0.00    +0.001 A 
ATOM     11  C   UNL     1       6.298   6.856   1.008  0.00  0.00    +0.017 A 
ATOM     12  C   UNL     1       5.753   5.646   1.366  0.00  0.00    +0.039 A 
ATOM     13  S   UNL     1       4.088   5.042   1.516  0.00  0.00    -0.048 S 
ATOM     14  C   UNL     1       6.581   2.181   2.449  0.00  0.00    +0.151 C 
ENDBRANCH   2   4
BRANCH   1  17
ATOM     15  C   UNL     1      -0.013   1.086   0.008  0.00  0.00    +0.067 C 
ATOM     16  C   UNL     1      -0.718   1.572   1.248  0.00  0.00    +0.058 A 
ATOM     17  C   UNL     1      -0.006   1.810   2.418  0.00  0.00    +0.048 A 
ATOM     18  C   UNL     1      -0.766   2.258   3.500  0.00  0.00    +0.092 A 
ATOM     19  S   UNL     1      -2.360   2.309   2.824  0.00  0.00    +0.027 S 
ATOM     20  N   UNL     1      -2.007   1.781   1.239  0.00  0.00    -0.213 NA
BRANCH  18  21
ATOM     21  N   UNL     1      -0.352   2.579   4.784  0.00  0.00    -0.351 N 
ATOM     22  H   UNL     1       0.584   2.503   5.025  0.00  0.00    +0.143 HD
ATOM     23  H   UNL     1      -0.999   2.881   5.441  0.00  0.00    +0.143 HD
ENDBRANCH  18  21
ENDBRANCH   1  17
TORSDOF 3
