REMARK  Name = ZINC40021568
REMARK  12 active torsions:
REMARK  status: ('A' for Active; 'I' for Inactive)
REMARK    1  A    between atoms: C_1  and  C_2
REMARK    2  A    between atoms: C_2  and  C_3
REMARK    3  A    between atoms: C_3  and  C_4
REMARK    4  A    between atoms: C_4  and  O_5
REMARK    5  A    between atoms: O_5  and  C_6
REMARK    6  A    between atoms: C_9  and  C_15
REMARK    7  A    between atoms: C_11  and  O_12
REMARK    8  A    between atoms: O_12  and  C_13
REMARK    9  A    between atoms: C_13  and  C_14
REMARK   10  A    between atoms: N_30  and  C_31
REMARK   11  A    between atoms: C_31  and  C_32
REMARK   12  A    between atoms: C_32  and  O_33
REMARK                            x       y       z     vdW  Elec       q    Type
REMARK                         _______ _______ _______ _____ _____    ______ ____
ROOT
ATOM      1  C   UNL     1       1.844  -8.068  -3.111  0.00  0.00    +0.145 C 
ATOM      2  C   UNL     1       0.547  -8.632  -3.590  0.00  0.00    +0.072 A 
ATOM      3  C   UNL     1      -0.232  -8.368  -4.805  0.00  0.00    +0.199 A 
ATOM      4  O   UNL     1       0.194  -7.716  -5.741  0.00  0.00    -0.287 OA
ATOM      5  C   UNL     1      -1.588  -8.973  -4.785  0.00  0.00    +0.065 A 
ATOM      6  C   UNL     1      -2.519  -8.650  -5.771  0.00  0.00    +0.030 A 
ATOM      7  C   UNL     1      -3.774  -9.217  -5.734  0.00  0.00    +0.019 A 
ATOM      8  C   UNL     1      -4.107 -10.104  -4.718  0.00  0.00    +0.019 A 
ATOM      9  C   UNL     1      -3.196 -10.430  -3.740  0.00  0.00    +0.048 A 
ATOM     10  C   UNL     1      -1.918  -9.872  -3.757  0.00  0.00    +0.140 A 
ATOM     11  O   UNL     1      -1.038 -10.218  -2.790  0.00  0.00    -0.450 OA
ATOM     12  C   UNL     1       0.110  -9.525  -2.654  0.00  0.00    +0.199 A 
ATOM     13  C   UNL     1       1.092  -9.561  -1.556  0.00  0.00    +0.283 C 
ATOM     14  O   UNL     1       1.000 -10.254  -0.562  0.00  0.00    -0.267 OA
ATOM     15  N   UNL     1       2.110  -8.713  -1.815  0.00  0.00    -0.281 N 
ATOM     16 BR   UNL     1      -5.045  -8.787  -7.067  0.00  0.00    -0.050 Br
ENDROOT
BRANCH   1  20
ATOM     17  C   UNL     1       1.514  -3.834  -2.603  0.00  0.00    +0.162 A 
ATOM     18  C   UNL     1       0.980  -4.692  -1.655  0.00  0.00    +0.050 A 
ATOM     19  C   UNL     1       1.089  -6.060  -1.822  0.00  0.00    +0.009 A 
ATOM     20  C   UNL     1       1.728  -6.576  -2.934  0.00  0.00    -0.019 A 
ATOM     21  C   UNL     1       2.263  -5.725  -3.884  0.00  0.00    +0.055 A 
ATOM     22  C   UNL     1       2.153  -4.353  -3.725  0.00  0.00    +0.162 A 
BRANCH  17  23
ATOM     23  O   UNL     1       1.408  -2.488  -2.441  0.00  0.00    -0.488 OA
BRANCH  23  24
ATOM     24  C   UNL     1       0.739  -2.027  -1.265  0.00  0.00    +0.229 C 
BRANCH  24  25
ATOM     25  C   UNL     1       0.718  -0.497  -1.257  0.00  0.00    +0.041 C 
BRANCH  25  27
ATOM     26  C   UNL     1      -0.019   1.526   0.010  0.00  0.00    +0.004 C 
ATOM     27  C   UNL     1       0.002  -0.004   0.002  0.00  0.00    -0.000 C 
ENDBRANCH  25  27
ENDBRANCH  24  25
ENDBRANCH  23  24
ENDBRANCH  17  23
BRANCH  22  28
ATOM     28  O   UNL     1       2.673  -3.515  -4.662  0.00  0.00    -0.489 OA
BRANCH  28  29
ATOM     29  C   UNL     1       3.315  -4.118  -5.787  0.00  0.00    +0.226 C 
ATOM     30  C   UNL     1       3.833  -3.026  -6.725  0.00  0.00    +0.048 C 
ENDBRANCH  28  29
ENDBRANCH  22  28
ENDBRANCH   1  20
BRANCH  15  31
ATOM     31  C   UNL     1       3.275  -8.477  -0.959  0.00  0.00    +0.137 C 
BRANCH  31  32
ATOM     32  C   UNL     1       2.971  -7.336   0.013  0.00  0.00    +0.175 C 
BRANCH  32  33
ATOM     33  O   UNL     1       1.923  -7.732   0.901  0.00  0.00    -0.393 OA
ATOM     34  H   UNL     1       1.677  -7.056   1.546  0.00  0.00    +0.209 HD
ENDBRANCH  32  33
ENDBRANCH  31  32
ENDBRANCH  15  31
TORSDOF 10
