REMARK  Name = ZINC14963447
REMARK  13 active torsions:
REMARK  status: ('A' for Active; 'I' for Inactive)
REMARK    1  A    between atoms: C_1  and  C_2
REMARK    2  A    between atoms: C_2  and  C_3
REMARK    3  A    between atoms: C_3  and  C_4
REMARK    4  A    between atoms: C_4  and  C_19
REMARK    5  A    between atoms: N_7  and  C_11
REMARK    6  A    between atoms: C_11  and  C_12
REMARK    7  A    between atoms: C_12  and  C_13
REMARK    8  A    between atoms: C_18  and  N_73
REMARK    9  A    between atoms: C_24  and  C_25
REMARK   10  A    between atoms: C_24  and  N_75
REMARK   11  A    between atoms: C_29  and  O_32
REMARK   12  A    between atoms: C_30  and  O_31
REMARK   13  A    between atoms: O_32  and  C_33
REMARK                            x       y       z     vdW  Elec       q    Type
REMARK                         _______ _______ _______ _____ _____    ______ ____
ROOT
ATOM      1  C   UNL     1       1.325   1.526  -0.043  0.00  0.00    +0.115 C 
ATOM      2  C   UNL     1       1.239   3.034  -0.180  0.00  0.00    +0.247 C 
ATOM      3  O   UNL     1       0.633   3.801   0.537  0.00  0.00    -0.273 OA
ATOM      4  N   UNL     1       1.976   3.343  -1.265  0.00  0.00    -0.224 N 
ATOM      5  C   UNL     1       2.510   2.252  -1.826  0.00  0.00    +0.309 C 
ATOM      6  O   UNL     1       3.214   2.278  -2.816  0.00  0.00    -0.252 OA
ATOM      7  N   UNL     1       2.180   1.124  -1.172  0.00  0.00    -0.285 N 
ATOM      8  H   UNL     1       2.453   0.221  -1.399  0.00  0.00    +0.151 HD
ENDROOT
BRANCH   1   9
ATOM      9  C   UNL     1      -0.064   0.895  -0.167  0.00  0.00    +0.018 C 
ATOM     10  C   UNL     1      -0.897   1.244   1.069  0.00  0.00    -0.013 C 
ATOM     11  C   UNL     1      -2.304   0.660   0.909  0.00  0.00    -0.078 C 
ATOM     12  C   UNL     1      -2.172   0.849  -1.503  0.00  0.00    -0.078 C 
ATOM     13  C   UNL     1      -0.763   1.438  -1.416  0.00  0.00    -0.013 C 
ATOM     14  N   UNL     1      -2.932   1.241  -0.297  0.00  0.00    +0.382 N 
ATOM     15  H   UNL     1      -2.923   2.264  -0.216  0.00  0.00    -0.081 HD
BRANCH  14  16
ATOM     16  C   UNL     1      -4.331   0.780  -0.409  0.00  0.00    -0.039 C 
BRANCH  16  17
ATOM     17  C   UNL     1      -5.131   1.377   0.720  0.00  0.00    -0.019 A 
ATOM     18  C   UNL     1      -5.431   0.613   1.833  0.00  0.00    +0.005 A 
ATOM     19  C   UNL     1      -6.164   1.157   2.871  0.00  0.00    +0.004 A 
ATOM     20  C   UNL     1      -6.600   2.468   2.800  0.00  0.00    +0.049 A 
ATOM     21  C   UNL     1      -6.303   3.238   1.688  0.00  0.00    +0.161 A 
ATOM     22  C   UNL     1      -5.560   2.691   0.645  0.00  0.00    +0.160 A 
BRANCH  22  23
ATOM     23  O   UNL     1      -5.261   3.445  -0.446  0.00  0.00    -0.503 OA
ATOM     24  H   UNL     1      -5.922   3.397  -1.151  0.00  0.00    +0.292 HD
ENDBRANCH  22  23
BRANCH  21  25
ATOM     25  O   UNL     1      -6.731   4.527   1.617  0.00  0.00    -0.491 OA
ATOM     26  C   UNL     1      -7.483   5.022   2.727  0.00  0.00    +0.277 C 
ENDBRANCH  21  25
ENDBRANCH  16  17
ENDBRANCH  14  16
ENDBRANCH   1   9
BRANCH   1  27
ATOM     27  C   UNL     1       1.973   1.140   1.288  0.00  0.00    +0.035 C 
BRANCH  27  29
ATOM     28  C   UNL     1       4.005   1.396   2.718  0.00  0.00    +0.004 C 
ATOM     29  C   UNL     1       3.357   1.783   1.387  0.00  0.00    -0.001 C 
ENDBRANCH  27  29
ENDBRANCH   1  27
BRANCH   4  30
ATOM     30  C   UNL     1       2.169   4.705  -1.768  0.00  0.00    +0.116 C 
BRANCH  30  31
ATOM     31  C   UNL     1       1.067   5.037  -2.777  0.00  0.00    +0.004 C 
BRANCH  31  32
ATOM     32  C   UNL     1       1.340   6.409  -3.397  0.00  0.00    -0.068 C 
ATOM     33  C   UNL     1       1.213   7.506  -2.319  0.00  0.00    -0.017 C 
ATOM     34  C   UNL     1       0.533   8.671  -3.085  0.00  0.00    -0.020 C 
ATOM     35  C   UNL     1      -0.420   7.906  -4.036  0.00  0.00    -0.079 C 
ATOM     36  C   UNL     1      -0.568   5.555  -4.628  0.00  0.00    -0.096 C 
ATOM     37  N   UNL     1       0.347   6.711  -4.441  0.00  0.00    +0.380 N 
ATOM     38  H   UNL     1       0.832   6.902  -5.325  0.00  0.00    -0.082 HD
ENDBRANCH  31  32
ENDBRANCH  30  31
ENDBRANCH   4  30
TORSDOF 10
