REMARK  Name = ZINC02109601
REMARK  9 active torsions:
REMARK  status: ('A' for Active; 'I' for Inactive)
REMARK    1  A    between atoms: C_1  and  C_2
REMARK    2  A    between atoms: C_6  and  O_21
REMARK    3  A    between atoms: C_7  and  C_20
REMARK    4  A    between atoms: C_12  and  C_13
REMARK    5  A    between atoms: C_13  and  C_14
REMARK    6  A    between atoms: O_21  and  C_22
REMARK    7  A    between atoms: C_22  and  C_24
REMARK    8  A    between atoms: C_22  and  C_25
REMARK    9  A    between atoms: C_30  and  O_38
REMARK                            x       y       z     vdW  Elec       q    Type
REMARK                         _______ _______ _______ _____ _____    ______ ____
ROOT
ATOM      1  C   UNL     1      -2.196  -0.996  -0.075  0.00  0.00    +0.045 C 
ATOM      2  C   UNL     1      -2.288   0.484   0.192  0.00  0.00    -0.030 A 
ATOM      3  C   UNL     1      -1.089   1.324   0.198  0.00  0.00    +0.021 A 
ATOM      4  C   UNL     1       0.177   0.774  -0.034  0.00  0.00    +0.015 A 
ATOM      5  C   UNL     1       1.279   1.578  -0.018  0.00  0.00    +0.047 A 
ATOM      6  C   UNL     1       1.153   2.943   0.233  0.00  0.00    +0.128 A 
ATOM      7  C   UNL     1      -0.091   3.504   0.469  0.00  0.00    +0.034 A 
ATOM      8  C   UNL     1      -1.222   2.701   0.457  0.00  0.00    +0.146 A 
ATOM      9  O   UNL     1      -2.444   3.227   0.685  0.00  0.00    -0.422 OA
ATOM     10  C   UNL     1      -3.548   2.463   0.676  0.00  0.00    +0.341 A 
ATOM     11  O   UNL     1      -4.630   2.982   0.886  0.00  0.00    -0.245 OA
ATOM     12  C   UNL     1      -3.488   1.077   0.429  0.00  0.00    +0.045 A 
ATOM     13  C   UNL     1      -0.216   4.981   0.739  0.00  0.00    +0.051 C 
ENDROOT
BRANCH  12  14
ATOM     14  C   UNL     1      -4.750   0.254   0.427  0.00  0.00    +0.077 C 
BRANCH  14  15
ATOM     15  C   UNL     1      -5.326   0.220  -0.965  0.00  0.00    -0.043 A 
ATOM     16  C   UNL     1      -6.235   1.184  -1.360  0.00  0.00    +0.004 A 
ATOM     17  C   UNL     1      -6.760   1.156  -2.639  0.00  0.00    +0.000 A 
ATOM     18  C   UNL     1      -6.383   0.159  -3.519  0.00  0.00    +0.000 A 
ATOM     19  C   UNL     1      -5.478  -0.808  -3.122  0.00  0.00    +0.000 A 
ATOM     20  C   UNL     1      -4.950  -0.777  -1.845  0.00  0.00    +0.004 A 
ENDBRANCH  14  15
ENDBRANCH  12  14
BRANCH   6  21
ATOM     21  O   UNL     1       2.259   3.730   0.245  0.00  0.00    -0.480 OA
BRANCH  21  22
ATOM     22  C   UNL     1       3.522   3.076   0.108  0.00  0.00    +0.256 C 
ATOM     23  C   UNL     1       3.921   3.040  -1.368  0.00  0.00    +0.062 C 
BRANCH  22  24
ATOM     24  C   UNL     1       4.566   3.830   0.892  0.00  0.00    +0.256 C 
ATOM     25  O   UNL     1       4.290   4.896   1.400  0.00  0.00    -0.272 OA
ATOM     26  N   UNL     1       5.805   3.320   1.029  0.00  0.00    -0.298 N 
ATOM     27  C   UNL     1       6.192   2.091   0.322  0.00  0.00    +0.110 C 
ATOM     28  C   UNL     1       6.743   1.089   1.341  0.00  0.00    +0.054 C 
ATOM     29  C   UNL     1       7.881   1.741   2.130  0.00  0.00    +0.072 C 
ATOM     30  C   UNL     1       8.442   0.730   3.135  0.00  0.00    +0.035 C 
ATOM     31  C   UNL     1       7.326   0.285   4.082  0.00  0.00    +0.003 C 
ATOM     32  C   UNL     1       6.779   1.500   4.835  0.00  0.00    +0.001 C 
ATOM     33  C   UNL     1       6.227   2.516   3.833  0.00  0.00    +0.008 C 
ATOM     34  C   UNL     1       7.347   2.963   2.881  0.00  0.00    +0.038 C 
ATOM     35  C   UNL     1       6.799   3.984   1.884  0.00  0.00    +0.114 C 
BRANCH  29  36
ATOM     36  O   UNL     1       8.916   2.146   1.231  0.00  0.00    -0.388 OA
ATOM     37  H   UNL     1       9.301   1.419   0.723  0.00  0.00    +0.210 HD
ENDBRANCH  29  36
ENDBRANCH  22  24
ENDBRANCH  21  22
ENDBRANCH   6  21
TORSDOF 6
