REMARK  Name = ZINC39358662
REMARK  3 active torsions:
REMARK  status: ('A' for Active; 'I' for Inactive)
REMARK    1  A    between atoms: C_3  and  O_24
REMARK    2  A    between atoms: C_6  and  C_7
REMARK    3  A    between atoms: C_10  and  O_23
REMARK                            x       y       z     vdW  Elec       q    Type
REMARK                         _______ _______ _______ _____ _____    ______ ____
ROOT
ATOM      1  C   UNL     1      -1.293  -0.774   0.011  0.00  0.00    +0.089 C 
ATOM      2  C   UNL     1      -1.348  -1.669   1.212  0.00  0.00    +0.048 C 
ATOM      3  C   UNL     1      -0.726  -1.698   2.370  0.00  0.00    +0.235 C 
ATOM      4  N   UNL     1      -1.063  -2.823   3.057  0.00  0.00    -0.114 NA
ATOM      5  N   UNL     1      -1.897  -3.540   2.488  0.00  0.00    -0.157 NA
ATOM      6  C   UNL     1      -2.287  -2.879   1.242  0.00  0.00    +0.245 C 
ATOM      7  N   UNL     1      -1.916  -3.644   0.049  0.00  0.00    -0.321 N 
ATOM      8  C   UNL     1      -1.681  -2.982  -1.130  0.00  0.00    +0.013 C 
ATOM      9  C   UNL     1      -1.373  -1.669  -1.217  0.00  0.00    +0.023 C 
ATOM     10  C   UNL     1      -1.106  -1.059  -2.454  0.00  0.00    +0.162 C 
ATOM     11  O   UNL     1      -0.836   0.126  -2.484  0.00  0.00    -0.292 OA
ATOM     12  C   UNL     1      -1.146  -1.835  -3.740  0.00  0.00    +0.080 C 
ATOM     13  C   UNL     1      -0.811  -3.300  -3.443  0.00  0.00    +0.014 C 
ATOM     14  C   UNL     1      -1.794  -3.818  -2.389  0.00  0.00    +0.051 C 
ATOM     15  H   UNL     1      -1.837  -4.610   0.092  0.00  0.00    +0.148 HD
ENDROOT
BRANCH   1  21
ATOM     16  C   UNL     1      -0.017   1.378   0.010  0.00  0.00    +0.008 A 
ATOM     17  C   UNL     1       1.169   2.087   0.002  0.00  0.00    +0.046 A 
ATOM     18  C   UNL     1       2.380   1.409  -0.013  0.00  0.00    +0.117 A 
ATOM     19  C   UNL     1       2.396   0.022  -0.021  0.00  0.00    +0.046 A 
ATOM     20  C   UNL     1       1.207  -0.681  -0.013  0.00  0.00    +0.008 A 
ATOM     21  C   UNL     1       0.002  -0.004   0.002  0.00  0.00    -0.035 A 
BRANCH  18  22
ATOM     22  O   UNL     1       3.548   2.104  -0.021  0.00  0.00    -0.507 OA
ATOM     23  H   UNL     1       3.895   2.300   0.860  0.00  0.00    +0.292 HD
ENDBRANCH  18  22
ENDBRANCH   1  21
BRANCH   3  24
ATOM     24  O   UNL     1       0.131  -0.742   2.816  0.00  0.00    -0.491 OA
ATOM     25  H   UNL     1       0.501  -0.922   3.691  0.00  0.00    +0.294 HD
ENDBRANCH   3  24
TORSDOF 3
