REMARK  Name = ZINC39545848
REMARK  10 active torsions:
REMARK  status: ('A' for Active; 'I' for Inactive)
REMARK    1  A    between atoms: C_1  and  C_2
REMARK    2  A    between atoms: C_2  and  C_3
REMARK    3  A    between atoms: C_2  and  S_4
REMARK    4  A    between atoms: S_4  and  N_7
REMARK    5  A    between atoms: N_7  and  S_26
REMARK    6  A    between atoms: C_8  and  C_10
REMARK    7  A    between atoms: C_13  and  S_24
REMARK    8  A    between atoms: S_24  and  C_25
REMARK    9  A    between atoms: S_26  and  O_29
REMARK   10  A    between atoms: O_29  and  C_30
REMARK                            x       y       z     vdW  Elec       q    Type
REMARK                         _______ _______ _______ _____ _____    ______ ____
ROOT
ATOM      1  N   UNL     1      -2.775  -0.286   2.117  0.00  0.00    -0.008 N 
ATOM      2  C   UNL     1      -3.125   0.693   2.975  0.00  0.00    +0.277 C 
ATOM      3  O   UNL     1      -2.918   0.561   4.163  0.00  0.00    -0.270 OA
ENDROOT
BRANCH   2   4
ATOM      4  C   UNL     1      -3.773   1.952   2.458  0.00  0.00    +0.152 C 
ATOM      5  C   UNL     1      -4.721   2.544   3.518  0.00  0.00    +0.075 C 
ATOM      6  C   UNL     1      -4.120   3.894   3.838  0.00  0.00    +0.022 C 
ATOM      7  C   UNL     1      -3.041   4.074   3.111  0.00  0.00    +0.084 C 
ATOM      8  N   UNL     1      -2.181   5.200   3.156  0.00  0.00    -0.303 N 
ATOM      9  C   UNL     1      -0.818   4.907   2.984  0.00  0.00    +0.037 A 
ATOM     10  C   UNL     1       0.126   5.914   3.122  0.00  0.00    +0.023 A 
ATOM     11  C   UNL     1       1.466   5.628   2.944  0.00  0.00    +0.002 A 
ATOM     12  C   UNL     1       1.858   4.340   2.628  0.00  0.00    +0.000 A 
ATOM     13  C   UNL     1       0.918   3.337   2.495  0.00  0.00    +0.007 A 
ATOM     14  C   UNL     1      -0.427   3.611   2.678  0.00  0.00    -0.010 A 
ATOM     15  C   UNL     1      -1.424   2.489   2.553  0.00  0.00    +0.124 C 
ATOM     16  N   UNL     1      -2.763   3.002   2.247  0.00  0.00    -0.369 NA
ATOM     17  H   UNL     1      -2.508   6.103   3.294  0.00  0.00    +0.153 HD
ATOM     18  H   UNL     1      -2.796   3.317   1.289  0.00  0.00    +0.129 HD
BRANCH   6  19
ATOM     19  S   UNL     1      -4.766   5.046   5.005  0.00  0.00    -0.130 S 
ATOM     20  C   UNL     1      -4.614   4.190   6.597  0.00  0.00    +0.089 C 
ENDBRANCH   6  19
ENDBRANCH   2   4
BRANCH   1  21
ATOM     21  S   UNL     1      -2.914  -0.045   0.485  0.00  0.00    +0.071 S 
ATOM     22  O   UNL     1      -1.899  -0.857  -0.089  0.00  0.00    -0.153 OA
ATOM     23  O   UNL     1      -2.892   1.366   0.323  0.00  0.00    -0.153 OA
BRANCH  21  25
ATOM     24  C   UNL     1      -4.620  -2.183   0.415  0.00  0.00    +0.033 C 
ATOM     25  C   UNL     1      -4.552  -0.697   0.056  0.00  0.00    +0.147 C 
ATOM     26  C   UNL     1      -5.625   0.066   0.836  0.00  0.00    +0.033 C 
ENDBRANCH  21  25
ENDBRANCH   1  21
BRANCH   1  27
ATOM     27  S   UNL     1      -2.206  -1.729   2.696  0.00  0.00    +0.231 S 
ATOM     28  O   UNL     1      -2.837  -1.940   3.952  0.00  0.00    -0.114 OA
ATOM     29  O   UNL     1      -2.304  -2.662   1.628  0.00  0.00    -0.114 OA
BRANCH  27  30
ATOM     30  O   UNL     1      -0.722  -1.547   2.979  0.00  0.00    -0.330 OA
BRANCH  30  31
ATOM     31  C   UNL     1      -0.457  -0.894   4.141  0.00  0.00    +0.158 A 
ATOM     32  C   UNL     1      -0.206   0.470   4.130  0.00  0.00    +0.048 A 
ATOM     33  C   UNL     1       0.062   1.132   5.312  0.00  0.00    +0.004 A 
ATOM     34  C   UNL     1       0.081   0.436   6.507  0.00  0.00    +0.000 A 
ATOM     35  C   UNL     1      -0.168  -0.924   6.521  0.00  0.00    +0.004 A 
ATOM     36  C   UNL     1      -0.443  -1.589   5.342  0.00  0.00    +0.048 A 
ENDBRANCH  30  31
ENDBRANCH  27  30
ENDBRANCH   1  27
TORSDOF 7
