REMARK  Name = ZINC12437665
REMARK  7 active torsions:
REMARK  status: ('A' for Active; 'I' for Inactive)
REMARK    1  A    between atoms: C_1  and  C_2
REMARK    2  A    between atoms: C_4  and  C_33
REMARK    3  A    between atoms: C_6  and  N_8
REMARK    4  A    between atoms: C_9  and  C_11
REMARK    5  A    between atoms: N_21  and  N_22
REMARK    6  A    between atoms: N_22  and  S_23
REMARK    7  A    between atoms: S_23  and  C_26
REMARK                            x       y       z     vdW  Elec       q    Type
REMARK                         _______ _______ _______ _____ _____    ______ ____
ROOT
ATOM      1  C   UNL     1      -0.188   1.596  -1.076  0.00  0.00    +0.101 A 
ATOM      2  C   UNL     1      -1.233   2.275  -0.495  0.00  0.00    +0.030 A 
ATOM      3  C   UNL     1      -1.036   3.698  -0.195  0.00  0.00    +0.018 A 
ATOM      4  C   UNL     1      -1.929   4.385   0.632  0.00  0.00    +0.011 A 
ATOM      5  C   UNL     1      -1.722   5.721   0.899  0.00  0.00    +0.001 A 
ATOM      6  C   UNL     1      -0.635   6.384   0.352  0.00  0.00    +0.004 A 
ATOM      7  C   UNL     1       0.255   5.718  -0.469  0.00  0.00    +0.047 A 
ATOM      8  C   UNL     1       0.064   4.376  -0.752  0.00  0.00    +0.138 A 
ATOM      9  O   UNL     1       0.927   3.710  -1.561  0.00  0.00    -0.436 OA
ATOM     10  C   UNL     1       1.045   2.365  -1.361  0.00  0.00    +0.249 A 
ATOM     11  N   UNL     1       2.206   1.776  -1.420  0.00  0.00    -0.127 NA
ENDROOT
BRANCH   1  13
ATOM     12  N   UNL     1      -1.383  -0.535  -1.034  0.00  0.00    -0.281 N 
ATOM     13  C   UNL     1      -0.293   0.165  -1.406  0.00  0.00    +0.253 C 
ATOM     14  O   UNL     1       0.604  -0.386  -2.016  0.00  0.00    -0.270 OA
ATOM     15  H   UNL     1      -2.140  -0.077  -0.635  0.00  0.00    +0.155 HD
BRANCH  12  21
ATOM     16  C   UNL     1       0.971  -4.845  -1.251  0.00  0.00    +0.044 C 
ATOM     17  C   UNL     1      -0.297  -4.034  -1.332  0.00  0.00    -0.048 A 
ATOM     18  C   UNL     1      -1.502  -4.661  -1.593  0.00  0.00    +0.006 A 
ATOM     19  C   UNL     1      -2.667  -3.920  -1.669  0.00  0.00    -0.048 A 
ATOM     20  C   UNL     1      -2.631  -2.552  -1.484  0.00  0.00    +0.026 A 
ATOM     21  C   UNL     1      -1.423  -1.920  -1.221  0.00  0.00    +0.034 A 
ATOM     22  C   UNL     1      -0.253  -2.666  -1.151  0.00  0.00    +0.026 A 
ATOM     23  C   UNL     1      -3.978  -4.607  -1.955  0.00  0.00    +0.044 C 
ENDBRANCH  12  21
ENDBRANCH   1  13
BRANCH  11  24
ATOM     24  N   UNL     1       3.370   2.538  -1.583  0.00  0.00    -0.133 N 
ATOM     25  H   UNL     1       3.321   3.507  -1.579  0.00  0.00    +0.197 HD
BRANCH  24  26
ATOM     26  S   UNL     1       4.831   1.785  -1.783  0.00  0.00    +0.087 S 
ATOM     27  O   UNL     1       5.753   2.787  -2.191  0.00  0.00    -0.149 OA
ATOM     28  O   UNL     1       5.038   0.985  -0.627  0.00  0.00    -0.149 OA
BRANCH  26  29
ATOM     29  C   UNL     1       4.663   0.673  -3.140  0.00  0.00    +0.110 A 
ATOM     30  C   UNL     1       4.163  -0.599  -2.933  0.00  0.00    +0.030 A 
ATOM     31  C   UNL     1       4.025  -1.469  -3.998  0.00  0.00    +0.022 A 
ATOM     32  C   UNL     1       4.398  -1.071  -5.270  0.00  0.00    +0.041 A 
ATOM     33  C   UNL     1       4.904   0.201  -5.475  0.00  0.00    +0.022 A 
ATOM     34  C   UNL     1       5.036   1.072  -4.410  0.00  0.00    +0.030 A 
ATOM     35 CL   UNL     1       4.232  -2.165  -6.607  0.00  0.00    -0.084 Cl
ENDBRANCH  26  29
ENDBRANCH  24  26
ENDBRANCH  11  24
TORSDOF 5
