REMARK  Name = ZINC59459422
REMARK  5 active torsions:
REMARK  status: ('A' for Active; 'I' for Inactive)
REMARK    1  A    between atoms: C_1  and  C_2
REMARK    2  A    between atoms: C_5  and  C_24
REMARK    3  A    between atoms: C_6  and  N_8
REMARK    4  A    between atoms: C_14  and  C_15
REMARK    5  A    between atoms: C_20  and  O_21
REMARK                            x       y       z     vdW  Elec       q    Type
REMARK                         _______ _______ _______ _____ _____    ______ ____
ROOT
ATOM      1  N   UNL     1      -0.487  -2.828   2.473  0.00  0.00    -0.225 NA
ATOM      2  C   UNL     1      -0.260  -2.173   3.590  0.00  0.00    +0.166 C 
ATOM      3  N   UNL     1      -0.064  -2.681   4.856  0.00  0.00    -0.260 N 
ATOM      4  C   UNL     1       0.154  -1.873   5.879  0.00  0.00    +0.256 C 
ATOM      5  O   UNL     1       0.330  -2.305   7.004  0.00  0.00    -0.269 OA
ATOM      6  C   UNL     1       0.175  -0.425   5.597  0.00  0.00    +0.078 C 
ATOM      7  C   UNL     1       0.373   0.615   6.446  0.00  0.00    +0.032 C 
ATOM      8  S   UNL     1      -0.124  -0.410   3.835  0.00  0.00    -0.049 S 
ATOM      9  H   UNL     1      -0.086  -3.640   4.997  0.00  0.00    +0.157 HD
ENDROOT
BRANCH   1  15
ATOM     10  C   UNL     1       1.504   0.398  -0.626  0.00  0.00    +0.044 C 
ATOM     11  C   UNL     1       0.414  -0.575  -0.257  0.00  0.00    -0.048 A 
ATOM     12  C   UNL     1      -0.643  -0.788  -1.124  0.00  0.00    +0.004 A 
ATOM     13  C   UNL     1      -1.649  -1.680  -0.794  0.00  0.00    +0.006 A 
ATOM     14  C   UNL     1      -1.603  -2.364   0.403  0.00  0.00    -0.025 A 
ATOM     15  C   UNL     1      -0.538  -2.154   1.283  0.00  0.00    +0.070 A 
ATOM     16  C   UNL     1       0.475  -1.256   0.941  0.00  0.00    +0.031 A 
ATOM     17  C   UNL     1      -2.698  -3.334   0.762  0.00  0.00    +0.046 C 
ENDBRANCH   1  15
BRANCH   7  18
ATOM     18  C   UNL     1       0.191   1.993   5.974  0.00  0.00    +0.019 A 
ATOM     19  C   UNL     1      -0.538   2.247   4.806  0.00  0.00    +0.031 A 
ATOM     20  C   UNL     1      -0.705   3.543   4.369  0.00  0.00    +0.042 A 
ATOM     21  C   UNL     1      -0.155   4.598   5.082  0.00  0.00    +0.023 A 
ATOM     22  C   UNL     1       0.567   4.361   6.236  0.00  0.00    +0.047 A 
ATOM     23  C   UNL     1       0.741   3.066   6.694  0.00  0.00    +0.124 A 
ATOM     24 CL   UNL     1      -1.608   3.858   2.920  0.00  0.00    -0.084 Cl
BRANCH  23  25
ATOM     25  O   UNL     1       1.445   2.833   7.831  0.00  0.00    -0.506 OA
ATOM     26  H   UNL     1       2.393   2.703   7.687  0.00  0.00    +0.292 HD
ENDBRANCH  23  25
ENDBRANCH   7  18
TORSDOF 3
