REMARK  Name = ZINC16884482
REMARK  12 active torsions:
REMARK  status: ('A' for Active; 'I' for Inactive)
REMARK    1  A    between atoms: C_1  and  C_2
REMARK    2  A    between atoms: C_3  and  C_24
REMARK    3  A    between atoms: C_4  and  O_23
REMARK    4  A    between atoms: N_8  and  N_9
REMARK    5  A    between atoms: N_9  and  C_10
REMARK    6  A    between atoms: C_13  and  C_16
REMARK    7  A    between atoms: C_16  and  O_18
REMARK    8  A    between atoms: O_18  and  C_19
REMARK    9  A    between atoms: C_19  and  C_20
REMARK   10  A    between atoms: C_20  and  C_21
REMARK   11  A    between atoms: C_20  and  C_22
REMARK   12  A    between atoms: C_24  and  C_25
REMARK                            x       y       z     vdW  Elec       q    Type
REMARK                         _______ _______ _______ _____ _____    ______ ____
ROOT
ATOM      1  C   UNL     1       5.015  -6.811  -0.082  0.00  0.00    +0.066 C 
ATOM      2  C   UNL     1       3.685  -6.103  -0.065  0.00  0.00    +0.050 A 
ATOM      3  C   UNL     1       2.508  -6.827  -0.057  0.00  0.00    +0.039 A 
ATOM      4  C   UNL     1       1.299  -6.132  -0.042  0.00  0.00    +0.221 A 
ATOM      5  N   UNL     1       1.319  -4.805  -0.030  0.00  0.00    -0.178 NA
ATOM      6  C   UNL     1       2.468  -4.146  -0.043  0.00  0.00    +0.235 A 
ATOM      7  N   UNL     1       3.631  -4.780  -0.057  0.00  0.00    -0.218 NA
ATOM      8  N   UNL     1       2.452  -2.762  -0.036  0.00  0.00    -0.235 N 
ATOM      9  H   UNL     1       3.287  -2.268  -0.041  0.00  0.00    +0.173 HD
ENDROOT
BRANCH   8  10
ATOM     10  N   UNL     1       1.232  -2.075  -0.020  0.00  0.00    -0.264 N 
ATOM     11  H   UNL     1       0.397  -2.570  -0.015  0.00  0.00    +0.170 HD
BRANCH  10  12
ATOM     12  C   UNL     1       1.216  -0.685  -0.013  0.00  0.00    +0.044 A 
ATOM     13  C   UNL     1       0.002  -0.004   0.002  0.00  0.00    +0.025 A 
ATOM     14  C   UNL     1      -0.017   1.367   0.010  0.00  0.00    +0.017 A 
ATOM     15  C   UNL     1       1.186   2.081   0.002  0.00  0.00    +0.059 A 
ATOM     16  C   UNL     1       2.404   1.393  -0.013  0.00  0.00    +0.017 A 
ATOM     17  C   UNL     1       2.415   0.022  -0.021  0.00  0.00    +0.025 A 
BRANCH  15  18
ATOM     18  C   UNL     1       1.170   3.555   0.009  0.00  0.00    +0.339 C 
ATOM     19  O   UNL     1       0.111   4.151   0.022  0.00  0.00    -0.245 OA
BRANCH  18  20
ATOM     20  O   UNL     1       2.329   4.241   0.002  0.00  0.00    -0.461 OA
BRANCH  20  21
ATOM     21  C   UNL     1       2.237   5.690   0.010  0.00  0.00    +0.235 C 
BRANCH  21  22
ATOM     22  C   UNL     1       3.645   6.291   0.000  0.00  0.00    +0.020 C 
ATOM     23  C   UNL     1       4.341   5.937  -1.316  0.00  0.00    +0.010 C 
ATOM     24  C   UNL     1       3.551   7.812   0.134  0.00  0.00    +0.010 C 
ENDBRANCH  21  22
ENDBRANCH  20  21
ENDBRANCH  18  20
ENDBRANCH  15  18
ENDBRANCH  10  12
ENDBRANCH   8  10
BRANCH   4  25
ATOM     25  O   UNL     1       0.121  -6.803  -0.033  0.00  0.00    -0.492 OA
ATOM     26  H   UNL     1      -0.212  -7.001   0.852  0.00  0.00    +0.294 HD
ENDBRANCH   4  25
BRANCH   3  27
ATOM     27  C   UNL     1       2.530  -8.334  -0.065  0.00  0.00    +0.077 C 
BRANCH  27  28
ATOM     28  C   UNL     1       2.551  -8.844   1.353  0.00  0.00    -0.043 A 
ATOM     29  C   UNL     1       3.758  -9.065   1.990  0.00  0.00    +0.004 A 
ATOM     30  C   UNL     1       3.778  -9.528   3.292  0.00  0.00    +0.000 A 
ATOM     31  C   UNL     1       2.591  -9.780   3.954  0.00  0.00    +0.000 A 
ATOM     32  C   UNL     1       1.384  -9.564   3.316  0.00  0.00    +0.000 A 
ATOM     33  C   UNL     1       1.364  -9.095   2.015  0.00  0.00    +0.004 A 
ENDBRANCH  27  28
ENDBRANCH   3  27
TORSDOF 9
