REMARK  Name = ZINC36157256
REMARK  10 active torsions:
REMARK  status: ('A' for Active; 'I' for Inactive)
REMARK    1  A    between atoms: C_3  and  C_8
REMARK    2  A    between atoms: C_8  and  C_9
REMARK    3  A    between atoms: C_8  and  C_16
REMARK    4  A    between atoms: C_8  and  O_36
REMARK    5  A    between atoms: C_19  and  C_21
REMARK    6  A    between atoms: C_21  and  N_22
REMARK    7  A    between atoms: N_22  and  C_23
REMARK    8  A    between atoms: N_22  and  C_29
REMARK    9  A    between atoms: C_23  and  C_24
REMARK   10  A    between atoms: C_29  and  C_30
REMARK                            x       y       z     vdW  Elec       q    Type
REMARK                         _______ _______ _______ _____ _____    ______ ____
ROOT
ATOM      1  C   UNL     1       4.303   3.407  -1.353  0.00  0.00    +0.146 A 
ATOM      2  C   UNL     1       5.209   4.401  -1.311  0.00  0.00    +0.048 A 
ATOM      3  C   UNL     1       5.796   4.475  -2.595  0.00  0.00    +0.043 A 
ATOM      4  C   UNL     1       5.214   3.521  -3.345  0.00  0.00    +0.089 A 
ATOM      5  O   UNL     1       4.315   2.874  -2.585  0.00  0.00    -0.463 OA
ENDROOT
BRANCH   1   6
ATOM      6  C   UNL     1       3.429   2.963  -0.208  0.00  0.00    +0.174 C 
BRANCH   6   9
ATOM      7  C   UNL     1       0.956   0.768  -2.031  0.00  0.00    +0.003 A 
ATOM      8  C   UNL     1       2.142   1.274  -1.534  0.00  0.00    +0.007 A 
ATOM      9  C   UNL     1       2.135   2.413  -0.750  0.00  0.00    -0.002 A 
ATOM     10  C   UNL     1       0.941   3.046  -0.462  0.00  0.00    +0.045 A 
ATOM     11  C   UNL     1      -0.248   2.539  -0.959  0.00  0.00    +0.124 A 
ATOM     12  C   UNL     1      -0.239   1.399  -1.745  0.00  0.00    +0.038 A 
ATOM     13  F   UNL     1      -1.417   3.157  -0.678  0.00  0.00    -0.205 F 
ENDBRANCH   6   9
BRANCH   6  14
ATOM     14  C   UNL     1       4.139   1.893   0.581  0.00  0.00    -0.002 A 
ATOM     15  C   UNL     1       4.821   0.887  -0.078  0.00  0.00    +0.007 A 
ATOM     16  C   UNL     1       5.473  -0.095   0.645  0.00  0.00    +0.003 A 
ATOM     17  C   UNL     1       5.443  -0.072   2.026  0.00  0.00    +0.038 A 
ATOM     18  C   UNL     1       4.760   0.935   2.687  0.00  0.00    +0.124 A 
ATOM     19  C   UNL     1       4.112   1.921   1.962  0.00  0.00    +0.045 A 
ATOM     20  F   UNL     1       4.729   0.958   4.037  0.00  0.00    -0.205 F 
ENDBRANCH   6  14
BRANCH   6  21
ATOM     21  O   UNL     1       3.154   4.078   0.641  0.00  0.00    -0.372 OA
ATOM     22  H   UNL     1       3.943   4.484   1.026  0.00  0.00    +0.212 HD
ENDBRANCH   6  21
ENDBRANCH   1   6
BRANCH   4  23
ATOM     23  C   UNL     1       5.523   3.226  -4.790  0.00  0.00    -0.002 C 
BRANCH  23  24
ATOM     24  N   UNL     1       6.606   2.237  -4.867  0.00  0.00    +0.391 N 
ATOM     25  H   UNL     1       7.395   2.560  -4.326  0.00  0.00    -0.080 HD
BRANCH  24  26
ATOM     26  C   UNL     1       7.012   2.063  -6.268  0.00  0.00    -0.002 C 
BRANCH  26  27
ATOM     27  C   UNL     1       7.504   3.378  -6.815  0.00  0.00    +0.089 A 
ATOM     28  C   UNL     1       8.774   3.820  -6.779  0.00  0.00    +0.042 A 
ATOM     29  C   UNL     1       8.784   5.090  -7.400  0.00  0.00    +0.041 A 
ATOM     30  C   UNL     1       7.519   5.349  -7.779  0.00  0.00    +0.195 A 
ATOM     31  O   UNL     1       6.749   4.306  -7.427  0.00  0.00    -0.470 OA
ENDBRANCH  26  27
ENDBRANCH  24  26
BRANCH  24  32
ATOM     32  C   UNL     1       6.137   0.953  -4.330  0.00  0.00    -0.046 C 
BRANCH  32  33
ATOM     33  C   UNL     1       7.315  -0.017  -4.225  0.00  0.00    +0.102 C 
ATOM     34  C   UNL     1       6.870  -1.331  -3.534  0.00  0.00    +0.032 C 
ATOM     35  C   UNL     1       7.919  -2.329  -4.096  0.00  0.00    +0.030 C 
ATOM     36  C   UNL     1       8.156  -1.787  -5.521  0.00  0.00    +0.160 C 
ATOM     37  O   UNL     1       7.755  -0.411  -5.535  0.00  0.00    -0.378 OA
ENDBRANCH  32  33
ENDBRANCH  24  32
ENDBRANCH  23  24
ENDBRANCH   4  23
TORSDOF 10
