REMARK  Name = ZINC40136637
REMARK  12 active torsions:
REMARK  status: ('A' for Active; 'I' for Inactive)
REMARK    1  A    between atoms: C_1  and  C_2
REMARK    2  A    between atoms: C_2  and  C_3
REMARK    3  A    between atoms: C_3  and  C_5
REMARK    4  A    between atoms: C_3  and  O_30
REMARK    5  A    between atoms: C_5  and  O_7
REMARK    6  A    between atoms: O_7  and  C_8
REMARK    7  A    between atoms: C_11  and  C_17
REMARK    8  A    between atoms: C_13  and  O_14
REMARK    9  A    between atoms: O_14  and  C_15
REMARK   10  A    between atoms: C_15  and  C_16
REMARK   11  A    between atoms: C_24  and  C_28
REMARK   12  A    between atoms: O_30  and  C_31
REMARK                            x       y       z     vdW  Elec       q    Type
REMARK                         _______ _______ _______ _____ _____    ______ ____
ROOT
ATOM      1  C   UNL     1      -1.441  -3.913   1.598  0.00  0.00    +0.173 A 
ATOM      2  C   UNL     1      -1.876  -4.731   0.562  0.00  0.00    +0.051 A 
ATOM      3  C   UNL     1      -2.135  -6.063   0.794  0.00  0.00    +0.012 A 
ATOM      4  C   UNL     1      -1.960  -6.597   2.078  0.00  0.00    -0.018 A 
ATOM      5  C   UNL     1      -1.522  -5.772   3.121  0.00  0.00    +0.057 A 
ATOM      6  C   UNL     1      -1.259  -4.438   2.877  0.00  0.00    +0.163 A 
ENDROOT
BRANCH   4   7
ATOM      7  C   UNL     1      -2.236  -8.017   2.328  0.00  0.00    +0.058 C 
ATOM      8  C   UNL     1      -2.777  -8.787   1.349  0.00  0.00    +0.176 C 
ATOM      9  C   UNL     1      -3.213 -10.184   1.483  0.00  0.00    +0.231 C 
ATOM     10  O   UNL     1      -3.169 -10.887   2.478  0.00  0.00    -0.283 OA
ATOM     11  C   UNL     1      -3.717 -10.544   0.143  0.00  0.00    +0.069 A 
ATOM     12  C   UNL     1      -4.265 -11.710  -0.388  0.00  0.00    +0.035 A 
ATOM     13  C   UNL     1      -4.652 -11.742  -1.712  0.00  0.00    +0.045 A 
ATOM     14  C   UNL     1      -4.497 -10.616  -2.508  0.00  0.00    -0.029 A 
ATOM     15  C   UNL     1      -3.956  -9.458  -1.991  0.00  0.00    +0.051 A 
ATOM     16  C   UNL     1      -3.558  -9.404  -0.658  0.00  0.00    +0.140 A 
ATOM     17  O   UNL     1      -3.017  -8.405   0.072  0.00  0.00    -0.451 OA
ATOM     18  C   UNL     1      -4.923 -10.660  -3.953  0.00  0.00    +0.045 C 
ATOM     19 CL   UNL     1      -5.335 -13.190  -2.382  0.00  0.00    -0.083 Cl
ENDBRANCH   4   7
BRANCH   1  20
ATOM     20  O   UNL     1      -1.187  -2.600   1.363  0.00  0.00    -0.420 OA
BRANCH  20  21
ATOM     21  C   UNL     1       0.079  -2.240   1.098  0.00  0.00    +0.354 C 
ATOM     22  O   UNL     1       0.936  -3.085   0.983  0.00  0.00    -0.246 OA
BRANCH  21  23
ATOM     23  C   UNL     1       0.433  -0.783   0.946  0.00  0.00    +0.281 C 
BRANCH  23  25
ATOM     24  C   UNL     1       0.456   1.436   2.095  0.00  0.00    +0.008 C 
ATOM     25  C   UNL     1       0.217  -0.064   2.280  0.00  0.00    +0.053 C 
ENDBRANCH  23  25
BRANCH  23  26
ATOM     26  O   UNL     1       1.802  -0.663   0.557  0.00  0.00    -0.478 OA
BRANCH  26  27
ATOM     27  C   UNL     1       2.103   0.301  -0.353  0.00  0.00    +0.122 A 
ATOM     28  C   UNL     1       3.389   0.396  -0.865  0.00  0.00    +0.048 A 
ATOM     29  C   UNL     1       3.693   1.376  -1.790  0.00  0.00    +0.042 A 
ATOM     30  C   UNL     1       2.715   2.265  -2.204  0.00  0.00    +0.124 A 
ATOM     31  C   UNL     1       1.432   2.171  -1.694  0.00  0.00    +0.042 A 
ATOM     32  C   UNL     1       1.123   1.188  -0.774  0.00  0.00    +0.048 A 
ATOM     33  F   UNL     1       3.014   3.223  -3.108  0.00  0.00    -0.205 F 
ENDBRANCH  26  27
ENDBRANCH  23  26
ENDBRANCH  21  23
ENDBRANCH  20  21
ENDBRANCH   1  20
BRANCH   6  34
ATOM     34  O   UNL     1      -0.828  -3.635   3.886  0.00  0.00    -0.489 OA
BRANCH  34  35
ATOM     35  C   UNL     1      -0.664  -4.239   5.171  0.00  0.00    +0.226 C 
ATOM     36  C   UNL     1      -0.177  -3.188   6.170  0.00  0.00    +0.048 C 
ENDBRANCH  34  35
ENDBRANCH   6  34
TORSDOF 9
