REMARK  Name = ZINC58949600
REMARK  7 active torsions:
REMARK  status: ('A' for Active; 'I' for Inactive)
REMARK    1  A    between atoms: C_1  and  C_2
REMARK    2  A    between atoms: N_7  and  C_9
REMARK    3  A    between atoms: C_9  and  C_10
REMARK    4  A    between atoms: C_13  and  C_16
REMARK    5  A    between atoms: C_16  and  N_17
REMARK    6  A    between atoms: C_18  and  C_20
REMARK    7  A    between atoms: N_25  and  C_27
REMARK                            x       y       z     vdW  Elec       q    Type
REMARK                         _______ _______ _______ _____ _____    ______ ____
ROOT
ATOM      1  N   UNL     1       1.354  -8.707   0.916  0.00  0.00    -0.311 N 
ATOM      2  C   UNL     1       1.338 -10.027   0.644  0.00  0.00    +0.218 C 
ATOM      3  O   UNL     1       1.879 -10.808   1.397  0.00  0.00    -0.275 OA
ATOM      4  H   UNL     1       0.921  -8.082   0.313  0.00  0.00    +0.149 HD
ENDROOT
BRANCH   2   5
ATOM      5  C   UNL     1       0.647 -10.532  -0.597  0.00  0.00    +0.101 C 
ATOM      6  C   UNL     1      -0.873 -10.259  -0.533  0.00  0.00    +0.110 C 
ATOM      7  C   UNL     1      -1.496 -11.478  -1.179  0.00  0.00    +0.221 C 
ATOM      8  O   UNL     1      -2.638 -11.544  -1.581  0.00  0.00    -0.275 OA
ATOM      9  N   UNL     1      -0.598 -12.476  -1.243  0.00  0.00    -0.271 N 
ATOM     10  C   UNL     1       0.689 -12.075  -0.663  0.00  0.00    +0.127 C 
BRANCH   9  11
ATOM     11  C   UNL     1      -0.857 -13.738  -1.794  0.00  0.00    +0.040 A 
ATOM     12  C   UNL     1       0.168 -14.666  -1.917  0.00  0.00    +0.027 A 
ATOM     13  C   UNL     1      -0.086 -15.911  -2.459  0.00  0.00    +0.051 A 
ATOM     14  C   UNL     1      -1.365 -16.237  -2.883  0.00  0.00    +0.166 A 
ATOM     15  C   UNL     1      -2.395 -15.308  -2.761  0.00  0.00    +0.168 A 
ATOM     16  C   UNL     1      -2.141 -14.063  -2.212  0.00  0.00    +0.073 A 
ATOM     17  O   UNL     1      -3.544 -15.865  -3.245  0.00  0.00    -0.453 OA
ATOM     18  C   UNL     1      -3.122 -16.990  -4.038  0.00  0.00    +0.466 C 
ATOM     19  O   UNL     1      -1.868 -17.376  -3.443  0.00  0.00    -0.453 OA
ENDBRANCH   9  11
ENDBRANCH   2   5
BRANCH   1  20
ATOM     20  C   UNL     1       2.025  -8.215   2.122  0.00  0.00    +0.139 C 
BRANCH  20  24
ATOM     21  C   UNL     1       1.668  -3.963   2.321  0.00  0.00    -0.064 A 
ATOM     22  C   UNL     1       0.704  -4.766   2.902  0.00  0.00    +0.002 A 
ATOM     23  C   UNL     1       0.820  -6.142   2.838  0.00  0.00    +0.005 A 
ATOM     24  C   UNL     1       1.898  -6.715   2.191  0.00  0.00    -0.030 A 
ATOM     25  C   UNL     1       2.861  -5.913   1.609  0.00  0.00    +0.005 A 
ATOM     26  C   UNL     1       2.744  -4.537   1.670  0.00  0.00    +0.002 A 
BRANCH  21  27
ATOM     27  C   UNL     1       1.542  -2.463   2.391  0.00  0.00    -0.043 C 
BRANCH  27  33
ATOM     28  C   UNL     1       0.036   1.526  -0.015  0.00  0.00    +0.005 C 
ATOM     29  C   UNL     1       0.049  -0.004  -0.020  0.00  0.00    -0.031 C 
ATOM     30  C   UNL     1      -1.390  -0.528  -0.021  0.00  0.00    -0.001 C 
ATOM     31  C   UNL     1      -1.366  -2.058   0.053  0.00  0.00    -0.018 C 
ATOM     32  C   UNL     1      -0.593  -2.490   1.301  0.00  0.00    -0.078 C 
ATOM     33  N   UNL     1       0.782  -1.981   1.230  0.00  0.00    +0.383 N 
ATOM     34  C   UNL     1       0.771  -0.513   1.230  0.00  0.00    -0.075 C 
ATOM     35  H   UNL     1       1.219  -2.312   0.383  0.00  0.00    -0.081 HD
ENDBRANCH  27  33
ENDBRANCH  21  27
ENDBRANCH  20  24
ENDBRANCH   1  20
TORSDOF 6
