REMARK  Name = ZINC04045335
REMARK  2 active torsions:
REMARK  status: ('A' for Active; 'I' for Inactive)
REMARK    1  A    between atoms: C_1  and  C_2
REMARK    2  A    between atoms: N_10  and  C_13
REMARK                            x       y       z     vdW  Elec       q    Type
REMARK                         _______ _______ _______ _____ _____    ______ ____
ROOT
ATOM      1  C   UNL     1       3.286  -1.596  -2.463  0.00  0.00    -0.013 C 
ATOM      2  C   UNL     1       4.183  -1.459  -1.231  0.00  0.00    -0.060 C 
ATOM      3  C   UNL     1       4.304   0.023  -0.817  0.00  0.00    +0.073 C 
ATOM      4  C   UNL     1       4.314   0.004   0.737  0.00  0.00    +0.088 C 
ATOM      5  C   UNL     1       3.040   0.732   1.102  0.00  0.00    +0.229 C 
ATOM      6  O   UNL     1       2.660   0.956   2.231  0.00  0.00    -0.275 OA
ATOM      7  N   UNL     1       2.396   1.088  -0.015  0.00  0.00    -0.209 N 
ATOM      8  C   UNL     1       3.016   0.741  -1.149  0.00  0.00    +0.228 C 
ATOM      9  O   UNL     1       2.608   0.966  -2.268  0.00  0.00    -0.275 OA
ATOM     10  C   UNL     1       4.187  -1.480   1.105  0.00  0.00    +0.050 C 
ATOM     11  C   UNL     1       3.369  -1.671   2.350  0.00  0.00    -0.028 A 
ATOM     12  C   UNL     1       2.078  -1.341   2.696  0.00  0.00    +0.004 A 
ATOM     13  C   UNL     1       1.596  -1.657   3.954  0.00  0.00    +0.000 A 
ATOM     14  C   UNL     1       2.414  -2.305   4.862  0.00  0.00    +0.002 A 
ATOM     15  C   UNL     1       3.708  -2.638   4.520  0.00  0.00    +0.023 A 
ATOM     16  C   UNL     1       4.201  -2.323   3.256  0.00  0.00    +0.036 A 
ATOM     17  N   UNL     1       5.454  -2.551   2.682  0.00  0.00    -0.286 N 
ATOM     18  C   UNL     1       5.528  -2.085   1.421  0.00  0.00    +0.211 C 
ATOM     19  O   UNL     1       6.488  -2.142   0.682  0.00  0.00    -0.277 OA
ATOM     20  H   UNL     1       6.186  -2.993   3.140  0.00  0.00    +0.155 HD
ATOM     21  N   UNL     1       3.588  -2.107  -0.060  0.00  0.00    +0.394 N 
ATOM     22  H   UNL     1       3.794  -3.113  -0.068  0.00  0.00    -0.083 HD
ATOM     23  H   UNL     1       2.571  -1.966  -0.055  0.00  0.00    -0.083 HD
ENDROOT
BRANCH   7  24
ATOM     24  C   UNL     1       1.176   1.773   0.000  0.00  0.00    +0.052 A 
ATOM     25  C   UNL     1      -0.013   1.076   0.008  0.00  0.00    +0.024 A 
ATOM     26  C   UNL     1      -1.232   1.747   0.017  0.00  0.00    +0.002 A 
ATOM     27  C   UNL     1      -1.285   3.108   0.031  0.00  0.00    +0.008 A 
ATOM     28  C   UNL     1      -0.095   3.856   0.024  0.00  0.00    -0.016 A 
ATOM     29  C   UNL     1       1.151   3.183   0.008  0.00  0.00    +0.004 A 
ATOM     30  C   UNL     1       2.339   3.932   0.000  0.00  0.00    +0.010 A 
ATOM     31  C   UNL     1       2.278   5.292   0.008  0.00  0.00    +0.001 A 
ATOM     32  C   UNL     1       1.052   5.955   0.024  0.00  0.00    +0.001 A 
ATOM     33  C   UNL     1      -0.119   5.261   0.032  0.00  0.00    +0.008 A 
ENDBRANCH   7  24
TORSDOF 1
