REMARK  Name = ZINC52909822
REMARK  12 active torsions:
REMARK  status: ('A' for Active; 'I' for Inactive)
REMARK    1  A    between atoms: C_1  and  C_2
REMARK    2  A    between atoms: C_4  and  C_28
REMARK    3  A    between atoms: C_6  and  N_8
REMARK    4  A    between atoms: C_9  and  C_11
REMARK    5  A    between atoms: C_11  and  C_13
REMARK    6  A    between atoms: C_11  and  N_14
REMARK    7  A    between atoms: C_17  and  N_20
REMARK    8  A    between atoms: C_21  and  O_23
REMARK    9  A    between atoms: O_23  and  C_24
REMARK   10  A    between atoms: C_24  and  C_25
REMARK   11  A    between atoms: C_24  and  C_26
REMARK   12  A    between atoms: C_24  and  C_27
REMARK                            x       y       z     vdW  Elec       q    Type
REMARK                         _______ _______ _______ _____ _____    ______ ____
ROOT
ATOM      1  N   UNL     1       0.249  -1.962   5.984  0.00  0.00    +0.387 N 
ATOM      2  C   UNL     1      -0.963  -1.139   5.902  0.00  0.00    -0.076 C 
ATOM      3  C   UNL     1      -0.960  -0.106   7.031  0.00  0.00    +0.004 C 
ATOM      4  C   UNL     1      -0.924  -0.831   8.379  0.00  0.00    +0.073 C 
ATOM      5  C   UNL     1       0.305  -1.744   8.424  0.00  0.00    +0.004 C 
ATOM      6  C   UNL     1       0.256  -2.716   7.244  0.00  0.00    -0.076 C 
ATOM      7  H   UNL     1       1.062  -1.365   5.947  0.00  0.00    -0.081 HD
ENDROOT
BRANCH   4   8
ATOM      8  N   UNL     1      -0.844   0.152   9.463  0.00  0.00    -0.278 N 
ATOM      9  C   UNL     1      -1.293  -0.164  10.693  0.00  0.00    +0.401 C 
ATOM     10  O   UNL     1      -1.765  -1.264  10.904  0.00  0.00    -0.226 OA
ATOM     11  H   UNL     1      -0.467   1.030   9.294  0.00  0.00    +0.152 HD
BRANCH   9  12
ATOM     12  O   UNL     1      -1.220   0.740  11.689  0.00  0.00    -0.445 OA
BRANCH  12  13
ATOM     13  C   UNL     1      -1.715   0.338  12.967  0.00  0.00    +0.107 C 
ATOM     14  C   UNL     1      -0.930  -0.880  13.459  0.00  0.00    +0.055 C 
ATOM     15  C   UNL     1      -1.549   1.487  13.963  0.00  0.00    +0.055 C 
ATOM     16  C   UNL     1      -3.197  -0.025  12.850  0.00  0.00    +0.055 C 
ENDBRANCH  12  13
ENDBRANCH   9  12
ENDBRANCH   4   8
BRANCH   1  17
ATOM     17  C   UNL     1       0.280  -2.900   4.854  0.00  0.00    +0.016 C 
ATOM     18  C   UNL     1       1.570  -3.722   4.907  0.00  0.00    -0.004 C 
BRANCH  17  20
ATOM     19  N   UNL     1      -0.318  -2.689   2.463  0.00  0.00    -0.287 N 
ATOM     20  C   UNL     1       0.229  -2.129   3.560  0.00  0.00    +0.203 C 
ATOM     21  O   UNL     1       0.681  -1.005   3.506  0.00  0.00    -0.277 OA
ATOM     22  H   UNL     1      -0.742  -3.559   2.523  0.00  0.00    +0.155 HD
BRANCH  19  28
ATOM     23  C   UNL     1      -2.398  -1.643  -1.867  0.00  0.00    +0.044 C 
ATOM     24  C   UNL     1      -1.270  -1.490  -0.880  0.00  0.00    -0.048 A 
ATOM     25  C   UNL     1      -0.191  -0.681  -1.185  0.00  0.00    +0.006 A 
ATOM     26  C   UNL     1       0.847  -0.538  -0.282  0.00  0.00    -0.048 A 
ATOM     27  C   UNL     1       0.807  -1.202   0.928  0.00  0.00    +0.026 A 
ATOM     28  C   UNL     1      -0.276  -2.014   1.238  0.00  0.00    +0.034 A 
ATOM     29  C   UNL     1      -1.318  -2.152   0.331  0.00  0.00    +0.026 A 
ATOM     30  C   UNL     1       2.021   0.344  -0.619  0.00  0.00    +0.044 C 
ENDBRANCH  19  28
ENDBRANCH  17  20
ENDBRANCH   1  17
TORSDOF 6
