REMARK  Name = ZINC66220198
REMARK  5 active torsions:
REMARK  status: ('A' for Active; 'I' for Inactive)
REMARK    1  A    between atoms: C_1  and  C_2
REMARK    2  A    between atoms: C_10  and  C_11
REMARK    3  A    between atoms: N_13  and  N_14
REMARK    4  A    between atoms: N_17  and  C_18
REMARK    5  A    between atoms: C_18  and  C_22
REMARK                            x       y       z     vdW  Elec       q    Type
REMARK                         _______ _______ _______ _____ _____    ______ ____
ROOT
ATOM      1  N   UNL     1       0.060  -0.872   4.806  0.00  0.00    -0.218 N 
ATOM      2  C   UNL     1       0.077  -1.778   5.803  0.00  0.00    +0.317 C 
ATOM      3  O   UNL     1       0.070  -1.408   6.962  0.00  0.00    -0.251 OA
ATOM      4  N   UNL     1       0.100  -3.095   5.517  0.00  0.00    -0.289 N 
ATOM      5  H   UNL     1       0.043   0.076   5.013  0.00  0.00    +0.174 HD
ATOM      6  H   UNL     1       0.029  -3.392   4.596  0.00  0.00    +0.151 HD
ENDROOT
BRANCH   1   9
ATOM      7  C   UNL     1       0.051  -0.391   2.475  0.00  0.00    +0.296 C 
ATOM      8  O   UNL     1       0.030   0.797   2.733  0.00  0.00    -0.265 OA
ATOM      9  N   UNL     1       0.068  -1.298   3.472  0.00  0.00    -0.227 N 
ATOM     10  H   UNL     1       0.085  -2.246   3.265  0.00  0.00    +0.173 HD
BRANCH   7  20
ATOM     11  C   UNL     1       0.017   1.488  -0.003  0.00  0.00    +0.048 C 
ATOM     12  C   UNL     1       0.044  -0.019  -0.008  0.00  0.00    +0.008 A 
ATOM     13  C   UNL     1       0.066  -0.894  -1.179  0.00  0.00    +0.024 A 
ATOM     14  C   UNL     1       0.069  -0.674  -2.559  0.00  0.00    +0.012 A 
ATOM     15  C   UNL     1       0.093  -1.739  -3.414  0.00  0.00    +0.001 A 
ATOM     16  C   UNL     1       0.113  -3.037  -2.921  0.00  0.00    +0.004 A 
ATOM     17  C   UNL     1       0.110  -3.275  -1.564  0.00  0.00    +0.047 A 
ATOM     18  C   UNL     1       0.087  -2.207  -0.674  0.00  0.00    +0.136 A 
ATOM     19  O   UNL     1       0.078  -2.126   0.671  0.00  0.00    -0.450 OA
ATOM     20  C   UNL     1       0.059  -0.839   1.075  0.00  0.00    +0.195 A 
ENDBRANCH   7  20
ENDBRANCH   1   9
BRANCH   4  21
ATOM     21  C   UNL     1       0.233  -4.077   6.596  0.00  0.00    +0.061 C 
ATOM     22  C   UNL     1      -0.188  -5.499   6.189  0.00  0.00    +0.031 C 
ATOM     23  C   UNL     1      -1.610  -5.122   6.636  0.00  0.00    +0.005 C 
ATOM     24  C   UNL     1      -0.957  -4.088   7.569  0.00  0.00    +0.031 C 
BRANCH  21  25
ATOM     25  C   UNL     1       1.574  -4.015   7.281  0.00  0.00    -0.024 A 
ATOM     26  C   UNL     1       1.757  -4.644   8.498  0.00  0.00    +0.006 A 
ATOM     27  C   UNL     1       2.987  -4.587   9.128  0.00  0.00    +0.000 A 
ATOM     28  C   UNL     1       4.033  -3.902   8.539  0.00  0.00    +0.000 A 
ATOM     29  C   UNL     1       3.850  -3.274   7.321  0.00  0.00    +0.000 A 
ATOM     30  C   UNL     1       2.622  -3.334   6.690  0.00  0.00    +0.006 A 
ENDBRANCH  21  25
ENDBRANCH   4  21
TORSDOF 4
