REMARK  Name = ZINC39839225
REMARK  8 active torsions:
REMARK  status: ('A' for Active; 'I' for Inactive)
REMARK    1  A    between atoms: C_1  and  C_2
REMARK    2  A    between atoms: C_2  and  O_3
REMARK    3  A    between atoms: O_3  and  C_4
REMARK    4  A    between atoms: C_6  and  C_11
REMARK    5  A    between atoms: C_9  and  O_10
REMARK    6  A    between atoms: C_18  and  C_34
REMARK    7  A    between atoms: N_26  and  C_27
REMARK    8  A    between atoms: C_27  and  C_28
REMARK                            x       y       z     vdW  Elec       q    Type
REMARK                         _______ _______ _______ _____ _____    ______ ____
ROOT
ATOM      1  C   UNL     1      -0.068  -4.659  -0.529  0.00  0.00    +0.145 C 
ATOM      2  C   UNL     1      -1.362  -5.153   0.027  0.00  0.00    +0.072 A 
ATOM      3  C   UNL     1      -2.542  -4.432   0.518  0.00  0.00    +0.199 A 
ATOM      4  O   UNL     1      -2.697  -3.232   0.376  0.00  0.00    -0.287 OA
ATOM      5  C   UNL     1      -3.528  -5.304   1.204  0.00  0.00    +0.065 A 
ATOM      6  C   UNL     1      -4.602  -4.747   1.898  0.00  0.00    +0.018 A 
ATOM      7  C   UNL     1      -5.499  -5.563   2.529  0.00  0.00    -0.050 A 
ATOM      8  C   UNL     1      -5.343  -6.942   2.481  0.00  0.00    +0.007 A 
ATOM      9  C   UNL     1      -4.290  -7.509   1.800  0.00  0.00    +0.047 A 
ATOM     10  C   UNL     1      -3.363  -6.698   1.145  0.00  0.00    +0.139 A 
ATOM     11  O   UNL     1      -2.342  -7.277   0.473  0.00  0.00    -0.450 OA
ATOM     12  C   UNL     1      -1.319  -6.519   0.033  0.00  0.00    +0.199 A 
ATOM     13  C   UNL     1      -0.013  -6.941  -0.504  0.00  0.00    +0.283 C 
ATOM     14  O   UNL     1       0.347  -8.095  -0.630  0.00  0.00    -0.267 OA
ATOM     15  N   UNL     1       0.724  -5.861  -0.837  0.00  0.00    -0.281 N 
ATOM     16  C   UNL     1      -6.660  -4.965   3.280  0.00  0.00    +0.044 C 
ENDROOT
BRANCH   1  19
ATOM     17  C   UNL     1       1.395  -1.665   1.252  0.00  0.00    +0.162 A 
ATOM     18  C   UNL     1       0.737  -2.444   0.314  0.00  0.00    +0.055 A 
ATOM     19  C   UNL     1       0.647  -3.812   0.492  0.00  0.00    -0.019 A 
ATOM     20  C   UNL     1       1.212  -4.406   1.606  0.00  0.00    +0.009 A 
ATOM     21  C   UNL     1       1.869  -3.634   2.546  0.00  0.00    +0.049 A 
ATOM     22  C   UNL     1       1.968  -2.263   2.370  0.00  0.00    +0.158 A 
BRANCH  22  23
ATOM     23  O   UNL     1       2.619  -1.503   3.291  0.00  0.00    -0.503 OA
ATOM     24  H   UNL     1       2.052  -1.175   4.003  0.00  0.00    +0.292 HD
ENDBRANCH  22  23
BRANCH  17  25
ATOM     25  O   UNL     1       1.484  -0.319   1.078  0.00  0.00    -0.489 OA
BRANCH  25  27
ATOM     26  C   UNL     1       1.075   1.742  -0.116  0.00  0.00    +0.048 C 
ATOM     27  C   UNL     1       0.872   0.225  -0.093  0.00  0.00    +0.226 C 
ENDBRANCH  25  27
ENDBRANCH  17  25
ENDBRANCH   1  19
BRANCH  15  28
ATOM     28  C   UNL     1       2.075  -5.879  -1.405  0.00  0.00    +0.140 C 
BRANCH  28  29
ATOM     29  C   UNL     1       1.988  -5.781  -2.929  0.00  0.00    +0.136 C 
ATOM     30  C   UNL     1       3.409  -5.766  -3.549  0.00  0.00    +0.035 C 
ATOM     31  C   UNL     1       3.115  -6.308  -4.974  0.00  0.00    +0.031 C 
ATOM     32  C   UNL     1       1.969  -7.309  -4.714  0.00  0.00    +0.160 C 
ATOM     33  O   UNL     1       1.354  -6.952  -3.469  0.00  0.00    -0.375 OA
ENDBRANCH  28  29
ENDBRANCH  15  28
TORSDOF 6
