REMARK  Name = ZINC50102117
REMARK  5 active torsions:
REMARK  status: ('A' for Active; 'I' for Inactive)
REMARK    1  A    between atoms: C_4  and  N_21
REMARK    2  A    between atoms: C_5  and  C_7
REMARK    3  A    between atoms: C_7  and  S_8
REMARK    4  A    between atoms: S_8  and  N_11
REMARK    5  A    between atoms: N_11  and  C_12
REMARK                            x       y       z     vdW  Elec       q    Type
REMARK                         _______ _______ _______ _____ _____    ______ ____
ROOT
ATOM      1  S   UNL     1       1.306  -2.813   1.782  0.00  0.00    +0.047 S 
ATOM      2  O   UNL     1       2.532  -2.572   2.460  0.00  0.00    -0.155 OA
ATOM      3  O   UNL     1       0.064  -2.510   2.403  0.00  0.00    -0.155 OA
ENDROOT
BRANCH   1   4
ATOM      4  N   UNL     1       1.270  -4.451   1.543  0.00  0.00    -0.219 N 
ATOM      5  H   UNL     1       0.521  -4.973   1.870  0.00  0.00    +0.173 HD
BRANCH   4   6
ATOM      6  C   UNL     1       2.321  -5.082   0.870  0.00  0.00    +0.067 A 
ATOM      7  C   UNL     1       3.623  -4.629   1.033  0.00  0.00    +0.047 A 
ATOM      8  C   UNL     1       4.660  -5.255   0.366  0.00  0.00    +0.061 A 
ATOM      9  C   UNL     1       4.400  -6.332  -0.464  0.00  0.00    +0.061 A 
ATOM     10  C   UNL     1       3.104  -6.785  -0.629  0.00  0.00    +0.043 A 
ATOM     11  C   UNL     1       2.064  -6.167   0.041  0.00  0.00    +0.065 A 
ATOM     12 CL   UNL     1       0.438  -6.741  -0.160  0.00  0.00    -0.082 Cl
ATOM     13 CL   UNL     1       5.705  -7.116  -1.300  0.00  0.00    -0.082 Cl
ATOM     14 CL   UNL     1       6.289  -4.689   0.570  0.00  0.00    -0.082 Cl
ENDBRANCH   4   6
ENDBRANCH   1   4
BRANCH   1  15
ATOM     15  C   UNL     1       1.363  -2.099   0.116  0.00  0.00    +0.225 C 
BRANCH  15  20
ATOM     16  C   UNL     1       0.251   1.503   0.320  0.00  0.00    +0.000 A 
ATOM     17  C   UNL     1       1.462   2.167   0.393  0.00  0.00    +0.002 A 
ATOM     18  C   UNL     1       2.644   1.454   0.377  0.00  0.00    +0.023 A 
ATOM     19  C   UNL     1       2.616   0.068   0.287  0.00  0.00    +0.029 A 
ATOM     20  C   UNL     1       1.398  -0.596   0.214  0.00  0.00    -0.004 A 
ATOM     21  C   UNL     1       0.219   0.124   0.231  0.00  0.00    +0.007 A 
BRANCH  19  22
ATOM     22  N   UNL     1       3.810  -0.657   0.270  0.00  0.00    -0.358 N 
ATOM     23  H   UNL     1       4.660  -0.193   0.320  0.00  0.00    +0.142 HD
ATOM     24  H   UNL     1       3.789  -1.625   0.207  0.00  0.00    +0.142 HD
ENDBRANCH  19  22
ENDBRANCH  15  20
ENDBRANCH   1  15
TORSDOF 5
