REMARK  Name = ZINC63314203
REMARK  12 active torsions:
REMARK  status: ('A' for Active; 'I' for Inactive)
REMARK    1  A    between atoms: C_1  and  O_2
REMARK    2  A    between atoms: O_2  and  C_3
REMARK    3  A    between atoms: C_6  and  C_9
REMARK    4  A    between atoms: C_11  and  C_33
REMARK    5  A    between atoms: N_13  and  C_20
REMARK    6  A    between atoms: C_20  and  C_21
REMARK    7  A    between atoms: C_21  and  C_22
REMARK    8  A    between atoms: C_25  and  O_31
REMARK    9  A    between atoms: O_31  and  C_32
REMARK   10  A    between atoms: C_36  and  O_41
REMARK   11  A    between atoms: C_37  and  O_39
REMARK   12  A    between atoms: O_39  and  C_40
REMARK                            x       y       z     vdW  Elec       q    Type
REMARK                         _______ _______ _______ _____ _____    ______ ____
ROOT
ATOM      1  C   UNL     1       2.496  -2.494  -4.366  0.00  0.00    +0.097 C 
ATOM      2  C   UNL     1       2.592  -3.799  -4.532  0.00  0.00    +0.017 C 
ATOM      3  C   UNL     1       2.222  -5.253  -4.351  0.00  0.00    +0.137 C 
ATOM      4  N   UNL     1       2.034  -5.723  -5.747  0.00  0.00    -0.288 N 
ATOM      5  C   UNL     1       2.742  -4.928  -6.596  0.00  0.00    +0.247 C 
ATOM      6  O   UNL     1       2.756  -5.006  -7.806  0.00  0.00    -0.273 OA
ATOM      7  C   UNL     1       3.501  -3.940  -5.763  0.00  0.00    +0.244 C 
ATOM      8  N   UNL     1       3.610  -2.579  -6.247  0.00  0.00    -0.170 NA
ATOM      9  N   UNL     1       3.082  -1.834  -5.406  0.00  0.00    -0.153 NA
ENDROOT
BRANCH   1  13
ATOM     10  C   UNL     1       0.606  -0.607  -1.056  0.00  0.00    +0.120 A 
ATOM     11  C   UNL     1       1.173   0.164  -2.062  0.00  0.00    +0.046 A 
ATOM     12  C   UNL     1       1.786  -0.445  -3.136  0.00  0.00    +0.013 A 
ATOM     13  C   UNL     1       1.837  -1.836  -3.211  0.00  0.00    +0.002 A 
ATOM     14  C   UNL     1       1.267  -2.607  -2.199  0.00  0.00    +0.013 A 
ATOM     15  C   UNL     1       0.659  -1.993  -1.125  0.00  0.00    +0.046 A 
BRANCH  10  17
ATOM     16  C   UNL     1      -0.017   1.425   0.010  0.00  0.00    +0.277 C 
ATOM     17  O   UNL     1       0.002  -0.004   0.002  0.00  0.00    -0.495 OA
ENDBRANCH  10  17
ENDBRANCH   1  13
BRANCH   3  18
ATOM     18  C   UNL     1       3.338  -6.007  -3.676  0.00  0.00    -0.019 A 
ATOM     19  C   UNL     1       4.433  -6.423  -4.410  0.00  0.00    +0.009 A 
ATOM     20  C   UNL     1       5.459  -7.116  -3.795  0.00  0.00    +0.049 A 
ATOM     21  C   UNL     1       5.391  -7.394  -2.439  0.00  0.00    +0.158 A 
ATOM     22  C   UNL     1       4.290  -6.975  -1.700  0.00  0.00    +0.162 A 
ATOM     23  C   UNL     1       3.267  -6.277  -2.322  0.00  0.00    +0.055 A 
BRANCH  22  24
ATOM     24  O   UNL     1       4.219  -7.246  -0.369  0.00  0.00    -0.491 OA
ATOM     25  C   UNL     1       3.059  -6.785   0.326  0.00  0.00    +0.277 C 
ENDBRANCH  22  24
BRANCH  21  26
ATOM     26  O   UNL     1       6.400  -8.076  -1.833  0.00  0.00    -0.503 OA
ATOM     27  H   UNL     1       7.101  -7.510  -1.480  0.00  0.00    +0.292 HD
ENDBRANCH  21  26
ENDBRANCH   3  18
BRANCH   4  28
ATOM     28  C   UNL     1       1.213  -6.868  -6.148  0.00  0.00    +0.113 C 
BRANCH  28  29
ATOM     29  C   UNL     1      -0.216  -6.398  -6.427  0.00  0.00    +0.052 C 
BRANCH  29  30
ATOM     30  C   UNL     1      -1.060  -7.576  -6.840  0.00  0.00    -0.040 C 
ATOM     31  C   UNL     1      -1.854  -8.327  -6.043  0.00  0.00    +0.002 A 
ATOM     32  C   UNL     1      -2.157  -8.277  -4.609  0.00  0.00    +0.055 A 
ATOM     33  C   UNL     1      -3.010  -9.183  -4.075  0.00  0.00    +0.121 A 
ATOM     34  C   UNL     1      -3.625 -10.182  -4.850  0.00  0.00    +0.047 A 
ATOM     35  C   UNL     1      -3.409 -10.309  -6.177  0.00  0.00    +0.029 A 
ATOM     36  C   UNL     1      -2.502  -9.380  -6.859  0.00  0.00    +0.043 A 
ATOM     37  N   UNL     1      -2.124  -9.284  -8.109  0.00  0.00    -0.380 N 
ATOM     38  C   UNL     1      -1.197  -8.153  -8.232  0.00  0.00    +0.144 C 
ATOM     39  H   UNL     1      -2.412  -9.861  -8.834  0.00  0.00    +0.160 HD
BRANCH  33  40
ATOM     40  O   UNL     1      -3.282  -9.125  -2.745  0.00  0.00    -0.495 OA
ATOM     41  C   UNL     1      -4.187 -10.100  -2.224  0.00  0.00    +0.277 C 
ENDBRANCH  33  40
ENDBRANCH  29  30
ENDBRANCH  28  29
ENDBRANCH   4  28
TORSDOF 9
