REMARK  Name = ZINC62160141
REMARK  7 active torsions:
REMARK  status: ('A' for Active; 'I' for Inactive)
REMARK    1  A    between atoms: C_1  and  C_2
REMARK    2  A    between atoms: C_2  and  C_3
REMARK    3  A    between atoms: C_3  and  N_4
REMARK    4  A    between atoms: C_11  and  O_24
REMARK    5  A    between atoms: C_12  and  O_22
REMARK    6  A    between atoms: O_22  and  C_23
REMARK    7  A    between atoms: O_24  and  C_25
REMARK                            x       y       z     vdW  Elec       q    Type
REMARK                         _______ _______ _______ _____ _____    ______ ____
ROOT
ATOM      1  N   UNL     1      -1.413  -1.999   0.006  0.00  0.00    -0.299 N 
ATOM      2  C   UNL     1      -2.571  -2.688   0.012  0.00  0.00    +0.303 C 
ATOM      3  O   UNL     1      -3.630  -2.099   0.117  0.00  0.00    -0.253 OA
ATOM      4  N   UNL     1      -2.556  -4.031  -0.097  0.00  0.00    -0.280 N 
ATOM      5  C   UNL     1      -1.296  -4.782  -0.110  0.00  0.00    +0.144 C 
ATOM      6  C   UNL     1      -1.340  -5.827  -1.197  0.00  0.00    -0.023 A 
ATOM      7  C   UNL     1      -0.153  -6.471  -1.522  0.00  0.00    +0.055 A 
ATOM      8  C   UNL     1      -0.127  -7.444  -2.503  0.00  0.00    +0.162 A 
ATOM      9  C   UNL     1      -1.303  -7.780  -3.168  0.00  0.00    +0.162 A 
ATOM     10  C   UNL     1      -2.481  -7.134  -2.844  0.00  0.00    +0.054 A 
ATOM     11  C   UNL     1      -2.502  -6.152  -1.860  0.00  0.00    -0.031 A 
ATOM     12  C   UNL     1      -3.821  -5.477  -1.580  0.00  0.00    +0.012 C 
ATOM     13  C   UNL     1      -3.804  -4.805  -0.202  0.00  0.00    +0.121 C 
ATOM     14  C   UNL     1      -4.085  -4.421  -2.658  0.00  0.00    +0.013 C 
ATOM     15  C   UNL     1      -5.428  -3.741  -2.386  0.00  0.00    +0.001 C 
ATOM     16  C   UNL     1      -6.545  -4.785  -2.416  0.00  0.00    +0.000 C 
ATOM     17  C   UNL     1      -6.281  -5.844  -1.343  0.00  0.00    +0.001 C 
ATOM     18  C   UNL     1      -4.938  -6.524  -1.617  0.00  0.00    +0.013 C 
ATOM     19  H   UNL     1      -0.567  -2.472  -0.003  0.00  0.00    +0.150 HD
ENDROOT
BRANCH   9  20
ATOM     20  O   UNL     1      -1.293  -8.739  -4.133  0.00  0.00    -0.491 OA
ATOM     21  C   UNL     1      -2.537  -9.029  -4.772  0.00  0.00    +0.277 C 
ENDBRANCH   9  20
BRANCH   8  22
ATOM     22  O   UNL     1       1.039  -8.070  -2.816  0.00  0.00    -0.491 OA
ATOM     23  C   UNL     1       2.204  -7.672  -2.091  0.00  0.00    +0.277 C 
ENDBRANCH   8  22
BRANCH   1  24
ATOM     24  C   UNL     1      -1.433  -0.534   0.012  0.00  0.00    +0.105 C 
BRANCH  24  26
ATOM     25  C   UNL     1      -0.018   1.526   0.009  0.00  0.00    +0.005 C 
ATOM     26  C   UNL     1       0.002  -0.004   0.002  0.00  0.00    +0.015 C 
ENDBRANCH  24  26
ENDBRANCH   1  24
TORSDOF 4
