REMARK  Name = ZINC30008708
REMARK  8 active torsions:
REMARK  status: ('A' for Active; 'I' for Inactive)
REMARK    1  A    between atoms: C_1  and  C_2
REMARK    2  A    between atoms: C_2  and  C_3
REMARK    3  A    between atoms: C_3  and  C_5
REMARK    4  A    between atoms: C_3  and  N_6
REMARK    5  A    between atoms: C_7  and  C_9
REMARK    6  A    between atoms: C_9  and  N_10
REMARK    7  A    between atoms: N_13  and  S_16
REMARK    8  A    between atoms: S_16  and  C_19
REMARK                            x       y       z     vdW  Elec       q    Type
REMARK                         _______ _______ _______ _____ _____    ______ ____
ROOT
ATOM      1  N   UNL     1      -0.724   1.573  -1.181  0.00  0.00    +0.387 N 
ATOM      2  C   UNL     1      -0.013   1.086   0.008  0.00  0.00    -0.061 C 
ATOM      3  C   UNL     1      -0.731   1.581   1.268  0.00  0.00    +0.091 C 
ATOM      4  N   UNL     1      -0.872   3.042   1.182  0.00  0.00    -0.180 NA
ATOM      5  C   UNL     1      -1.452   3.615  -0.042  0.00  0.00    +0.091 C 
ATOM      6  C   UNL     1      -0.705   3.040  -1.250  0.00  0.00    -0.061 C 
ATOM      7  H   UNL     1      -1.774   1.256  -1.096  0.00  0.00    -0.081 HD
ENDROOT
BRANCH   4   8
ATOM      8  S   UNL     1      -0.390   4.017   2.431  0.00  0.00    +0.062 S 
ATOM      9  O   UNL     1       0.587   3.288   3.162  0.00  0.00    -0.153 OA
ATOM     10  O   UNL     1      -0.125   5.295   1.870  0.00  0.00    -0.153 OA
BRANCH   8  11
ATOM     11  C   UNL     1      -1.776   4.215   3.502  0.00  0.00    +0.120 A 
ATOM     12  C   UNL     1      -1.734   3.707   4.787  0.00  0.00    +0.045 A 
ATOM     13  C   UNL     1      -2.820   3.867   5.628  0.00  0.00    +0.020 A 
ATOM     14  C   UNL     1      -3.951   4.526   5.181  0.00  0.00    +0.016 A 
ATOM     15  C   UNL     1      -3.994   5.028   3.895  0.00  0.00    +0.018 A 
ATOM     16  C   UNL     1      -2.907   4.873   3.054  0.00  0.00    +0.044 A 
ATOM     17 BR   UNL     1      -2.966   5.561   1.294  0.00  0.00    -0.048 Br
ATOM     18 BR   UNL     1      -2.760   3.179   7.389  0.00  0.00    -0.050 Br
ENDBRANCH   8  11
ENDBRANCH   4   8
BRANCH   1  19
ATOM     19  C   UNL     1      -0.170   0.981  -2.406  0.00  0.00    +0.019 C 
BRANCH  19  21
ATOM     20  N   UNL     1      -0.756   0.862  -4.806  0.00  0.00    -0.314 N 
ATOM     21  C   UNL     1      -1.068   1.304  -3.572  0.00  0.00    +0.197 C 
ATOM     22  O   UNL     1      -2.071   1.963  -3.400  0.00  0.00    -0.278 OA
ATOM     23  H   UNL     1       0.154   0.264  -4.962  0.00  0.00    +0.149 HD
BRANCH  20  24
ATOM     24  C   UNL     1      -1.629   1.176  -5.939  0.00  0.00    +0.070 C 
ATOM     25  C   UNL     1      -2.758   0.146  -6.015  0.00  0.00    +0.028 C 
BRANCH  24  27
ATOM     26  C   UNL     1       0.233   2.251  -7.212  0.00  0.00    +0.005 C 
ATOM     27  C   UNL     1      -0.817   1.138  -7.235  0.00  0.00    +0.018 C 
ENDBRANCH  24  27
ENDBRANCH  20  24
ENDBRANCH  19  21
ENDBRANCH   1  19
TORSDOF 6
