REMARK  Name = ZINC58966954
REMARK  6 active torsions:
REMARK  status: ('A' for Active; 'I' for Inactive)
REMARK    1  A    between atoms: C_12  and  S_19
REMARK    2  A    between atoms: C_14  and  C_15
REMARK    3  A    between atoms: S_19  and  C_20
REMARK    4  A    between atoms: C_20  and  C_21
REMARK    5  A    between atoms: C_21  and  C_22
REMARK    6  A    between atoms: N_24  and  C_25
REMARK                            x       y       z     vdW  Elec       q    Type
REMARK                         _______ _______ _______ _____ _____    ______ ____
ROOT
ATOM      1  C   UNL     1       0.049   1.460  -0.227  0.00  0.00    +0.000 A 
ATOM      2  C   UNL     1       1.237   2.169  -0.206  0.00  0.00    +0.001 A 
ATOM      3  C   UNL     1       2.443   1.496  -0.211  0.00  0.00    +0.010 A 
ATOM      4  C   UNL     1       2.459   0.106  -0.242  0.00  0.00    +0.004 A 
ATOM      5  C   UNL     1       1.259  -0.606  -0.236  0.00  0.00    -0.038 A 
ATOM      6  C   UNL     1       0.060   0.077  -0.241  0.00  0.00    +0.004 A 
ATOM      7  C   UNL     1       1.274  -2.110  -0.194  0.00  0.00    +0.040 C 
ATOM      8  C   UNL     1       2.441  -2.666  -1.005  0.00  0.00    +0.044 C 
ATOM      9  C   UNL     1       3.727  -1.993  -0.616  0.00  0.00    +0.009 A 
ATOM     10  C   UNL     1       3.735  -0.643  -0.261  0.00  0.00    +0.079 A 
ATOM     11  N   UNL     1       4.885  -0.061   0.057  0.00  0.00    -0.222 NA
ATOM     12  C   UNL     1       6.011  -0.761   0.049  0.00  0.00    +0.189 A 
ATOM     13  N   UNL     1       6.031  -2.047  -0.271  0.00  0.00    -0.218 NA
ATOM     14  C   UNL     1       4.920  -2.688  -0.605  0.00  0.00    +0.152 A 
ENDROOT
BRANCH  14  15
ATOM     15  C   UNL     1       4.959  -4.150  -0.968  0.00  0.00    +0.435 C 
ATOM     16  F   UNL     1       4.383  -4.333  -2.230  0.00  0.00    -0.164 F 
ATOM     17  F   UNL     1       6.287  -4.590  -0.992  0.00  0.00    -0.164 F 
ATOM     18  F   UNL     1       4.242  -4.885  -0.017  0.00  0.00    -0.164 F 
ENDBRANCH  14  15
BRANCH  12  19
ATOM     19  S   UNL     1       7.522   0.041   0.474  0.00  0.00    -0.086 S 
BRANCH  19  20
ATOM     20  C   UNL     1       8.769  -1.269   0.331  0.00  0.00    +0.086 C 
BRANCH  20  21
ATOM     21  C   UNL     1      10.147  -0.702   0.677  0.00  0.00    +0.107 C 
BRANCH  21  22
ATOM     22  C   UNL     1      11.183  -1.790   0.558  0.00  0.00    +0.218 C 
ATOM     23  O   UNL     1      10.851  -2.909   0.229  0.00  0.00    -0.275 OA
ATOM     24  N   UNL     1      12.477  -1.519   0.819  0.00  0.00    -0.283 N 
ATOM     25  H   UNL     1      12.731  -0.648   1.162  0.00  0.00    +0.155 HD
BRANCH  24  26
ATOM     26  C   UNL     1      13.455  -2.494   0.592  0.00  0.00    +0.071 A 
ATOM     27  C   UNL     1      13.322  -3.398  -0.458  0.00  0.00    +0.028 A 
ATOM     28  C   UNL     1      14.316  -4.346  -0.641  0.00  0.00    +0.022 A 
ATOM     29  C   UNL     1      15.400  -4.363   0.216  0.00  0.00    +0.112 A 
ATOM     30  N   UNL     1      15.498  -3.493   1.203  0.00  0.00    -0.242 NA
ATOM     31  C   UNL     1      14.577  -2.571   1.410  0.00  0.00    +0.150 A 
ATOM     32 CL   UNL     1      14.765  -1.448   2.720  0.00  0.00    -0.060 Cl
ENDBRANCH  24  26
ENDBRANCH  21  22
ENDBRANCH  20  21
ENDBRANCH  19  20
ENDBRANCH  12  19
TORSDOF 6
