REMARK  Name = ZINC36309834
REMARK  16 active torsions:
REMARK  status: ('A' for Active; 'I' for Inactive)
REMARK    1  A    between atoms: C_1  and  C_2
REMARK    2  A    between atoms: C_2  and  C_3
REMARK    3  A    between atoms: C_3  and  C_5
REMARK    4  A    between atoms: C_3  and  C_6
REMARK    5  A    between atoms: C_6  and  N_7
REMARK    6  A    between atoms: N_7  and  C_8
REMARK    7  A    between atoms: N_7  and  C_16
REMARK    8  A    between atoms: C_8  and  C_9
REMARK    9  A    between atoms: C_9  and  C_11
REMARK   10  A    between atoms: C_9  and  O_15
REMARK   11  A    between atoms: C_11  and  C_12
REMARK   12  A    between atoms: C_12  and  C_13
REMARK   13  A    between atoms: C_16  and  C_17
REMARK   14  A    between atoms: C_27  and  C_29
REMARK   15  A    between atoms: C_29  and  O_30
REMARK   16  A    between atoms: O_30  and  C_31
REMARK                            x       y       z     vdW  Elec       q    Type
REMARK                         _______ _______ _______ _____ _____    ______ ____
ROOT
ATOM      1  C   UNL     1       0.103  -4.330  -3.257  0.00  0.00    +0.200 C 
ATOM      2  O   UNL     1      -0.758  -3.483  -3.361  0.00  0.00    -0.278 OA
ATOM      3  N   UNL     1      -0.190  -5.622  -3.504  0.00  0.00    -0.292 N 
ATOM      4  C   UNL     1       0.846  -6.659  -3.375  0.00  0.00    +0.113 C 
ATOM      5  C   UNL     1       0.446  -7.601  -2.229  0.00  0.00    +0.061 C 
ATOM      6  C   UNL     1      -1.015  -7.896  -2.339  0.00  0.00    -0.004 A 
ATOM      7  C   UNL     1      -1.951  -7.224  -3.062  0.00  0.00    -0.014 A 
ATOM      8  C   UNL     1      -3.259  -7.701  -2.989  0.00  0.00    +0.013 A 
ATOM      9  C   UNL     1      -3.543  -8.784  -2.230  0.00  0.00    +0.046 A 
ATOM     10  S   UNL     1      -1.938  -9.196  -1.563  0.00  0.00    -0.101 S 
ATOM     11  C   UNL     1      -1.549  -6.016  -3.899  0.00  0.00    +0.144 C 
ENDROOT
BRANCH   1  12
ATOM     12  C   UNL     1       1.501  -3.938  -2.853  0.00  0.00    +0.019 C 
BRANCH  12  13
ATOM     13  N   UNL     1       1.561  -2.485  -2.643  0.00  0.00    +0.387 N 
ATOM     14  H   UNL     1       1.234  -2.012  -3.472  0.00  0.00    -0.081 HD
BRANCH  13  15
ATOM     15  C   UNL     1       0.709  -2.119  -1.503  0.00  0.00    -0.075 C 
BRANCH  15  16
ATOM     16  C   UNL     1       0.163  -0.705  -1.708  0.00  0.00    -0.031 C 
ATOM     17  C   UNL     1      -0.787  -0.694  -2.907  0.00  0.00    +0.005 C 
BRANCH  16  19
ATOM     18  C   UNL     1      -1.032   1.194  -0.608  0.00  0.00    +0.004 C 
ATOM     19  C   UNL     1      -0.594  -0.264  -0.453  0.00  0.00    -0.002 C 
ENDBRANCH  16  19
ENDBRANCH  15  16
ENDBRANCH  13  15
BRANCH  13  20
ATOM     20  C   UNL     1       2.947  -2.087  -2.366  0.00  0.00    -0.046 C 
BRANCH  20  21
ATOM     21  C   UNL     1       3.035  -0.561  -2.294  0.00  0.00    +0.098 C 
BRANCH  21  22
ATOM     22  O   UNL     1       2.519   0.003  -3.502  0.00  0.00    -0.394 OA
ATOM     23  H   UNL     1       2.993  -0.273  -4.298  0.00  0.00    +0.210 HD
ENDBRANCH  21  22
BRANCH  21  24
ATOM     24  C   UNL     1       4.496  -0.142  -2.119  0.00  0.00    +0.033 C 
BRANCH  24  25
ATOM     25  C   UNL     1       4.572   1.373  -1.923  0.00  0.00    +0.029 C 
BRANCH  25  26
ATOM     26  C   UNL     1       6.011   1.786  -1.750  0.00  0.00    -0.034 C 
ATOM     27  C   UNL     1       6.528   2.701  -2.532  0.00  0.00    +0.004 C 
ENDBRANCH  25  26
ENDBRANCH  24  25
ENDBRANCH  21  24
ENDBRANCH  20  21
ENDBRANCH  13  20
ENDBRANCH  12  13
ENDBRANCH   1  12
BRANCH  11  28
ATOM     28  C   UNL     1      -1.570  -6.388  -5.383  0.00  0.00    +0.256 C 
BRANCH  28  29
ATOM     29  O   UNL     1      -0.767  -7.551  -5.593  0.00  0.00    -0.490 OA
BRANCH  29  30
ATOM     30  C   UNL     1      -0.678  -8.018  -6.867  0.00  0.00    +0.121 A 
ATOM     31  C   UNL     1      -1.346  -7.365  -7.893  0.00  0.00    +0.048 A 
ATOM     32  C   UNL     1      -1.255  -7.840  -9.187  0.00  0.00    +0.042 A 
ATOM     33  C   UNL     1      -0.499  -8.967  -9.460  0.00  0.00    +0.124 A 
ATOM     34  C   UNL     1       0.168  -9.620  -8.437  0.00  0.00    +0.042 A 
ATOM     35  C   UNL     1       0.084  -9.143  -7.143  0.00  0.00    +0.048 A 
ATOM     36  F   UNL     1      -0.411  -9.431 -10.726  0.00  0.00    -0.205 F 
ENDBRANCH  29  30
ENDBRANCH  28  29
ENDBRANCH  11  28
TORSDOF 14
