REMARK  Name = ZINC19830831
REMARK  10 active torsions:
REMARK  status: ('A' for Active; 'I' for Inactive)
REMARK    1  A    between atoms: C_1  and  C_2
REMARK    2  A    between atoms: C_3  and  C_33
REMARK    3  A    between atoms: C_4  and  C_23
REMARK    4  A    between atoms: C_10  and  C_15
REMARK    5  A    between atoms: C_18  and  O_21
REMARK    6  A    between atoms: O_21  and  C_22
REMARK    7  A    between atoms: C_33  and  O_35
REMARK    8  A    between atoms: O_35  and  C_36
REMARK    9  A    between atoms: C_36  and  C_37
REMARK   10  A    between atoms: C_36  and  C_38
REMARK                            x       y       z     vdW  Elec       q    Type
REMARK                         _______ _______ _______ _____ _____    ______ ____
ROOT
ATOM      1  C   UNL     1      -1.332  -3.390   2.552  0.00  0.00    +0.061 C 
ATOM      2  C   UNL     1      -0.694  -3.044   1.231  0.00  0.00    +0.016 C 
ATOM      3  C   UNL     1       0.545  -2.523   1.204  0.00  0.00    +0.065 C 
ATOM      4  C   UNL     1       1.208  -2.158  -0.091  0.00  0.00    +0.094 C 
ATOM      5  C   UNL     1       0.525  -2.830  -1.256  0.00  0.00    +0.024 C 
ATOM      6  C   UNL     1      -0.716  -3.343  -1.127  0.00  0.00    +0.016 C 
ATOM      7  N   UNL     1      -1.379  -3.261   0.069  0.00  0.00    -0.321 N 
ATOM      8  C   UNL     1      -1.402  -4.021  -2.286  0.00  0.00    +0.059 C 
ATOM      9  C   UNL     1      -0.928  -3.397  -3.601  0.00  0.00    +0.032 C 
ATOM     10  C   UNL     1       0.595  -3.545  -3.688  0.00  0.00    +0.088 C 
ATOM     11  C   UNL     1       1.218  -2.905  -2.478  0.00  0.00    +0.162 C 
ATOM     12  O   UNL     1       2.341  -2.446  -2.557  0.00  0.00    -0.292 OA
ATOM     13  H   UNL     1      -2.473  -3.373   0.087  0.00  0.00    +0.152 HD
ENDROOT
BRANCH   4  14
ATOM     14  C   UNL     1       1.144  -0.663  -0.276  0.00  0.00    -0.013 A 
ATOM     15  C   UNL     1      -0.082  -0.029  -0.346  0.00  0.00    +0.055 A 
ATOM     16  C   UNL     1      -0.143   1.345  -0.515  0.00  0.00    +0.167 A 
ATOM     17  C   UNL     1       1.033   2.084  -0.615  0.00  0.00    +0.168 A 
ATOM     18  C   UNL     1       2.259   1.442  -0.543  0.00  0.00    +0.069 A 
ATOM     19  C   UNL     1       2.313   0.070  -0.374  0.00  0.00    +0.049 A 
ATOM     20 CL   UNL     1       3.850  -0.732  -0.286  0.00  0.00    -0.083 Cl
ATOM     21  O   UNL     1       0.709   3.400  -0.775  0.00  0.00    -0.453 OA
ATOM     22  C   UNL     1      -0.666   3.510  -0.364  0.00  0.00    +0.466 C 
ATOM     23  O   UNL     1      -1.204   2.197  -0.620  0.00  0.00    -0.453 OA
ENDBRANCH   4  14
BRANCH   9  24
ATOM     24  C   UNL     1      -1.574  -4.109  -4.761  0.00  0.00    -0.043 A 
ATOM     25  C   UNL     1      -1.360  -5.462  -4.946  0.00  0.00    +0.007 A 
ATOM     26  C   UNL     1      -1.956  -6.119  -6.005  0.00  0.00    +0.046 A 
ATOM     27  C   UNL     1      -2.759  -5.416  -6.892  0.00  0.00    +0.120 A 
ATOM     28  C   UNL     1      -2.968  -4.057  -6.707  0.00  0.00    +0.046 A 
ATOM     29  C   UNL     1      -2.374  -3.406  -5.643  0.00  0.00    +0.007 A 
BRANCH  27  30
ATOM     30  O   UNL     1      -3.342  -6.058  -7.938  0.00  0.00    -0.495 OA
ATOM     31  C   UNL     1      -3.084  -7.458  -8.065  0.00  0.00    +0.277 C 
ENDBRANCH  27  30
ENDBRANCH   9  24
BRANCH   3  32
ATOM     32  C   UNL     1       1.236  -2.314   2.421  0.00  0.00    +0.338 C 
ATOM     33  O   UNL     1       2.149  -3.055   2.736  0.00  0.00    -0.245 OA
BRANCH  32  34
ATOM     34  O   UNL     1       0.884  -1.295   3.231  0.00  0.00    -0.459 OA
BRANCH  34  35
ATOM     35  C   UNL     1       1.625  -1.143   4.443  0.00  0.00    +0.171 C 
ATOM     36  C   UNL     1       1.661   0.335   4.838  0.00  0.00    +0.052 C 
ATOM     37  C   UNL     1       0.955  -1.952   5.555  0.00  0.00    +0.052 C 
ENDBRANCH  34  35
ENDBRANCH  32  34
ENDBRANCH   3  32
TORSDOF 6
