REMARK  Name = ZINC35694566
REMARK  11 active torsions:
REMARK  status: ('A' for Active; 'I' for Inactive)
REMARK    1  A    between atoms: C_1  and  C_2
REMARK    2  A    between atoms: C_2  and  O_3
REMARK    3  A    between atoms: O_3  and  C_4
REMARK    4  A    between atoms: C_4  and  C_6
REMARK    5  A    between atoms: C_7  and  C_35
REMARK    6  A    between atoms: C_11  and  C_13
REMARK    7  A    between atoms: C_20  and  C_23
REMARK    8  A    between atoms: C_24  and  N_26
REMARK    9  A    between atoms: N_26  and  C_27
REMARK   10  A    between atoms: N_26  and  C_28
REMARK   11  A    between atoms: C_28  and  C_29
REMARK                            x       y       z     vdW  Elec       q    Type
REMARK                         _______ _______ _______ _____ _____    ______ ____
ROOT
ATOM      1  C   UNL     1       1.399  -2.208  -2.184  0.00  0.00    +0.082 C 
ATOM      2  C   UNL     1       1.926  -3.485  -2.159  0.00  0.00    +0.053 C 
ATOM      3  N   UNL     1       2.690  -3.914  -3.151  0.00  0.00    -0.230 NA
ATOM      4  C   UNL     1       3.012  -3.205  -4.212  0.00  0.00    +0.166 C 
ATOM      5  N   UNL     1       2.595  -1.921  -4.428  0.00  0.00    -0.267 N 
ATOM      6  C   UNL     1       1.722  -1.335  -3.376  0.00  0.00    +0.150 C 
ATOM      7  C   UNL     1       3.018  -1.311  -5.591  0.00  0.00    +0.048 C 
ATOM      8  C   UNL     1       3.809  -2.026  -6.422  0.00  0.00    +0.072 C 
ATOM      9  S   UNL     1       3.955  -3.573  -5.551  0.00  0.00    -0.060 S 
ATOM     10  C   UNL     1       1.628  -4.395  -0.996  0.00  0.00    +0.066 C 
ENDROOT
BRANCH   6  11
ATOM     11  C   UNL     1       0.421  -0.929  -4.019  0.00  0.00    -0.019 A 
ATOM     12  C   UNL     1      -0.308  -1.852  -4.746  0.00  0.00    +0.006 A 
ATOM     13  C   UNL     1      -1.502  -1.482  -5.337  0.00  0.00    +0.003 A 
ATOM     14  C   UNL     1      -1.967  -0.187  -5.202  0.00  0.00    +0.038 A 
ATOM     15  C   UNL     1      -1.238   0.738  -4.474  0.00  0.00    +0.124 A 
ATOM     16  C   UNL     1      -0.046   0.364  -3.878  0.00  0.00    +0.044 A 
ATOM     17  F   UNL     1      -1.692   2.003  -4.342  0.00  0.00    -0.205 F 
ENDBRANCH   6  11
BRANCH   7  18
ATOM     18  C   UNL     1       2.624   0.068  -5.915  0.00  0.00    +0.091 C 
ATOM     19  C   UNL     1       3.155   0.686  -6.987  0.00  0.00    +0.241 C 
ATOM     20  O   UNL     1       3.964   0.002  -7.832  0.00  0.00    -0.271 OA
BRANCH  19  21
ATOM     21  N   UNL     1       2.874   2.021  -7.226  0.00  0.00    -0.297 N 
ATOM     22  C   UNL     1       2.056   2.779  -6.276  0.00  0.00    +0.132 C 
BRANCH  21  23
ATOM     23  C   UNL     1       3.396   2.675  -8.428  0.00  0.00    +0.142 C 
BRANCH  23  24
ATOM     24  C   UNL     1       2.357   2.623  -9.519  0.00  0.00    -0.030 A 
ATOM     25  C   UNL     1       2.324   1.551 -10.391  0.00  0.00    +0.005 A 
ATOM     26  C   UNL     1       1.371   1.504 -11.391  0.00  0.00    +0.000 A 
ATOM     27  C   UNL     1       0.452   2.528 -11.520  0.00  0.00    +0.000 A 
ATOM     28  C   UNL     1       0.484   3.600 -10.647  0.00  0.00    +0.000 A 
ATOM     29  C   UNL     1       1.435   3.645  -9.644  0.00  0.00    +0.005 A 
ENDBRANCH  23  24
ENDBRANCH  21  23
ENDBRANCH  19  21
ENDBRANCH   7  18
BRANCH   1  30
ATOM     30  C   UNL     1       0.589  -1.740  -1.142  0.00  0.00    +0.339 C 
ATOM     31  O   UNL     1       0.233  -2.499  -0.259  0.00  0.00    -0.245 OA
BRANCH  30  32
ATOM     32  O   UNL     1       0.202  -0.445  -1.117  0.00  0.00    -0.462 OA
BRANCH  32  34
ATOM     33  C   UNL     1      -0.957   1.451  -0.166  0.00  0.00    +0.048 C 
ATOM     34  C   UNL     1      -0.624  -0.036  -0.025  0.00  0.00    +0.229 C 
ENDBRANCH  32  34
ENDBRANCH  30  32
ENDBRANCH   1  30
TORSDOF 8
