REMARK  Name = ZINC35183042
REMARK  3 active torsions:
REMARK  status: ('A' for Active; 'I' for Inactive)
REMARK    1  A    between atoms: C_3  and  N_20
REMARK    2  A    between atoms: C_6  and  C_7
REMARK    3  A    between atoms: C_16  and  N_19
REMARK                            x       y       z     vdW  Elec       q    Type
REMARK                         _______ _______ _______ _____ _____    ______ ____
ROOT
ATOM      1  C   UNL     1      -1.293  -0.775   0.010  0.00  0.00    +0.282 C 
ATOM      2  O   UNL     1      -2.060  -0.429  -1.145  0.00  0.00    -0.345 OA
ATOM      3  C   UNL     1      -3.314  -1.119  -1.230  0.00  0.00    +0.193 C 
ATOM      4  C   UNL     1      -3.058  -2.615  -1.182  0.00  0.00    +0.143 C 
ATOM      5  C   UNL     1      -2.186  -2.998   0.001  0.00  0.00    +0.193 C 
ATOM      6  O   UNL     1      -1.011  -2.177   0.000  0.00  0.00    -0.345 OA
ATOM      7  C   UNL     1      -4.344  -3.407  -1.214  0.00  0.00    +0.262 C 
ATOM      8  O   UNL     1      -5.117  -3.518  -0.113  0.00  0.00    -0.270 OA
ATOM      9  N   UNL     1      -4.680  -3.966  -2.306  0.00  0.00    -0.255 NA
ATOM     10  C   UNL     1      -3.826  -3.829  -3.504  0.00  0.00    +0.109 C 
ATOM     11  S   UNL     1      -2.273  -3.171  -2.750  0.00  0.00    -0.133 S 
ENDROOT
BRANCH   1  17
ATOM     12  C   UNL     1      -0.017   1.378   0.010  0.00  0.00    +0.011 A 
ATOM     13  C   UNL     1       1.171   2.086   0.002  0.00  0.00    +0.033 A 
ATOM     14  C   UNL     1       2.377   1.411  -0.013  0.00  0.00    +0.126 A 
ATOM     15  C   UNL     1       2.396   0.029  -0.020  0.00  0.00    +0.033 A 
ATOM     16  C   UNL     1       1.208  -0.679  -0.012  0.00  0.00    +0.011 A 
ATOM     17  C   UNL     1       0.002  -0.004   0.002  0.00  0.00    +0.008 A 
BRANCH  14  18
ATOM     18  N   UNL     1       3.649   2.168  -0.022  0.00  0.00    +0.056 N 
ATOM     19  O   UNL     1       3.633   3.377  -0.016  0.00  0.00    -0.126 OA
ATOM     20  O   UNL     1       4.704   1.578  -0.035  0.00  0.00    -0.126 OA
ENDBRANCH  14  18
ENDBRANCH   1  17
BRANCH  10  21
ATOM     21  N   UNL     1      -3.596  -5.133  -4.142  0.00  0.00    +0.399 N 
ATOM     22  H   UNL     1      -4.477  -5.521  -4.441  0.00  0.00    -0.086 HD
ATOM     23  H   UNL     1      -2.992  -5.014  -4.942  0.00  0.00    -0.086 HD
ATOM     24  H   UNL     1      -3.159  -5.758  -3.481  0.00  0.00    -0.086 HD
ENDBRANCH  10  21
TORSDOF 3
