REMARK  Name = ZINC35855301
REMARK  6 active torsions:
REMARK  status: ('A' for Active; 'I' for Inactive)
REMARK    1  A    between atoms: C_1  and  C_2
REMARK    2  A    between atoms: C_4  and  C_39
REMARK    3  A    between atoms: C_9  and  C_28
REMARK    4  A    between atoms: C_11  and  C_19
REMARK    5  A    between atoms: C_22  and  N_25
REMARK    6  A    between atoms: C_28  and  C_30
REMARK                            x       y       z     vdW  Elec       q    Type
REMARK                         _______ _______ _______ _____ _____    ______ ____
ROOT
ATOM      1  C   UNL     1      -4.818  -1.769  -0.323  0.00  0.00    +0.044 C 
ATOM      2  C   UNL     1      -3.988  -2.967   0.058  0.00  0.00    -0.050 A 
ATOM      3  C   UNL     1      -4.263  -4.205  -0.493  0.00  0.00    +0.008 A 
ATOM      4  C   UNL     1      -3.508  -5.306  -0.147  0.00  0.00    -0.029 A 
ATOM      5  C   UNL     1      -2.460  -5.179   0.762  0.00  0.00    +0.042 A 
ATOM      6  C   UNL     1      -2.191  -3.928   1.309  0.00  0.00    +0.004 A 
ATOM      7  C   UNL     1      -2.944  -2.831   0.957  0.00  0.00    +0.011 A 
ATOM      8  C   UNL     1      -1.019  -4.123   2.232  0.00  0.00    +0.137 C 
ATOM      9  C   UNL     1      -1.385  -3.742   3.674  0.00  0.00    +0.103 C 
ATOM     10  C   UNL     1      -0.084  -3.070   4.196  0.00  0.00    +0.050 C 
ATOM     11  C   UNL     1       0.423  -2.362   2.918  0.00  0.00    +0.077 C 
ATOM     12  N   UNL     1       0.127  -3.296   1.817  0.00  0.00    -0.271 NA
ATOM     13  C   UNL     1       1.275  -4.204   1.518  0.00  0.00    +0.155 C 
ATOM     14  S   UNL     1       2.687  -3.039   1.760  0.00  0.00    -0.144 S 
ATOM     15  C   UNL     1       1.914  -2.014   3.068  0.00  0.00    +0.090 C 
ATOM     16  C   UNL     1      -0.690  -5.590   2.133  0.00  0.00    +0.243 C 
ATOM     17  O   UNL     1       0.195  -6.175   2.722  0.00  0.00    -0.273 OA
ATOM     18  N   UNL     1      -1.567  -6.128   1.264  0.00  0.00    -0.283 N 
ATOM     19  C   UNL     1      -3.818  -6.651  -0.753  0.00  0.00    +0.045 C 
ATOM     20  H   UNL     1      -1.578  -7.065   1.017  0.00  0.00    +0.155 HD
ENDROOT
BRANCH  10  21
ATOM     21  C   UNL     1      -0.387  -2.073   5.285  0.00  0.00    -0.042 A 
ATOM     22  C   UNL     1      -0.397  -0.720   5.000  0.00  0.00    +0.006 A 
ATOM     23  C   UNL     1      -0.675   0.195   5.998  0.00  0.00    +0.033 A 
ATOM     24  C   UNL     1      -0.945  -0.244   7.281  0.00  0.00    +0.126 A 
ATOM     25  C   UNL     1      -0.937  -1.596   7.566  0.00  0.00    +0.033 A 
ATOM     26  C   UNL     1      -0.662  -2.511   6.566  0.00  0.00    +0.006 A 
BRANCH  24  27
ATOM     27  N   UNL     1      -1.243   0.736   8.350  0.00  0.00    +0.056 N 
ATOM     28  O   UNL     1      -1.250   1.919   8.101  0.00  0.00    -0.126 OA
ATOM     29  O   UNL     1      -1.479   0.353   9.472  0.00  0.00    -0.126 OA
ENDBRANCH  24  27
ENDBRANCH  10  21
BRANCH   9  30
ATOM     30  C   UNL     1      -2.536  -2.769   3.693  0.00  0.00    +0.169 C 
ATOM     31  O   UNL     1      -2.331  -1.584   3.545  0.00  0.00    -0.292 OA
BRANCH  30  32
ATOM     32  C   UNL     1      -3.910  -3.259   3.892  0.00  0.00    +0.018 A 
ATOM     33  C   UNL     1      -4.150  -4.625   4.069  0.00  0.00    +0.011 A 
ATOM     34  C   UNL     1      -5.440  -5.077   4.255  0.00  0.00    +0.001 A 
ATOM     35  C   UNL     1      -6.495  -4.181   4.267  0.00  0.00    +0.000 A 
ATOM     36  C   UNL     1      -6.265  -2.827   4.091  0.00  0.00    +0.001 A 
ATOM     37  C   UNL     1      -4.981  -2.360   3.910  0.00  0.00    +0.011 A 
ENDBRANCH  30  32
ENDBRANCH   9  30
TORSDOF 4
