REMARK  Name = ZINC59040819
REMARK  4 active torsions:
REMARK  status: ('A' for Active; 'I' for Inactive)
REMARK    1  A    between atoms: C_3  and  C_8
REMARK    2  A    between atoms: C_20  and  C_22
REMARK    3  A    between atoms: N_24  and  C_25
REMARK    4  A    between atoms: C_25  and  C_26
REMARK                            x       y       z     vdW  Elec       q    Type
REMARK                         _______ _______ _______ _____ _____    ______ ____
ROOT
ATOM      1  C   UNL     1       3.693   2.159  -0.033  0.00  0.00    +0.248 C 
ATOM      2  O   UNL     1       3.673   3.373  -0.080  0.00  0.00    -0.270 OA
ATOM      3  N   UNL     1       4.870   1.506   0.044  0.00  0.00    -0.283 N 
ATOM      4  C   UNL     1       6.194   2.127   0.145  0.00  0.00    +0.080 C 
ATOM      5  C   UNL     1       6.273   3.467  -0.549  0.00  0.00    +0.023 C 
ATOM      6  C   UNL     1       6.118   3.317  -2.062  0.00  0.00    +0.002 C 
ATOM      7  C   UNL     1       7.234   2.401  -2.575  0.00  0.00    +0.000 C 
ATOM      8  C   UNL     1       7.058   1.019  -1.951  0.00  0.00    +0.005 C 
ATOM      9  C   UNL     1       7.180   1.100  -0.443  0.00  0.00    +0.012 C 
ATOM     10  C   UNL     1       6.572  -0.226   0.109  0.00  0.00    +0.037 C 
ATOM     11  C   UNL     1       5.052   0.044   0.046  0.00  0.00    +0.163 C 
ENDROOT
BRANCH   1  14
ATOM     12  C   UNL     1       0.038   1.339  -0.316  0.00  0.00    +0.002 A 
ATOM     13  C   UNL     1       1.218   2.055  -0.291  0.00  0.00    +0.013 A 
ATOM     14  C   UNL     1       2.426   1.397  -0.060  0.00  0.00    +0.038 A 
ATOM     15  C   UNL     1       2.434   0.016   0.145  0.00  0.00    +0.033 A 
ATOM     16  C   UNL     1       1.248  -0.689   0.118  0.00  0.00    +0.042 A 
ATOM     17  C   UNL     1       0.052  -0.029  -0.112  0.00  0.00    +0.020 A 
ATOM     18 CL   UNL     1       1.255  -2.406   0.373  0.00  0.00    -0.084 Cl
ENDBRANCH   1  14
BRANCH  11  19
ATOM     19  C   UNL     1       4.480  -0.547  -1.216  0.00  0.00    +0.234 C 
ATOM     20  O   UNL     1       4.075   0.182  -2.097  0.00  0.00    -0.274 OA
ATOM     21  N   UNL     1       4.419  -1.885  -1.367  0.00  0.00    -0.310 N 
ATOM     22  H   UNL     1       4.812  -2.467  -0.698  0.00  0.00    +0.149 HD
BRANCH  21  23
ATOM     23  C   UNL     1       3.760  -2.460  -2.542  0.00  0.00    +0.139 C 
BRANCH  23  24
ATOM     24  C   UNL     1       3.746  -3.962  -2.425  0.00  0.00    -0.026 A 
ATOM     25  C   UNL     1       4.843  -4.716  -2.823  0.00  0.00    +0.023 A 
ATOM     26  C   UNL     1       4.799  -6.090  -2.703  0.00  0.00    +0.084 A 
ATOM     27  N   UNL     1       3.731  -6.693  -2.216  0.00  0.00    -0.350 N 
ATOM     28  C   UNL     1       2.666  -6.010  -1.826  0.00  0.00    +0.099 A 
ATOM     29  C   UNL     1       2.643  -4.622  -1.914  0.00  0.00    +0.047 A 
ATOM     30  N   UNL     1       1.562  -6.686  -1.320  0.00  0.00    -0.317 N 
ATOM     31  C   UNL     1       0.313  -6.062  -0.857  0.00  0.00    +0.106 C 
ATOM     32  C   UNL     1      -0.609  -7.196  -0.360  0.00  0.00    +0.020 C 
ATOM     33  C   UNL     1       0.389  -8.342  -0.045  0.00  0.00    +0.020 C 
ATOM     34  C   UNL     1       1.446  -8.147  -1.163  0.00  0.00    +0.106 C 
ATOM     35  H   UNL     1       3.726  -7.660  -2.142  0.00  0.00    +0.166 HD
ENDBRANCH  23  24
ENDBRANCH  21  23
ENDBRANCH  11  19
TORSDOF 4
