REMARK  Name = ZINC66700686
REMARK  9 active torsions:
REMARK  status: ('A' for Active; 'I' for Inactive)
REMARK    1  A    between atoms: C_1  and  C_2
REMARK    2  A    between atoms: C_2  and  C_3
REMARK    3  A    between atoms: C_3  and  N_4
REMARK    4  A    between atoms: N_4  and  C_5
REMARK    5  A    between atoms: C_5  and  C_6
REMARK    6  A    between atoms: C_11  and  O_12
REMARK    7  A    between atoms: N_15  and  C_16
REMARK    8  A    between atoms: N_19  and  C_22
REMARK    9  A    between atoms: C_22  and  C_23
REMARK                            x       y       z     vdW  Elec       q    Type
REMARK                         _______ _______ _______ _____ _____    ______ ____
ROOT
ATOM      1  N   UNL     1       0.762  -1.976   1.234  0.00  0.00    -0.281 N 
ATOM      2  C   UNL     1      -0.234  -2.667   1.823  0.00  0.00    +0.303 C 
ATOM      3  O   UNL     1      -0.217  -3.882   1.816  0.00  0.00    -0.253 OA
ATOM      4  N   UNL     1      -1.248  -2.010   2.420  0.00  0.00    -0.297 N 
ATOM      5  H   UNL     1      -1.261  -1.040   2.425  0.00  0.00    +0.151 HD
ENDROOT
BRANCH   4   6
ATOM      6  C   UNL     1      -2.331  -2.760   3.061  0.00  0.00    +0.071 C 
ATOM      7  C   UNL     1      -3.389  -3.125   2.015  0.00  0.00    +0.004 C 
ATOM      8  C   UNL     1      -4.554  -3.839   2.705  0.00  0.00    -0.077 C 
ATOM      9  N   UNL     1      -5.146  -2.954   3.715  0.00  0.00    +0.383 N 
ATOM     10  C   UNL     1      -4.158  -2.658   4.759  0.00  0.00    -0.077 C 
ATOM     11  C   UNL     1      -2.978  -1.898   4.148  0.00  0.00    +0.004 C 
ATOM     12  H   UNL     1      -5.439  -2.094   3.276  0.00  0.00    -0.081 HD
BRANCH   9  13
ATOM     13  C   UNL     1      -6.311  -3.614   4.319  0.00  0.00    -0.040 C 
BRANCH  13  14
ATOM     14  C   UNL     1      -6.993  -2.660   5.266  0.00  0.00    -0.029 A 
ATOM     15  C   UNL     1      -6.765  -2.756   6.626  0.00  0.00    +0.004 A 
ATOM     16  C   UNL     1      -7.390  -1.881   7.495  0.00  0.00    +0.000 A 
ATOM     17  C   UNL     1      -8.244  -0.911   7.006  0.00  0.00    +0.003 A 
ATOM     18  C   UNL     1      -8.473  -0.813   5.647  0.00  0.00    +0.038 A 
ATOM     19  C   UNL     1      -7.844  -1.685   4.775  0.00  0.00    +0.125 A 
ATOM     20  F   UNL     1      -8.064  -1.588   3.445  0.00  0.00    -0.205 F 
ENDBRANCH  13  14
ENDBRANCH   9  13
ENDBRANCH   4   6
BRANCH   1  21
ATOM     21  C   UNL     1       0.742  -0.511   1.242  0.00  0.00    +0.109 C 
BRANCH  21  23
ATOM     22  C   UNL     1      -0.019   1.526   0.010  0.00  0.00    +0.005 C 
ATOM     23  C   UNL     1       0.002  -0.004   0.002  0.00  0.00    +0.016 C 
ENDBRANCH  21  23
ENDBRANCH   1  21
BRANCH   1  24
ATOM     24  C   UNL     1       1.864  -2.690   0.585  0.00  0.00    +0.148 C 
BRANCH  24  25
ATOM     25  C   UNL     1       2.965  -2.932   1.586  0.00  0.00    +0.011 A 
ATOM     26  C   UNL     1       4.072  -2.106   1.609  0.00  0.00    +0.009 A 
ATOM     27  C   UNL     1       5.082  -2.328   2.527  0.00  0.00    +0.001 A 
ATOM     28  C   UNL     1       4.986  -3.375   3.424  0.00  0.00    +0.004 A 
ATOM     29  C   UNL     1       3.881  -4.203   3.406  0.00  0.00    +0.046 A 
ATOM     30  C   UNL     1       2.863  -3.980   2.489  0.00  0.00    +0.122 A 
BRANCH  30  31
ATOM     31  O   UNL     1       1.772  -4.789   2.472  0.00  0.00    -0.506 OA
ATOM     32  H   UNL     1       1.861  -5.558   1.893  0.00  0.00    +0.292 HD
ENDBRANCH  30  31
ENDBRANCH  24  25
ENDBRANCH   1  24
TORSDOF 8
