REMARK  Name = ZINC39725515
REMARK  8 active torsions:
REMARK  status: ('A' for Active; 'I' for Inactive)
REMARK    1  A    between atoms: C_1  and  C_2
REMARK    2  A    between atoms: C_5  and  C_35
REMARK    3  A    between atoms: C_6  and  N_8
REMARK    4  A    between atoms: C_9  and  C_11
REMARK    5  A    between atoms: C_11  and  S_12
REMARK    6  A    between atoms: S_12  and  C_13
REMARK    7  A    between atoms: N_27  and  C_28
REMARK    8  A    between atoms: C_33  and  C_34
REMARK                            x       y       z     vdW  Elec       q    Type
REMARK                         _______ _______ _______ _____ _____    ______ ____
ROOT
ATOM      1  C   UNL     1       0.541  -2.801   7.699  0.00  0.00    +0.259 C 
ATOM      2  N   UNL     1       1.817  -3.513   7.588  0.00  0.00    -0.248 NA
ATOM      3  C   UNL     1       1.853  -4.802   7.598  0.00  0.00    +0.101 C 
ATOM      4  C   UNL     1       2.927  -5.819   7.509  0.00  0.00    +0.028 A 
ATOM      5  C   UNL     1       4.302  -5.761   7.381  0.00  0.00    +0.012 A 
ATOM      6  C   UNL     1       5.040  -6.934   7.325  0.00  0.00    +0.001 A 
ATOM      7  C   UNL     1       4.403  -8.161   7.396  0.00  0.00    +0.002 A 
ATOM      8  C   UNL     1       3.030  -8.236   7.523  0.00  0.00    +0.028 A 
ATOM      9  C   UNL     1       2.266  -7.064   7.582  0.00  0.00    +0.074 A 
ATOM     10  N   UNL     1       0.930  -6.863   7.703  0.00  0.00    -0.240 NA
ATOM     11  C   UNL     1       0.603  -5.600   7.721  0.00  0.00    +0.152 C 
ATOM     12  C   UNL     1      -0.692  -4.898   7.833  0.00  0.00    +0.274 C 
ATOM     13  O   UNL     1      -1.727  -5.528   7.934  0.00  0.00    -0.268 OA
ATOM     14  N   UNL     1      -0.713  -3.549   7.821  0.00  0.00    -0.234 N 
ENDROOT
BRANCH  14  15
ATOM     15  C   UNL     1      -1.928  -2.867   7.926  0.00  0.00    +0.042 A 
ATOM     16  C   UNL     1      -2.647  -2.545   6.781  0.00  0.00    +0.024 A 
ATOM     17  C   UNL     1      -3.847  -1.871   6.888  0.00  0.00    +0.002 A 
ATOM     18  C   UNL     1      -4.335  -1.518   8.133  0.00  0.00    +0.000 A 
ATOM     19  C   UNL     1      -3.623  -1.837   9.274  0.00  0.00    +0.005 A 
ATOM     20  C   UNL     1      -2.424  -2.516   9.175  0.00  0.00    -0.029 A 
ATOM     21  C   UNL     1      -1.652  -2.869  10.420  0.00  0.00    +0.045 C 
ENDBRANCH  14  15
BRANCH   1  22
ATOM     22  S   UNL     1       0.391  -1.734   6.239  0.00  0.00    -0.106 S 
BRANCH  22  23
ATOM     23  C   UNL     1       0.280  -2.900   4.854  0.00  0.00    +0.168 C 
BRANCH  23  25
ATOM     24  N   UNL     1       0.052  -2.797   2.393  0.00  0.00    -0.285 N 
ATOM     25  C   UNL     1       0.150  -2.135   3.562  0.00  0.00    +0.227 C 
ATOM     26  O   UNL     1       0.134  -0.922   3.575  0.00  0.00    -0.275 OA
ATOM     27  H   UNL     1      -0.016  -3.765   2.388  0.00  0.00    +0.155 HD
BRANCH  24  33
ATOM     28  C   UNL     1       1.264   1.227  -0.158  0.00  0.00    +0.044 C 
ATOM     29  C   UNL     1       0.628  -0.137  -0.079  0.00  0.00    -0.049 A 
ATOM     30  C   UNL     1       0.039  -0.690  -1.201  0.00  0.00    +0.004 A 
ATOM     31  C   UNL     1      -0.546  -1.941  -1.133  0.00  0.00    +0.005 A 
ATOM     32  C   UNL     1      -0.543  -2.643   0.057  0.00  0.00    -0.029 A 
ATOM     33  C   UNL     1       0.048  -2.090   1.185  0.00  0.00    +0.037 A 
ATOM     34  C   UNL     1       0.639  -0.835   1.112  0.00  0.00    +0.027 A 
ATOM     35  C   UNL     1      -1.181  -4.006   0.131  0.00  0.00    +0.045 C 
ENDBRANCH  24  33
ENDBRANCH  23  25
ENDBRANCH  22  23
ENDBRANCH   1  22
TORSDOF 5
