REMARK  Name = ZINC06074208
REMARK  6 active torsions:
REMARK  status: ('A' for Active; 'I' for Inactive)
REMARK    1  A    between atoms: C_1  and  C_2
REMARK    2  A    between atoms: C_2  and  C_4
REMARK    3  A    between atoms: C_15  and  S_20
REMARK    4  A    between atoms: S_20  and  C_21
REMARK    5  A    between atoms: C_26  and  N_27
REMARK    6  A    between atoms: C_30  and  C_33
REMARK                            x       y       z     vdW  Elec       q    Type
REMARK                         _______ _______ _______ _____ _____    ______ ____
ROOT
ATOM      1  C   UNL     1      -1.259  -0.755   0.010  0.00  0.00    +0.017 A 
ATOM      2  C   UNL     1      -2.482  -0.072   0.020  0.00  0.00    +0.013 A 
ATOM      3  C   UNL     1      -3.649  -0.780   0.027  0.00  0.00    +0.024 A 
ATOM      4  C   UNL     1      -3.625  -2.175   0.025  0.00  0.00    +0.031 A 
ATOM      5  C   UNL     1      -2.417  -2.861   0.015  0.00  0.00    -0.021 A 
ATOM      6  C   UNL     1      -1.241  -2.153   0.002  0.00  0.00    +0.017 A 
ATOM      7  C   UNL     1      -2.341  -4.364   0.012  0.00  0.00    +0.045 C 
ATOM      8  C   UNL     1      -3.711  -5.001  -0.278  0.00  0.00    +0.024 C 
ATOM      9  C   UNL     1      -3.904  -4.856  -1.796  0.00  0.00    +0.022 C 
ATOM     10  C   UNL     1      -2.494  -4.716  -2.401  0.00  0.00    +0.070 C 
ATOM     11  C   UNL     1      -1.482  -4.791  -1.209  0.00  0.00    +0.101 C 
ATOM     12 CL   UNL     1      -0.877  -6.476  -0.997  0.00  0.00    -0.120 Cl
ATOM     13  C   UNL     1      -4.817  -4.285   0.487  0.00  0.00    +0.104 C 
ATOM     14  N   UNL     1      -4.832  -2.868   0.032  0.00  0.00    -0.336 N 
ATOM     15  H   UNL     1      -5.658  -2.429  -0.227  0.00  0.00    +0.147 HD
ENDROOT
BRANCH  13  16
ATOM     16  C   UNL     1      -6.145  -4.918   0.164  0.00  0.00    -0.027 A 
ATOM     17  C   UNL     1      -6.795  -4.599  -1.014  0.00  0.00    +0.005 A 
ATOM     18  C   UNL     1      -8.014  -5.180  -1.311  0.00  0.00    +0.000 A 
ATOM     19  C   UNL     1      -8.583  -6.080  -0.429  0.00  0.00    +0.000 A 
ATOM     20  C   UNL     1      -7.933  -6.400   0.748  0.00  0.00    +0.000 A 
ATOM     21  C   UNL     1      -6.712  -5.822   1.043  0.00  0.00    +0.005 A 
ENDBRANCH  13  16
BRANCH   1  23
ATOM     22  C   UNL     1      -0.018   1.503   0.010  0.00  0.00    +0.091 C 
ATOM     23  C   UNL     1       0.002  -0.004   0.002  0.00  0.00    +0.160 C 
ATOM     24  O   UNL     1       1.061  -0.596  -0.011  0.00  0.00    -0.292 OA
ENDBRANCH   1  23
BRANCH  10  25
ATOM     25  S   UNL     1      -2.180  -6.069  -3.567  0.00  0.00    -0.118 S 
BRANCH  25  26
ATOM     26  C   UNL     1      -0.610  -5.675  -4.264  0.00  0.00    +0.038 A 
ATOM     27  C   UNL     1       0.066  -4.531  -3.856  0.00  0.00    +0.017 A 
ATOM     28  C   UNL     1       1.296  -4.226  -4.404  0.00  0.00    +0.001 A 
ATOM     29  C   UNL     1       1.855  -5.057  -5.358  0.00  0.00    +0.002 A 
ATOM     30  C   UNL     1       1.186  -6.196  -5.767  0.00  0.00    +0.034 A 
ATOM     31  C   UNL     1      -0.042  -6.511  -5.218  0.00  0.00    +0.140 A 
BRANCH  31  32
ATOM     32  N   UNL     1      -0.755  -7.733  -5.651  0.00  0.00    +0.058 N 
ATOM     33  O   UNL     1      -0.260  -8.460  -6.481  0.00  0.00    -0.126 OA
ATOM     34  O   UNL     1      -1.832  -8.005  -5.174  0.00  0.00    -0.126 OA
ENDBRANCH  31  32
ENDBRANCH  25  26
ENDBRANCH  10  25
TORSDOF 5
