REMARK  Name = ZINC01155462
REMARK  8 active torsions:
REMARK  status: ('A' for Active; 'I' for Inactive)
REMARK    1  A    between atoms: C_1  and  C_2
REMARK    2  A    between atoms: C_5  and  C_8
REMARK    3  A    between atoms: C_8  and  C_10
REMARK    4  A    between atoms: C_12  and  C_24
REMARK    5  A    between atoms: C_18  and  C_19
REMARK    6  A    between atoms: C_18  and  O_23
REMARK    7  A    between atoms: C_27  and  C_29
REMARK    8  A    between atoms: C_33  and  N_35
REMARK                            x       y       z     vdW  Elec       q    Type
REMARK                         _______ _______ _______ _____ _____    ______ ____
ROOT
ATOM      1  C   UNL     1       0.075  -5.006   1.280  0.00  0.00    +0.147 C 
ATOM      2  C   UNL     1       1.518  -5.146   1.775  0.00  0.00    +0.156 C 
ATOM      3  N   UNL     1       2.276  -5.958   0.822  0.00  0.00    -0.289 N 
ATOM      4  C   UNL     1       1.678  -6.901   0.078  0.00  0.00    +0.302 C 
ATOM      5  O   UNL     1       2.356  -7.555  -0.691  0.00  0.00    -0.253 OA
ATOM      6  N   UNL     1       0.362  -7.151   0.149  0.00  0.00    -0.264 N 
ATOM      7  C   UNL     1      -0.510  -6.406   1.065  0.00  0.00    +0.243 C 
ATOM      8  H   UNL     1       3.230  -5.812   0.726  0.00  0.00    +0.151 HD
ATOM      9  H   UNL     1      -0.022  -7.839  -0.417  0.00  0.00    +0.153 HD
ENDROOT
BRANCH   2  10
ATOM     10  C   UNL     1       2.147  -3.782   1.888  0.00  0.00    +0.127 A 
ATOM     11  C   UNL     1       2.298  -3.078   3.028  0.00  0.00    +0.047 A 
ATOM     12  C   UNL     1       2.928  -1.865   2.683  0.00  0.00    +0.050 A 
ATOM     13  C   UNL     1       3.128  -1.896   1.339  0.00  0.00    +0.135 A 
ATOM     14  O   UNL     1       2.654  -3.067   0.871  0.00  0.00    -0.458 OA
BRANCH  13  15
ATOM     15  C   UNL     1       3.760  -0.831   0.532  0.00  0.00    +0.019 A 
ATOM     16  C   UNL     1       4.221   0.335   1.147  0.00  0.00    +0.012 A 
ATOM     17  C   UNL     1       4.810   1.324   0.388  0.00  0.00    +0.003 A 
ATOM     18  C   UNL     1       4.945   1.163  -0.980  0.00  0.00    +0.033 A 
ATOM     19  C   UNL     1       4.491   0.011  -1.595  0.00  0.00    +0.127 A 
ATOM     20  C   UNL     1       3.905  -0.990  -0.847  0.00  0.00    +0.044 A 
BRANCH  19  21
ATOM     21  N   UNL     1       4.639  -0.153  -3.059  0.00  0.00    +0.056 N 
ATOM     22  O   UNL     1       5.157   0.721  -3.715  0.00  0.00    -0.126 OA
ATOM     23  O   UNL     1       4.244  -1.160  -3.598  0.00  0.00    -0.126 OA
ENDBRANCH  19  21
ENDBRANCH  13  15
ENDBRANCH   2  10
BRANCH   7  24
ATOM     24  C   UNL     1      -1.912  -6.288   0.463  0.00  0.00    +0.436 C 
ATOM     25  F   UNL     1      -1.837  -5.621  -0.765  0.00  0.00    -0.166 F 
ATOM     26  F   UNL     1      -2.444  -7.567   0.267  0.00  0.00    -0.166 F 
ATOM     27  F   UNL     1      -2.735  -5.569   1.335  0.00  0.00    -0.166 F 
ENDBRANCH   7  24
BRANCH   1  28
ATOM     28  C   UNL     1       0.058  -4.245  -0.021  0.00  0.00    +0.173 C 
ATOM     29  O   UNL     1       0.060  -4.846  -1.075  0.00  0.00    -0.292 OA
BRANCH  28  34
ATOM     30  C   UNL     1      -0.018   1.503   0.010  0.00  0.00    +0.044 C 
ATOM     31  C   UNL     1       0.002  -0.004   0.002  0.00  0.00    -0.050 A 
ATOM     32  C   UNL     1       0.006  -0.686  -1.202  0.00  0.00    +0.004 A 
ATOM     33  C   UNL     1       0.024  -2.064  -1.218  0.00  0.00    +0.011 A 
ATOM     34  C   UNL     1       0.039  -2.774  -0.013  0.00  0.00    +0.018 A 
ATOM     35  C   UNL     1       0.036  -2.078   1.200  0.00  0.00    +0.011 A 
ATOM     36  C   UNL     1       0.023  -0.699   1.199  0.00  0.00    +0.004 A 
ENDBRANCH  28  34
ENDBRANCH   1  28
BRANCH   7  37
ATOM     37  O   UNL     1      -0.583  -7.091   2.317  0.00  0.00    -0.364 OA
ATOM     38  H   UNL     1      -0.944  -7.985   2.256  0.00  0.00    +0.212 HD
ENDBRANCH   7  37
TORSDOF 7
