REMARK  Name = ZINC59105527
REMARK  9 active torsions:
REMARK  status: ('A' for Active; 'I' for Inactive)
REMARK    1  A    between atoms: C_1  and  C_2
REMARK    2  A    between atoms: C_2  and  O_3
REMARK    3  A    between atoms: O_3  and  C_4
REMARK    4  A    between atoms: C_7  and  N_10
REMARK    5  A    between atoms: C_12  and  C_24
REMARK    6  A    between atoms: C_16  and  C_17
REMARK    7  A    between atoms: C_24  and  O_26
REMARK    8  A    between atoms: O_26  and  C_27
REMARK    9  A    between atoms: C_27  and  C_28
REMARK                            x       y       z     vdW  Elec       q    Type
REMARK                         _______ _______ _______ _____ _____    ______ ____
ROOT
ATOM      1  N   UNL     1       1.099  -5.907  -1.831  0.00  0.00    -0.240 NA
ATOM      2  C   UNL     1       0.844  -6.452  -3.006  0.00  0.00    +0.120 C 
ATOM      3  C   UNL     1       0.891  -7.870  -3.396  0.00  0.00    +0.139 C 
ATOM      4  C   UNL     1       0.574  -8.160  -4.700  0.00  0.00    +0.209 C 
ATOM      5  O   UNL     1       0.591  -9.438  -5.146  0.00  0.00    -0.286 OA
ATOM      6  C   UNL     1       0.231  -7.101  -5.566  0.00  0.00    +0.065 C 
ATOM      7  C   UNL     1      -0.117  -7.167  -6.900  0.00  0.00    +0.065 C 
ATOM      8  S   UNL     1       0.347  -5.658  -4.525  0.00  0.00    -0.065 S 
ENDROOT
BRANCH   1  12
ATOM      9  C   UNL     1       0.777  -1.811  -1.336  0.00  0.00    +0.121 A 
ATOM     10  C   UNL     1       0.241  -2.667  -0.384  0.00  0.00    +0.048 A 
ATOM     11  C   UNL     1       0.346  -4.032  -0.544  0.00  0.00    +0.031 A 
ATOM     12  C   UNL     1       0.992  -4.554  -1.668  0.00  0.00    +0.065 A 
ATOM     13  C   UNL     1       1.530  -3.688  -2.624  0.00  0.00    +0.031 A 
ATOM     14  C   UNL     1       1.415  -2.324  -2.457  0.00  0.00    +0.048 A 
BRANCH   9  15
ATOM     15  O   UNL     1       0.671  -0.465  -1.174  0.00  0.00    -0.492 OA
BRANCH  15  17
ATOM     16  C   UNL     1      -0.019   1.526   0.010  0.00  0.00    +0.048 C 
ATOM     17  C   UNL     1       0.002  -0.004   0.002  0.00  0.00    +0.225 C 
ENDBRANCH  15  17
ENDBRANCH   9  15
ENDBRANCH   1  12
BRANCH   7  18
ATOM     18  C   UNL     1      -0.431  -5.988  -7.605  0.00  0.00    +0.130 A 
ATOM     19  C   UNL     1      -0.800  -5.907  -8.936  0.00  0.00    +0.050 A 
ATOM     20  C   UNL     1      -1.014  -4.549  -9.209  0.00  0.00    +0.056 A 
ATOM     21  C   UNL     1      -0.775  -3.867  -8.065  0.00  0.00    +0.165 A 
ATOM     22  O   UNL     1      -0.430  -4.735  -7.102  0.00  0.00    -0.450 OA
ATOM     23  I   UNL     1      -0.926  -1.791  -7.832  0.00  0.00    -0.001 I 
ENDBRANCH   7  18
BRANCH   3  24
ATOM     24  C   UNL     1       1.257  -8.916  -2.442  0.00  0.00    +0.346 C 
ATOM     25  O   UNL     1       1.286 -10.080  -2.798  0.00  0.00    -0.245 OA
BRANCH  24  26
ATOM     26  O   UNL     1       1.562  -8.592  -1.169  0.00  0.00    -0.461 OA
BRANCH  26  27
ATOM     27  C   UNL     1       1.910  -9.666  -0.292  0.00  0.00    +0.229 C 
ATOM     28  C   UNL     1       2.221  -9.108   1.098  0.00  0.00    +0.048 C 
ENDBRANCH  26  27
ENDBRANCH  24  26
ENDBRANCH   3  24
TORSDOF 7
