REMARK  Name = ZINC02257662
REMARK  4 active torsions:
REMARK  status: ('A' for Active; 'I' for Inactive)
REMARK    1  A    between atoms: C_1  and  S_2
REMARK    2  A    between atoms: S_2  and  C_3
REMARK    3  A    between atoms: C_6  and  C_27
REMARK    4  A    between atoms: C_17  and  C_19
REMARK                            x       y       z     vdW  Elec       q    Type
REMARK                         _______ _______ _______ _____ _____    ______ ____
ROOT
ATOM      1  C   UNL     1      -1.702  -0.454   0.016  0.00  0.00    +0.210 A 
ATOM      2  N   UNL     1      -2.167  -1.684   0.019  0.00  0.00    -0.141 NA
ATOM      3  N   UNL     1      -3.558  -1.588   0.034  0.00  0.00    -0.220 N 
ATOM      4  C   UNL     1      -4.565  -2.643   0.052  0.00  0.00    +0.175 C 
ATOM      5  C   UNL     1      -5.925  -2.070  -0.258  0.00  0.00    +0.026 C 
ATOM      6  C   UNL     1      -6.163  -0.756  -0.257  0.00  0.00    +0.050 C 
ATOM      7  C   UNL     1      -7.531  -0.286  -0.583  0.00  0.00    +0.038 A 
ATOM      8  C   UNL     1      -7.949   1.003  -0.278  0.00  0.00    +0.013 A 
ATOM      9  C   UNL     1      -9.232   1.397  -0.603  0.00  0.00    +0.001 A 
ATOM     10  C   UNL     1     -10.097   0.516  -1.229  0.00  0.00    +0.004 A 
ATOM     11  C   UNL     1      -9.689  -0.770  -1.535  0.00  0.00    +0.046 A 
ATOM     12  C   UNL     1      -8.408  -1.179  -1.214  0.00  0.00    +0.131 A 
ATOM     13  O   UNL     1      -7.971  -2.433  -1.493  0.00  0.00    -0.479 OA
ATOM     14  C   UNL     1      -7.057  -3.023  -0.569  0.00  0.00    +0.241 C 
ATOM     15  N   UNL     1      -5.166   0.182   0.033  0.00  0.00    -0.283 N 
ATOM     16  C   UNL     1      -3.854  -0.265   0.033  0.00  0.00    +0.220 A 
ATOM     17  N   UNL     1      -2.733   0.404   0.031  0.00  0.00    -0.187 NA
ATOM     18  H   UNL     1      -5.384   1.107   0.225  0.00  0.00    +0.155 HD
ENDROOT
BRANCH   4  19
ATOM     19  C   UNL     1      -4.595  -3.280   1.417  0.00  0.00    +0.016 A 
ATOM     20  C   UNL     1      -4.894  -2.518   2.531  0.00  0.00    +0.009 A 
ATOM     21  C   UNL     1      -4.922  -3.102   3.783  0.00  0.00    +0.001 A 
ATOM     22  C   UNL     1      -4.650  -4.450   3.924  0.00  0.00    +0.003 A 
ATOM     23  C   UNL     1      -4.351  -5.215   2.812  0.00  0.00    +0.039 A 
ATOM     24  C   UNL     1      -4.328  -4.632   1.557  0.00  0.00    +0.129 A 
ATOM     25  F   UNL     1      -4.041  -5.380   0.469  0.00  0.00    -0.205 F 
ENDBRANCH   4  19
BRANCH  14  26
ATOM     26  C   UNL     1      -7.787  -3.360   0.706  0.00  0.00    +0.034 A 
ATOM     27  C   UNL     1      -7.611  -4.416   1.537  0.00  0.00    +0.015 A 
ATOM     28  C   UNL     1      -8.405  -4.522   2.663  0.00  0.00    +0.008 A 
ATOM     29  C   UNL     1      -9.336  -3.567   2.904  0.00  0.00    +0.045 A 
ATOM     30  S   UNL     1      -9.104  -2.467   1.516  0.00  0.00    -0.098 S 
ENDBRANCH  14  26
BRANCH   1  32
ATOM     31  C   UNL     1      -0.022   1.810   0.012  0.00  0.00    +0.093 C 
ATOM     32  S   UNL     1       0.002  -0.004   0.002  0.00  0.00    -0.088 S 
ENDBRANCH   1  32
TORSDOF 3
