REMARK  Name = ZINC43604576
REMARK  10 active torsions:
REMARK  status: ('A' for Active; 'I' for Inactive)
REMARK    1  A    between atoms: C_1  and  C_2
REMARK    2  A    between atoms: C_13  and  O_30
REMARK    3  A    between atoms: C_17  and  C_29
REMARK    4  A    between atoms: C_22  and  C_28
REMARK    5  A    between atoms: C_23  and  C_25
REMARK    6  A    between atoms: C_25  and  C_27
REMARK    7  A    between atoms: O_30  and  C_31
REMARK    8  A    between atoms: C_31  and  C_33
REMARK    9  A    between atoms: C_33  and  C_34
REMARK   10  A    between atoms: C_34  and  N_35
REMARK                            x       y       z     vdW  Elec       q    Type
REMARK                         _______ _______ _______ _____ _____    ______ ____
ROOT
ATOM      1  C   UNL     1      -0.031   1.560   0.215  0.00  0.00    +0.008 C 
ATOM      2  C   UNL     1       0.011   0.034   0.114  0.00  0.00    -0.003 C 
ATOM      3  C   UNL     1      -1.428  -0.545   0.186  0.00  0.00    +0.008 C 
ATOM      4  C   UNL     1      -1.238  -1.837   0.989  0.00  0.00    -0.000 C 
ATOM      5  C   UNL     1      -2.480  -2.379   1.673  0.00  0.00    +0.000 C 
ATOM      6  C   UNL     1      -3.505  -2.801   0.614  0.00  0.00    +0.031 C 
ATOM      7  C   UNL     1      -4.656  -3.489   1.288  0.00  0.00    -0.027 C 
ATOM      8  C   UNL     1      -4.542  -4.112   2.424  0.00  0.00    -0.064 C 
ATOM      9  C   UNL     1      -5.777  -4.782   3.004  0.00  0.00    +0.075 C 
ATOM     10  C   UNL     1      -5.424  -6.232   3.345  0.00  0.00    +0.180 C 
ATOM     11  C   UNL     1      -4.210  -6.257   4.275  0.00  0.00    +0.046 C 
ATOM     12  C   UNL     1      -2.993  -5.678   3.551  0.00  0.00    +0.015 C 
ATOM     13  C   UNL     1      -3.261  -4.212   3.198  0.00  0.00    -0.008 C 
ATOM     14  C   UNL     1      -2.062  -3.614   2.483  0.00  0.00    +0.003 C 
ATOM     15  C   UNL     1      -0.951  -3.290   3.478  0.00  0.00    +0.005 C 
ATOM     16  C   UNL     1       0.252  -2.624   2.793  0.00  0.00    +0.008 C 
ATOM     17  C   UNL     1      -0.247  -1.379   2.092  0.00  0.00    -0.019 C 
ATOM     18  C   UNL     1       0.783  -0.558   1.320  0.00  0.00    +0.064 C 
ATOM     19  C   UNL     1      -0.972  -0.493   3.106  0.00  0.00    +0.012 C 
ATOM     20  C   UNL     1      -3.430  -3.432   4.503  0.00  0.00    +0.016 C 
ENDROOT
BRANCH  18  21
ATOM     21  C   UNL     1       1.325   0.549   2.187  0.00  0.00    +0.134 C 
ATOM     22  O   UNL     1       0.570   1.343   2.696  0.00  0.00    -0.297 OA
ATOM     23  C   UNL     1       2.809   0.666   2.420  0.00  0.00    +0.086 C 
ENDBRANCH  18  21
BRANCH  10  24
ATOM     24  O   UNL     1      -6.535  -6.853   3.994  0.00  0.00    -0.461 OA
BRANCH  24  25
ATOM     25  C   UNL     1      -7.433  -7.470   3.210  0.00  0.00    +0.306 C 
ATOM     26  O   UNL     1      -7.281  -7.482   2.012  0.00  0.00    -0.251 OA
BRANCH  25  27
ATOM     27  C   UNL     1      -8.632  -8.146   3.825  0.00  0.00    +0.102 C 
BRANCH  27  28
ATOM     28  C   UNL     1      -9.489  -8.767   2.720  0.00  0.00    -0.068 C 
BRANCH  28  29
ATOM     29  N   UNL     1     -10.657  -9.426   3.319  0.00  0.00    +0.380 N 
ATOM     30  C   UNL     1     -10.210 -10.549   4.152  0.00  0.00    -0.079 C 
ATOM     31  C   UNL     1     -11.416 -11.189   4.842  0.00  0.00    -0.019 C 
ATOM     32  C   UNL     1     -12.395 -11.698   3.780  0.00  0.00    -0.004 C 
ATOM     33  C   UNL     1     -12.797 -10.533   2.871  0.00  0.00    -0.019 C 
ATOM     34  C   UNL     1     -11.540  -9.917   2.254  0.00  0.00    -0.079 C 
ATOM     35  H   UNL     1     -11.159  -8.764   3.892  0.00  0.00    -0.082 HD
ENDBRANCH  28  29
ENDBRANCH  27  28
ENDBRANCH  25  27
ENDBRANCH  24  25
ENDBRANCH  10  24
TORSDOF 6
