REMARK  Name = ZINC20503293
REMARK  4 active torsions:
REMARK  status: ('A' for Active; 'I' for Inactive)
REMARK    1  A    between atoms: C_14  and  C_28
REMARK    2  A    between atoms: C_17  and  C_19
REMARK    3  A    between atoms: C_19  and  S_20
REMARK    4  A    between atoms: S_20  and  C_21
REMARK                            x       y       z     vdW  Elec       q    Type
REMARK                         _______ _______ _______ _____ _____    ______ ____
ROOT
ATOM      1  C   UNL     1      -0.016   1.378   0.015  0.00  0.00    +0.002 A 
ATOM      2  C   UNL     1       0.004  -0.006   0.008  0.00  0.00    +0.002 A 
ATOM      3  C   UNL     1       1.213  -0.678  -0.022  0.00  0.00    +0.025 A 
ATOM      4  C   UNL     1       2.398   0.026  -0.045  0.00  0.00    +0.058 A 
ATOM      5  C   UNL     1       2.397   1.442  -0.011  0.00  0.00    +0.053 A 
ATOM      6  C   UNL     1       1.158   2.097   0.006  0.00  0.00    +0.025 A 
ATOM      7  N   UNL     1       3.531   2.149   0.026  0.00  0.00    -0.316 N 
ATOM      8  C   UNL     1       4.689   2.089  -0.525  0.00  0.00    +0.017 C 
ATOM      9  C   UNL     1       5.543   3.342  -0.395  0.00  0.00    +0.051 C 
ATOM     10  C   UNL     1       6.455   3.466  -1.615  0.00  0.00    +0.014 C 
ATOM     11  C   UNL     1       7.353   2.226  -1.668  0.00  0.00    +0.080 C 
ATOM     12  C   UNL     1       6.491   0.999  -1.694  0.00  0.00    +0.163 C 
ATOM     13  C   UNL     1       5.255   0.956  -1.156  0.00  0.00    +0.040 C 
ATOM     14  C   UNL     1       4.515  -0.334  -1.256  0.00  0.00    +0.182 C 
ATOM     15  N   UNL     1       3.630  -0.596  -0.149  0.00  0.00    -0.254 N 
ATOM     16  C   UNL     1       4.011  -1.467   0.806  0.00  0.00    +0.231 C 
ATOM     17  O   UNL     1       5.087  -2.021   0.728  0.00  0.00    -0.274 OA
ATOM     18  O   UNL     1       6.976  -0.115  -2.283  0.00  0.00    -0.292 OA
ATOM     19  H   UNL     1       3.302   2.958   0.735  0.00  0.00    +0.152 HD
ENDROOT
BRANCH  14  20
ATOM     20  C   UNL     1       3.704  -0.324  -2.526  0.00  0.00    +0.130 A 
ATOM     21  C   UNL     1       4.042  -0.925  -3.680  0.00  0.00    +0.047 A 
ATOM     22  C   UNL     1       3.001  -0.660  -4.600  0.00  0.00    +0.041 A 
ATOM     23  C   UNL     1       2.089   0.087  -3.953  0.00  0.00    +0.195 A 
ATOM     24  O   UNL     1       2.517   0.283  -2.695  0.00  0.00    -0.466 OA
ENDBRANCH  14  20
BRANCH  16  25
ATOM     25  C   UNL     1       3.099  -1.754   1.971  0.00  0.00    +0.170 C 
BRANCH  25  26
ATOM     26  S   UNL     1       3.888  -2.957   3.075  0.00  0.00    -0.116 S 
BRANCH  26  27
ATOM     27  C   UNL     1       2.713  -3.184   4.369  0.00  0.00    +0.008 A 
ATOM     28  C   UNL     1       1.512  -2.486   4.348  0.00  0.00    +0.016 A 
ATOM     29  C   UNL     1       0.591  -2.669   5.361  0.00  0.00    +0.021 A 
ATOM     30  C   UNL     1       0.868  -3.540   6.400  0.00  0.00    +0.041 A 
ATOM     31  C   UNL     1       2.066  -4.232   6.426  0.00  0.00    +0.021 A 
ATOM     32  C   UNL     1       2.989  -4.057   5.414  0.00  0.00    +0.016 A 
ATOM     33 CL   UNL     1      -0.290  -3.764   7.674  0.00  0.00    -0.084 Cl
ENDBRANCH  26  27
ENDBRANCH  25  26
ENDBRANCH  16  25
TORSDOF 4
