REMARK  Name = ZINC24851252
REMARK  7 active torsions:
REMARK  status: ('A' for Active; 'I' for Inactive)
REMARK    1  A    between atoms: C_1  and  C_2
REMARK    2  A    between atoms: C_9  and  C_16
REMARK    3  A    between atoms: C_11  and  O_12
REMARK    4  A    between atoms: C_16  and  O_17
REMARK    5  A    between atoms: O_17  and  C_18
REMARK    6  A    between atoms: C_18  and  C_20
REMARK    7  A    between atoms: C_26  and  C_28
REMARK                            x       y       z     vdW  Elec       q    Type
REMARK                         _______ _______ _______ _____ _____    ______ ____
ROOT
ATOM      1  O   UNL     1      -1.455   2.085  -0.184  0.00  0.00    -0.459 OA
ENDROOT
BRANCH   1   2
ATOM      2  C   UNL     1      -0.319   1.406   0.038  0.00  0.00    +0.328 C 
ATOM      3  O   UNL     1      -0.356   0.217   0.245  0.00  0.00    -0.249 OA
BRANCH   2   4
ATOM      4  C   UNL     1       1.005   2.127   0.022  0.00  0.00    +0.185 C 
ATOM      5  C   UNL     1       1.244   2.754  -1.368  0.00  0.00    +0.035 C 
ATOM      6  C   UNL     1       2.764   2.535  -1.590  0.00  0.00    +0.021 C 
ATOM      7  C   UNL     1       2.983   1.159  -0.912  0.00  0.00    +0.109 C 
ATOM      8  N   UNL     1       2.096   1.173   0.265  0.00  0.00    -0.288 N 
ATOM      9  C   UNL     1       2.260   0.434   1.380  0.00  0.00    +0.222 C 
ATOM     10  O   UNL     1       1.512   0.584   2.323  0.00  0.00    -0.275 OA
BRANCH   9  11
ATOM     11  C   UNL     1       3.373  -0.580   1.456  0.00  0.00    +0.048 C 
ATOM     12  C   UNL     1       4.718   0.145   1.534  0.00  0.00    +0.019 C 
ATOM     13  C   UNL     1       5.848  -0.884   1.611  0.00  0.00    -0.009 C 
ATOM     14  C   UNL     1       5.663  -1.752   2.857  0.00  0.00    +0.007 C 
ATOM     15  C   UNL     1       4.318  -2.476   2.779  0.00  0.00    -0.009 C 
ATOM     16  C   UNL     1       3.188  -1.447   2.702  0.00  0.00    +0.019 C 
ATOM     17  C   UNL     1       4.287  -3.362   1.532  0.00  0.00    +0.007 C 
ATOM     18  C   UNL     1       4.472  -2.494   0.286  0.00  0.00    -0.009 C 
ATOM     19  C   UNL     1       5.817  -1.769   0.363  0.00  0.00    +0.007 C 
ATOM     20  C   UNL     1       3.342  -1.465   0.209  0.00  0.00    +0.019 C 
ENDBRANCH   9  11
ENDBRANCH   2   4
ENDBRANCH   1   2
BRANCH   1  21
ATOM     21  C   UNL     1      -2.692   1.325  -0.160  0.00  0.00    +0.268 C 
BRANCH  21  30
ATOM     22  C   UNL     1     -11.583   0.662  -0.279  0.00  0.00    +0.109 C 
ATOM     23  C   UNL     1     -10.157   1.126  -0.134  0.00  0.00    +0.214 C 
ATOM     24  O   UNL     1      -9.918   2.204   0.369  0.00  0.00    -0.276 OA
ATOM     25  N   UNL     1      -9.146   0.344  -0.561  0.00  0.00    -0.286 N 
ATOM     26  C   UNL     1      -7.835   0.818  -0.529  0.00  0.00    +0.037 A 
ATOM     27  C   UNL     1      -6.785  -0.067  -0.278  0.00  0.00    +0.024 A 
ATOM     28  C   UNL     1      -5.497   0.382  -0.243  0.00  0.00    +0.014 A 
ATOM     29  C   UNL     1      -5.226   1.738  -0.460  0.00  0.00    +0.024 A 
ATOM     30  C   UNL     1      -3.854   2.247  -0.427  0.00  0.00    +0.007 A 
ATOM     31  C   UNL     1      -3.656   3.575  -0.639  0.00  0.00    +0.095 A 
ATOM     32  C   UNL     1      -4.759   4.416  -0.892  0.00  0.00    +0.285 A 
ATOM     33  O   UNL     1      -6.015   3.943  -0.921  0.00  0.00    -0.425 OA
ATOM     34  C   UNL     1      -6.280   2.636  -0.713  0.00  0.00    +0.141 A 
ATOM     35  C   UNL     1      -7.584   2.164  -0.745  0.00  0.00    +0.070 A 
ATOM     36  H   UNL     1      -9.356  -0.669  -0.937  0.00  0.00    +0.155 HD
BRANCH  32  37
ATOM     37  O   UNL     1      -4.567   5.604  -1.085  0.00  0.00    -0.480 OA
ATOM     38  H   UNL     1      -5.418   6.273  -1.284  0.00  0.00    +0.295 HD
ENDBRANCH  32  37
ENDBRANCH  21  30
ENDBRANCH   1  21
TORSDOF 6
