REMARK  Name = ZINC12199839
REMARK  7 active torsions:
REMARK  status: ('A' for Active; 'I' for Inactive)
REMARK    1  A    between atoms: C_4  and  C_7
REMARK    2  A    between atoms: C_7  and  N_61
REMARK    3  A    between atoms: C_13  and  C_15
REMARK    4  A    between atoms: C_15  and  C_16
REMARK    5  A    between atoms: N_18  and  C_19
REMARK    6  A    between atoms: C_19  and  C_20
REMARK    7  A    between atoms: C_20  and  C_25
REMARK                            x       y       z     vdW  Elec       q    Type
REMARK                         _______ _______ _______ _____ _____    ______ ____
ROOT
ATOM      1  C   UNL     1       4.396   5.158  -1.923  0.00  0.00    +0.089 C 
ENDROOT
BRANCH   1   7
ATOM      2  C   UNL     1       6.123   7.679  -4.105  0.00  0.00    -0.058 C 
ATOM      3  C   UNL     1       5.051   7.740  -5.195  0.00  0.00    +0.085 C 
ATOM      4  N   UNL     1       4.393   6.443  -5.323  0.00  0.00    -0.318 N 
ATOM      5  C   UNL     1       4.448   5.504  -4.373  0.00  0.00    +0.200 C 
ATOM      6  O   UNL     1       3.846   4.465  -4.548  0.00  0.00    -0.278 OA
ATOM      7  C   UNL     1       5.224   5.680  -3.099  0.00  0.00    +0.028 C 
ATOM      8  H   UNL     1       3.893   6.255  -6.132  0.00  0.00    +0.149 HD
ATOM      9  N   UNL     1       5.506   7.112  -2.889  0.00  0.00    +0.391 N 
ATOM     10  H   UNL     1       4.625   7.604  -2.699  0.00  0.00    -0.080 HD
BRANCH   9  11
ATOM     11  C   UNL     1       6.413   7.286  -1.731  0.00  0.00    -0.042 C 
BRANCH  11  15
ATOM     12  C   UNL     1       6.357  11.385  -0.532  0.00  0.00    +0.000 A 
ATOM     13  C   UNL     1       5.450  10.494   0.011  0.00  0.00    +0.000 A 
ATOM     14  C   UNL     1       5.468   9.168  -0.378  0.00  0.00    +0.002 A 
ATOM     15  C   UNL     1       6.393   8.732  -1.308  0.00  0.00    -0.064 A 
ATOM     16  C   UNL     1       7.304   9.622  -1.846  0.00  0.00    +0.002 A 
ATOM     17  C   UNL     1       7.282  10.950  -1.462  0.00  0.00    +0.000 A 
ENDBRANCH  11  15
ENDBRANCH   9  11
ENDBRANCH   1   7
BRANCH   1  18
ATOM     18  C   UNL     1       3.134   5.973  -1.797  0.00  0.00    +0.212 C 
ATOM     19  O   UNL     1       2.962   6.939  -2.509  0.00  0.00    -0.276 OA
ATOM     20  N   UNL     1       2.197   5.627  -0.892  0.00  0.00    -0.315 N 
ATOM     21  H   UNL     1       2.334   4.854  -0.322  0.00  0.00    +0.149 HD
BRANCH  20  22
ATOM     22  C   UNL     1       0.971   6.419  -0.769  0.00  0.00    +0.115 C 
BRANCH  22  23
ATOM     23  C   UNL     1       0.130   5.881   0.391  0.00  0.00    +0.011 C 
ATOM     24  C   UNL     1       0.960   5.886   1.691  0.00  0.00    +0.013 C 
ATOM     25  C   UNL     1       0.571   7.217   2.384  0.00  0.00    +0.001 C 
ATOM     26  C   UNL     1      -0.943   7.332   2.078  0.00  0.00    +0.001 C 
ATOM     27  C   UNL     1      -1.079   6.800   0.636  0.00  0.00    +0.013 C 
BRANCH  23  28
ATOM     28  C   UNL     1      -0.338   4.482   0.083  0.00  0.00    -0.040 A 
ATOM     29  C   UNL     1      -1.013   3.752   1.044  0.00  0.00    +0.004 A 
ATOM     30  C   UNL     1      -1.442   2.469   0.762  0.00  0.00    +0.000 A 
ATOM     31  C   UNL     1      -1.197   1.915  -0.481  0.00  0.00    +0.000 A 
ATOM     32  C   UNL     1      -0.518   2.644  -1.440  0.00  0.00    +0.000 A 
ATOM     33  C   UNL     1      -0.094   3.929  -1.160  0.00  0.00    +0.004 A 
ENDBRANCH  23  28
ENDBRANCH  22  23
ENDBRANCH  20  22
ENDBRANCH   1  18
TORSDOF 7
