REMARK  Name = ZINC38752956
REMARK  14 active torsions:
REMARK  status: ('A' for Active; 'I' for Inactive)
REMARK    1  A    between atoms: C_1  and  C_2
REMARK    2  A    between atoms: C_2  and  C_3
REMARK    3  A    between atoms: C_3  and  O_4
REMARK    4  A    between atoms: O_4  and  C_5
REMARK    5  A    between atoms: C_5  and  C_7
REMARK    6  A    between atoms: C_10  and  O_13
REMARK    7  A    between atoms: O_13  and  C_14
REMARK    8  A    between atoms: C_15  and  C_36
REMARK    9  A    between atoms: C_18  and  C_20
REMARK   10  A    between atoms: C_23  and  O_27
REMARK   11  A    between atoms: C_25  and  O_26
REMARK   12  A    between atoms: O_27  and  C_28
REMARK   13  A    between atoms: C_28  and  C_29
REMARK   14  A    between atoms: C_34  and  C_35
REMARK                            x       y       z     vdW  Elec       q    Type
REMARK                         _______ _______ _______ _____ _____    ______ ____
ROOT
ATOM      1  C   UNL     1       2.072  -8.801   3.581  0.00  0.00    +0.156 C 
ATOM      2  C   UNL     1       2.715  -8.270   4.641  0.00  0.00    +0.098 C 
ATOM      3  N   UNL     1       3.271  -9.231   5.388  0.00  0.00    -0.179 NA
ATOM      4  N   UNL     1       3.093 -10.378   4.974  0.00  0.00    -0.294 N 
ATOM      5  C   UNL     1       2.286 -10.296   3.744  0.00  0.00    +0.200 C 
ATOM      6  C   UNL     1       2.795  -6.795   4.943  0.00  0.00    +0.071 C 
ATOM      7  H   UNL     1       3.423 -11.192   5.387  0.00  0.00    +0.184 HD
ENDROOT
BRANCH   5   8
ATOM      8  C   UNL     1       0.969 -11.007   3.919  0.00  0.00    +0.025 A 
ATOM      9  C   UNL     1       0.493 -11.279   5.187  0.00  0.00    +0.013 A 
ATOM     10  C   UNL     1      -0.714 -11.931   5.351  0.00  0.00    +0.046 A 
ATOM     11  C   UNL     1      -1.452 -12.315   4.240  0.00  0.00    +0.124 A 
ATOM     12  C   UNL     1      -0.977 -12.043   2.966  0.00  0.00    +0.091 A 
ATOM     13  C   UNL     1       0.232 -11.384   2.805  0.00  0.00    +0.126 A 
BRANCH  13  14
ATOM     14  O   UNL     1       0.697 -11.111   1.558  0.00  0.00    -0.506 OA
ATOM     15  H   UNL     1       1.250 -11.810   1.183  0.00  0.00    +0.292 HD
ENDBRANCH  13  14
BRANCH  11  16
ATOM     16  O   UNL     1      -2.639 -12.956   4.401  0.00  0.00    -0.487 OA
BRANCH  16  17
ATOM     17  C   UNL     1      -3.066 -13.203   5.742  0.00  0.00    +0.264 C 
BRANCH  17  18
ATOM     18  C   UNL     1      -4.393 -13.918   5.723  0.00  0.00    -0.007 A 
ATOM     19  C   UNL     1      -4.992 -14.232   4.517  0.00  0.00    +0.007 A 
ATOM     20  C   UNL     1      -6.208 -14.887   4.499  0.00  0.00    +0.000 A 
ATOM     21  C   UNL     1      -6.826 -15.229   5.688  0.00  0.00    +0.000 A 
ATOM     22  C   UNL     1      -6.227 -14.916   6.893  0.00  0.00    +0.004 A 
ATOM     23  C   UNL     1      -5.008 -14.264   6.911  0.00  0.00    -0.044 A 
ATOM     24  C   UNL     1      -4.353 -13.928   8.225  0.00  0.00    +0.044 C 
ENDBRANCH  17  18
ENDBRANCH  16  17
ENDBRANCH  11  16
ENDBRANCH   5   8
BRANCH   1  25
ATOM     25  O   UNL     1       1.395  -8.156   2.607  0.00  0.00    -0.456 OA
BRANCH  25  29
ATOM     26  C   UNL     1       2.931  -8.265  -1.222  0.00  0.00    +0.059 A 
ATOM     27  C   UNL     1       1.687  -7.675  -0.983  0.00  0.00    +0.018 A 
ATOM     28  C   UNL     1       1.177  -7.641   0.296  0.00  0.00    +0.047 A 
ATOM     29  C   UNL     1       1.899  -8.192   1.349  0.00  0.00    +0.128 A 
ATOM     30  C   UNL     1       3.138  -8.779   1.115  0.00  0.00    +0.047 A 
ATOM     31  C   UNL     1       3.651  -8.823  -0.162  0.00  0.00    +0.018 A 
BRANCH  26  32
ATOM     32  C   UNL     1       3.480  -8.304  -2.591  0.00  0.00    +0.339 C 
ATOM     33  O   UNL     1       4.560  -8.822  -2.797  0.00  0.00    -0.245 OA
BRANCH  32  34
ATOM     34  O   UNL     1       2.784  -7.765  -3.611  0.00  0.00    -0.461 OA
BRANCH  34  35
ATOM     35  C   UNL     1       3.376  -7.839  -4.910  0.00  0.00    +0.232 C 
BRANCH  35  37
ATOM     36  C   UNL     1       3.081  -7.259  -7.322  0.00  0.00    +0.007 C 
ATOM     37  C   UNL     1       2.447  -7.180  -5.932  0.00  0.00    +0.038 C 
ENDBRANCH  35  37
ENDBRANCH  34  35
ENDBRANCH  32  34
ENDBRANCH  26  32
ENDBRANCH  25  29
ENDBRANCH   1  25
TORSDOF 11
