REMARK  Name = ZINC00677278
REMARK  6 active torsions:
REMARK  status: ('A' for Active; 'I' for Inactive)
REMARK    1  A    between atoms: C_1  and  C_2
REMARK    2  A    between atoms: C_3  and  C_21
REMARK    3  A    between atoms: C_4  and  C_14
REMARK    4  A    between atoms: C_18  and  O_20
REMARK    5  A    between atoms: C_21  and  O_23
REMARK    6  A    between atoms: O_23  and  C_24
REMARK                            x       y       z     vdW  Elec       q    Type
REMARK                         _______ _______ _______ _____ _____    ______ ____
ROOT
ATOM      1  C   UNL     1       5.420   2.355   2.849  0.00  0.00    +0.061 C 
ATOM      2  C   UNL     1       4.113   1.655   2.576  0.00  0.00    +0.016 C 
ATOM      3  C   UNL     1       3.959   0.367   2.927  0.00  0.00    +0.065 C 
ATOM      4  C   UNL     1       2.670  -0.359   2.679  0.00  0.00    +0.092 C 
ATOM      5  C   UNL     1       1.827   0.367   1.659  0.00  0.00    +0.024 C 
ATOM      6  C   UNL     1       2.072   1.659   1.358  0.00  0.00    +0.015 C 
ATOM      7  N   UNL     1       3.092   2.335   1.973  0.00  0.00    -0.321 N 
ATOM      8  C   UNL     1       1.236   2.391   0.337  0.00  0.00    +0.051 C 
ATOM      9  C   UNL     1      -0.185   1.824   0.335  0.00  0.00    +0.014 C 
ATOM     10  C   UNL     1      -0.110   0.325   0.024  0.00  0.00    +0.080 C 
ATOM     11  C   UNL     1       0.783  -0.339   1.036  0.00  0.00    +0.162 C 
ATOM     12  O   UNL     1       0.599  -1.506   1.320  0.00  0.00    -0.292 OA
ATOM     13  H   UNL     1       3.084   3.435   1.979  0.00  0.00    +0.152 HD
ENDROOT
BRANCH   4  14
ATOM     14  C   UNL     1       1.903  -0.461   3.972  0.00  0.00    -0.032 A 
ATOM     15  C   UNL     1       1.495   0.688   4.625  0.00  0.00    +0.005 A 
ATOM     16  C   UNL     1       0.791   0.599   5.811  0.00  0.00    +0.004 A 
ATOM     17  C   UNL     1       0.494  -0.640   6.348  0.00  0.00    +0.045 A 
ATOM     18  C   UNL     1       0.902  -1.793   5.695  0.00  0.00    +0.117 A 
ATOM     19  C   UNL     1       1.603  -1.701   4.501  0.00  0.00    +0.050 A 
BRANCH  18  20
ATOM     20  O   UNL     1       0.611  -3.012   6.220  0.00  0.00    -0.507 OA
ATOM     21  H   UNL     1       0.935  -3.926   5.702  0.00  0.00    +0.292 HD
ENDBRANCH  18  20
ENDBRANCH   4  14
BRANCH   3  22
ATOM     22  C   UNL     1       5.033  -0.318   3.542  0.00  0.00    +0.338 C 
ATOM     23  O   UNL     1       6.121   0.219   3.638  0.00  0.00    -0.245 OA
BRANCH  22  24
ATOM     24  O   UNL     1       4.851  -1.566   4.022  0.00  0.00    -0.458 OA
BRANCH  24  25
ATOM     25  C   UNL     1       5.980  -2.197   4.630  0.00  0.00    +0.177 C 
ATOM     26  C   UNL     1       6.765  -2.970   3.569  0.00  0.00    +0.044 C 
ATOM     27  C   UNL     1       7.973  -3.647   4.221  0.00  0.00    +0.004 C 
ATOM     28  C   UNL     1       7.493  -4.614   5.305  0.00  0.00    +0.000 C 
ATOM     29  C   UNL     1       6.707  -3.841   6.366  0.00  0.00    +0.004 C 
ATOM     30  C   UNL     1       5.499  -3.164   5.715  0.00  0.00    +0.044 C 
ENDBRANCH  24  25
ENDBRANCH  22  24
ENDBRANCH   3  22
TORSDOF 5
