REMARK  Name = ZINC08933292
REMARK  11 active torsions:
REMARK  status: ('A' for Active; 'I' for Inactive)
REMARK    1  A    between atoms: C_1  and  C_2
REMARK    2  A    between atoms: C_2  and  N_71
REMARK    3  A    between atoms: C_6  and  C_8
REMARK    4  A    between atoms: C_8  and  N_9
REMARK    5  A    between atoms: C_10  and  C_12
REMARK    6  A    between atoms: C_12  and  N_13
REMARK    7  A    between atoms: N_26  and  C_27
REMARK    8  A    between atoms: C_27  and  C_28
REMARK    9  A    between atoms: C_29  and  C_36
REMARK   10  A    between atoms: C_31  and  C_35
REMARK   11  A    between atoms: C_33  and  C_34
REMARK                            x       y       z     vdW  Elec       q    Type
REMARK                         _______ _______ _______ _____ _____    ______ ____
ROOT
ATOM      1  N   UNL     1      -7.508   2.503 -10.132  0.00  0.00    -0.219 N 
ATOM      2  C   UNL     1      -7.565   1.391 -10.891  0.00  0.00    +0.292 A 
ATOM      3  O   UNL     1      -6.601   0.646 -10.967  0.00  0.00    -0.264 OA
ATOM      4  C   UNL     1      -8.755   1.095 -11.599  0.00  0.00    +0.119 A 
ATOM      5  C   UNL     1      -9.830   1.975 -11.491  0.00  0.00    +0.033 A 
ATOM      6  C   UNL     1      -9.715   3.122 -10.677  0.00  0.00    +0.143 A 
ATOM      7  N   UNL     1      -8.605   3.365 -10.037  0.00  0.00    -0.175 NA
ATOM      8  C   UNL     1     -10.910   1.419 -12.318  0.00  0.00    +0.009 A 
ATOM      9  C   UNL     1     -12.211   1.831 -12.608  0.00  0.00    +0.010 A 
ATOM     10  C   UNL     1     -12.992   1.082 -13.442  0.00  0.00    +0.001 A 
ATOM     11  C   UNL     1     -12.501  -0.089 -14.003  0.00  0.00    +0.002 A 
ATOM     12  C   UNL     1     -11.220  -0.514 -13.729  0.00  0.00    +0.026 A 
ATOM     13  C   UNL     1     -10.407   0.235 -12.882  0.00  0.00    +0.051 A 
ATOM     14  N   UNL     1      -9.113   0.062 -12.437  0.00  0.00    -0.331 N 
ENDROOT
BRANCH   1  15
ATOM     15  C   UNL     1      -6.280   2.814  -9.396  0.00  0.00    +0.243 C 
BRANCH  15  17
ATOM     16  N   UNL     1      -4.182   4.064  -9.787  0.00  0.00    -0.315 N 
ATOM     17  C   UNL     1      -5.377   3.656 -10.259  0.00  0.00    +0.235 C 
ATOM     18  O   UNL     1      -5.724   3.967 -11.379  0.00  0.00    -0.274 OA
ATOM     19  H   UNL     1      -3.904   3.816  -8.892  0.00  0.00    +0.149 HD
BRANCH  16  20
ATOM     20  C   UNL     1      -3.304   4.883 -10.627  0.00  0.00    +0.089 C 
BRANCH  20  24
ATOM     21  C   UNL     1      -0.693   7.118 -10.156  0.00  0.00    -0.078 C 
ATOM     22  C   UNL     1      -0.934   6.893  -8.643  0.00  0.00    -0.020 C 
ATOM     23  C   UNL     1      -2.193   5.983  -8.655  0.00  0.00    -0.016 C 
ATOM     24  C   UNL     1      -1.973   5.106  -9.906  0.00  0.00    -0.051 C 
ATOM     25  N   UNL     1      -1.026   5.821 -10.778  0.00  0.00    +0.382 N 
ATOM     26  H   UNL     1      -0.170   5.263 -10.879  0.00  0.00    -0.081 HD
BRANCH  25  28
ATOM     27  C   UNL     1      -0.669   6.867 -12.976  0.00  0.00    -0.017 C 
ATOM     28  C   UNL     1      -1.626   6.035 -12.120  0.00  0.00    -0.082 C 
ENDBRANCH  25  28
ENDBRANCH  20  24
ENDBRANCH  16  20
ENDBRANCH  15  17
ENDBRANCH   1  15
BRANCH  14  29
ATOM     29  C   UNL     1      -8.245  -1.060 -12.802  0.00  0.00    +0.158 C 
BRANCH  29  30
ATOM     30  C   UNL     1      -8.684  -2.297 -12.062  0.00  0.00    -0.022 A 
ATOM     31  C   UNL     1      -8.574  -2.354 -10.685  0.00  0.00    -0.045 A 
ATOM     32  C   UNL     1      -8.982  -3.487 -10.005  0.00  0.00    +0.007 A 
ATOM     33  C   UNL     1      -9.490  -4.566 -10.703  0.00  0.00    -0.050 A 
ATOM     34  C   UNL     1      -9.595  -4.511 -12.081  0.00  0.00    +0.007 A 
ATOM     35  C   UNL     1      -9.192  -3.377 -12.760  0.00  0.00    -0.045 A 
ATOM     36  C   UNL     1      -9.306  -3.317 -14.261  0.00  0.00    +0.044 C 
ATOM     37  C   UNL     1      -9.930  -5.803  -9.963  0.00  0.00    +0.044 C 
ATOM     38  C   UNL     1      -8.015  -1.179  -9.925  0.00  0.00    +0.044 C 
ENDBRANCH  29  30
ENDBRANCH  14  29
TORSDOF 7
