REMARK  Name = ZINC21098311
REMARK  12 active torsions:
REMARK  status: ('A' for Active; 'I' for Inactive)
REMARK    1  A    between atoms: C_1  and  C_2
REMARK    2  A    between atoms: C_2  and  O_3
REMARK    3  A    between atoms: O_3  and  C_4
REMARK    4  A    between atoms: C_4  and  C_6
REMARK    5  A    between atoms: N_9  and  C_12
REMARK    6  A    between atoms: C_12  and  C_14
REMARK    7  A    between atoms: C_12  and  C_22
REMARK    8  A    between atoms: C_17  and  S_20
REMARK    9  A    between atoms: S_20  and  C_21
REMARK   10  A    between atoms: C_25  and  C_35
REMARK   11  A    between atoms: N_26  and  C_29
REMARK   12  A    between atoms: C_29  and  C_30
REMARK                            x       y       z     vdW  Elec       q    Type
REMARK                         _______ _______ _______ _____ _____    ______ ____
ROOT
ATOM      1  C   UNL     1      -6.177  -4.732  -1.389  0.00  0.00    +0.002 C 
ENDROOT
BRANCH   1   2
ATOM      2  C   UNL     1      -6.012  -6.229  -1.425  0.00  0.00    +0.054 A 
ATOM      3  C   UNL     1      -6.678  -7.030  -0.516  0.00  0.00    +0.188 A 
ATOM      4  C   UNL     1      -6.501  -8.426  -0.577  0.00  0.00    +0.072 A 
ATOM      5  C   UNL     1      -5.690  -8.959  -1.516  0.00  0.00    +0.023 A 
ATOM      6  N   UNL     1      -5.038  -8.166  -2.406  0.00  0.00    -0.305 N 
ATOM      7  C   UNL     1      -5.186  -6.829  -2.383  0.00  0.00    +0.257 A 
ATOM      8  O   UNL     1      -4.594  -6.136  -3.196  0.00  0.00    -0.267 OA
ATOM      9  C   UNL     1      -5.505 -10.454  -1.577  0.00  0.00    +0.064 C 
ATOM     10  O   UNL     1      -7.488  -6.480   0.420  0.00  0.00    -0.287 OA
BRANCH   6  11
ATOM     11  C   UNL     1      -4.165  -8.778  -3.411  0.00  0.00    +0.199 C 
BRANCH  11  12
ATOM     12  C   UNL     1      -4.965  -9.087  -4.650  0.00  0.00    +0.125 A 
ATOM     13  C   UNL     1      -5.144  -8.262  -5.697  0.00  0.00    +0.046 A 
ATOM     14  C   UNL     1      -5.955  -8.952  -6.628  0.00  0.00    +0.041 A 
ATOM     15  C   UNL     1      -6.222 -10.157  -6.094  0.00  0.00    +0.195 A 
ATOM     16  O   UNL     1      -5.615 -10.236  -4.899  0.00  0.00    -0.466 OA
ENDBRANCH  11  12
ENDBRANCH   6  11
ENDBRANCH   1   2
BRANCH   1  20
ATOM     17  C   UNL     1      -2.881  -2.427   0.017  0.00  0.00    +0.094 C 
ATOM     18  C   UNL     1      -3.645  -1.967  -1.229  0.00  0.00    -0.004 C 
ATOM     19  C   UNL     1      -5.020  -2.637  -1.253  0.00  0.00    -0.077 C 
ATOM     20  N   UNL     1      -4.857  -4.096  -1.288  0.00  0.00    +0.387 N 
ATOM     21  C   UNL     1      -4.189  -4.551  -0.063  0.00  0.00    -0.077 C 
ATOM     22  C   UNL     1      -2.782  -3.955   0.007  0.00  0.00    -0.004 C 
ATOM     23  H   UNL     1      -4.300  -4.352  -2.089  0.00  0.00    -0.080 HD
BRANCH  17  24
ATOM     24  C   UNL     1      -1.496  -1.832   0.006  0.00  0.00    +0.310 C 
ATOM     25  O   UNL     1      -0.528  -2.555  -0.007  0.00  0.00    -0.251 OA
BRANCH  24  26
ATOM     26  O   UNL     1      -1.339  -0.499   0.012  0.00  0.00    -0.465 OA
BRANCH  26  28
ATOM     27  C   UNL     1      -0.019   1.526   0.010  0.00  0.00    +0.048 C 
ATOM     28  C   UNL     1       0.002  -0.004   0.002  0.00  0.00    +0.229 C 
ENDBRANCH  26  28
ENDBRANCH  24  26
ENDBRANCH  17  24
ENDBRANCH   1  20
BRANCH   1  29
ATOM     29  C   UNL     1      -6.861  -4.272  -2.651  0.00  0.00    -0.056 A 
ATOM     30  C   UNL     1      -6.133  -4.135  -3.819  0.00  0.00    +0.003 A 
ATOM     31  C   UNL     1      -6.756  -3.713  -4.977  0.00  0.00    +0.015 A 
ATOM     32  C   UNL     1      -8.116  -3.427  -4.968  0.00  0.00    +0.008 A 
ATOM     33  C   UNL     1      -8.844  -3.566  -3.793  0.00  0.00    +0.015 A 
ATOM     34  C   UNL     1      -8.215  -3.993  -2.640  0.00  0.00    +0.003 A 
BRANCH  32  35
ATOM     35  S   UNL     1      -8.915  -2.888  -6.443  0.00  0.00    -0.129 S 
ATOM     36  C   UNL     1     -10.642  -2.646  -5.944  0.00  0.00    +0.090 C 
ENDBRANCH  32  35
ENDBRANCH   1  29
TORSDOF 9
