REMARK  Name = ZINC09956320
REMARK  8 active torsions:
REMARK  status: ('A' for Active; 'I' for Inactive)
REMARK    1  A    between atoms: C_1  and  N_52
REMARK    2  A    between atoms: C_2  and  C_3
REMARK    3  A    between atoms: C_2  and  N_52
REMARK    4  A    between atoms: N_5  and  C_14
REMARK    5  A    between atoms: C_7  and  C_8
REMARK    6  A    between atoms: C_14  and  C_15
REMARK    7  A    between atoms: C_22  and  N_23
REMARK    8  A    between atoms: C_22  and  N_52
REMARK                            x       y       z     vdW  Elec       q    Type
REMARK                         _______ _______ _______ _____ _____    ______ ____
ROOT
ATOM      1  C   UNL     1      -4.421   5.643  -2.947  0.00  0.00    -0.019 A 
ATOM      2  C   UNL     1      -4.616   6.881  -3.451  0.00  0.00    +0.111 A 
ATOM      3  N   UNL     1      -4.801   6.764  -4.783  0.00  0.00    -0.266 N 
ATOM      4  N   UNL     1      -4.717   5.407  -5.118  0.00  0.00    -0.171 NA
ATOM      5  C   UNL     1      -4.484   4.727  -4.016  0.00  0.00    +0.094 A 
ENDROOT
BRANCH   5   6
ATOM      6  C   UNL     1      -4.318   3.256  -3.916  0.00  0.00    +0.002 A 
ATOM      7  C   UNL     1      -3.422   2.713  -2.997  0.00  0.00    +0.010 A 
ATOM      8  C   UNL     1      -3.277   1.344  -2.904  0.00  0.00    +0.001 A 
ATOM      9  C   UNL     1      -4.011   0.511  -3.729  0.00  0.00    +0.000 A 
ATOM     10  C   UNL     1      -4.897   1.044  -4.646  0.00  0.00    +0.001 A 
ATOM     11  C   UNL     1      -5.055   2.411  -4.744  0.00  0.00    +0.010 A 
ENDBRANCH   5   6
BRANCH   1  12
ATOM     12  C   UNL     1      -4.175   5.302  -1.500  0.00  0.00    -0.037 C 
BRANCH  12  14
ATOM     13  C   UNL     1      -1.986   6.336  -1.483  0.00  0.00    -0.093 C 
ATOM     14  N   UNL     1      -2.728   5.070  -1.304  0.00  0.00    +0.394 N 
ATOM     15  H   UNL     1      -2.402   4.391  -2.001  0.00  0.00    -0.079 HD
BRANCH  14  16
ATOM     16  C   UNL     1      -2.482   4.527   0.048  0.00  0.00    +0.073 C 
BRANCH  16  17
ATOM     17  N   UNL     1      -1.216   3.791   0.033  0.00  0.00    -0.245 N 
ATOM     18  C   UNL     1      -1.240   2.445   0.021  0.00  0.00    +0.285 A 
ATOM     19  O   UNL     1      -2.304   1.847   0.023  0.00  0.00    -0.265 OA
ATOM     20  C   UNL     1      -0.021   1.732   0.012  0.00  0.00    +0.126 A 
ATOM     21  C   UNL     1       1.141   2.455   0.004  0.00  0.00    +0.084 A 
ATOM     22  C   UNL     1       1.052   3.858   0.012  0.00  0.00    +0.154 A 
ATOM     23  N   UNL     1      -0.112   4.446   0.026  0.00  0.00    -0.177 NA
ATOM     24 CL   UNL     1       2.684   1.660  -0.015  0.00  0.00    -0.080 Cl
ATOM     25 CL   UNL     1       0.002  -0.004   0.002  0.00  0.00    -0.076 Cl
ENDBRANCH  16  17
ENDBRANCH  14  16
ENDBRANCH  12  14
ENDBRANCH   1  12
BRANCH   3  26
ATOM     26  C   UNL     1      -5.045   7.867  -5.717  0.00  0.00    +0.180 C 
BRANCH  26  27
ATOM     27  C   UNL     1      -4.022   7.825  -6.822  0.00  0.00    -0.008 A 
ATOM     28  C   UNL     1      -4.351   7.280  -8.049  0.00  0.00    +0.007 A 
ATOM     29  C   UNL     1      -3.412   7.242  -9.063  0.00  0.00    +0.000 A 
ATOM     30  C   UNL     1      -2.143   7.750  -8.850  0.00  0.00    +0.001 A 
ATOM     31  C   UNL     1      -1.813   8.296  -7.625  0.00  0.00    +0.020 A 
ATOM     32  C   UNL     1      -2.754   8.338  -6.611  0.00  0.00    +0.046 A 
ATOM     33 CL   UNL     1      -2.343   9.030  -5.073  0.00  0.00    -0.083 Cl
ENDBRANCH  26  27
ENDBRANCH   3  26
TORSDOF 7
