REMARK  Name = ZINC36573411
REMARK  12 active torsions:
REMARK  status: ('A' for Active; 'I' for Inactive)
REMARK    1  A    between atoms: C_1  and  C_2
REMARK    2  A    between atoms: C_2  and  C_3
REMARK    3  A    between atoms: C_3  and  N_4
REMARK    4  A    between atoms: N_4  and  C_5
REMARK    5  A    between atoms: C_5  and  C_7
REMARK    6  A    between atoms: C_5  and  C_16
REMARK    7  A    between atoms: C_10  and  N_13
REMARK    8  A    between atoms: N_18  and  C_19
REMARK    9  A    between atoms: C_19  and  S_20
REMARK   10  A    between atoms: S_20  and  C_23
REMARK   11  A    between atoms: C_26  and  C_29
REMARK   12  A    between atoms: C_30  and  C_32
REMARK                            x       y       z     vdW  Elec       q    Type
REMARK                         _______ _______ _______ _____ _____    ______ ____
ROOT
ATOM      1  C   UNL     1      -0.304  -3.088  -0.411  0.00  0.00    +0.192 C 
ENDROOT
BRANCH   1   2
ATOM      2  C   UNL     1      -1.375  -2.679  -1.390  0.00  0.00    -0.018 A 
ATOM      3  C   UNL     1      -1.366  -1.408  -1.933  0.00  0.00    +0.008 A 
ATOM      4  C   UNL     1      -2.348  -1.033  -2.831  0.00  0.00    +0.033 A 
ATOM      5  C   UNL     1      -3.339  -1.930  -3.186  0.00  0.00    +0.126 A 
ATOM      6  C   UNL     1      -3.347  -3.201  -2.643  0.00  0.00    +0.033 A 
ATOM      7  C   UNL     1      -2.363  -3.578  -1.748  0.00  0.00    +0.008 A 
BRANCH   5   8
ATOM      8  N   UNL     1      -4.391  -1.528  -4.146  0.00  0.00    +0.056 N 
ATOM      9  O   UNL     1      -4.384  -0.416  -4.620  0.00  0.00    -0.126 OA
ATOM     10  O   UNL     1      -5.258  -2.312  -4.456  0.00  0.00    -0.126 OA
ENDBRANCH   5   8
ENDBRANCH   1   2
BRANCH   1  11
ATOM     11  C   UNL     1      -0.908  -3.963   0.657  0.00  0.00    +0.239 C 
ATOM     12  O   UNL     1      -1.557  -3.466   1.553  0.00  0.00    -0.273 OA
ATOM     13  N   UNL     1      -0.726  -5.298   0.617  0.00  0.00    -0.294 N 
ATOM     14  H   UNL     1      -0.207  -5.696  -0.099  0.00  0.00    +0.150 HD
BRANCH  13  15
ATOM     15  C   UNL     1      -1.312  -6.149   1.656  0.00  0.00    +0.278 C 
BRANCH  15  16
ATOM     16  S   UNL     1      -2.912  -6.785   1.084  0.00  0.00    +0.013 S 
ATOM     17  O   UNL     1      -3.465  -7.663   2.055  0.00  0.00    -0.168 OA
ATOM     18  O   UNL     1      -3.690  -5.731   0.534  0.00  0.00    -0.168 OA
BRANCH  16  19
ATOM     19  C   UNL     1      -2.523  -7.820  -0.288  0.00  0.00    +0.090 A 
ATOM     20  C   UNL     1      -2.475  -7.288  -1.563  0.00  0.00    +0.027 A 
ATOM     21  C   UNL     1      -2.170  -8.100  -2.640  0.00  0.00    +0.005 A 
ATOM     22  C   UNL     1      -1.913  -9.443  -2.441  0.00  0.00    -0.050 A 
ATOM     23  C   UNL     1      -1.961  -9.975  -1.166  0.00  0.00    +0.005 A 
ATOM     24  C   UNL     1      -2.262  -9.162  -0.089  0.00  0.00    +0.027 A 
ATOM     25  C   UNL     1      -1.582 -10.329  -3.615  0.00  0.00    +0.044 C 
ENDBRANCH  16  19
ENDBRANCH  15  16
ENDBRANCH  13  15
ENDBRANCH   1  11
BRANCH   1  26
ATOM     26  N   UNL     1       0.275  -1.893   0.206  0.00  0.00    -0.282 N 
ATOM     27  C   UNL     1       1.569  -1.584  -0.008  0.00  0.00    +0.247 C 
ATOM     28  O   UNL     1       2.047  -0.585   0.495  0.00  0.00    -0.270 OA
BRANCH  27  29
ATOM     29  C   UNL     1       2.409  -2.459  -0.853  0.00  0.00    +0.037 A 
ATOM     30  C   UNL     1       1.915  -2.945  -2.065  0.00  0.00    +0.013 A 
ATOM     31  C   UNL     1       2.704  -3.761  -2.849  0.00  0.00    +0.001 A 
ATOM     32  C   UNL     1       3.981  -4.099  -2.437  0.00  0.00    +0.000 A 
ATOM     33  C   UNL     1       4.475  -3.621  -1.236  0.00  0.00    +0.001 A 
ATOM     34  C   UNL     1       3.699  -2.799  -0.445  0.00  0.00    +0.013 A 
ENDBRANCH  27  29
BRANCH  26  35
ATOM     35  C   UNL     1      -0.552  -1.033   1.056  0.00  0.00    +0.109 C 
BRANCH  35  37
ATOM     36  C   UNL     1      -1.060  -0.393   3.418  0.00  0.00    +0.005 C 
ATOM     37  C   UNL     1      -0.100  -1.168   2.512  0.00  0.00    +0.016 C 
ENDBRANCH  35  37
ENDBRANCH  26  35
ENDBRANCH   1  26
TORSDOF 10
