REMARK  Name = ZINC00667069
REMARK  9 active torsions:
REMARK  status: ('A' for Active; 'I' for Inactive)
REMARK    1  A    between atoms: C_1  and  C_2
REMARK    2  A    between atoms: C_3  and  C_32
REMARK    3  A    between atoms: C_4  and  C_23
REMARK    4  A    between atoms: C_10  and  C_15
REMARK    5  A    between atoms: C_18  and  O_21
REMARK    6  A    between atoms: O_21  and  C_22
REMARK    7  A    between atoms: C_32  and  O_34
REMARK    8  A    between atoms: O_34  and  C_35
REMARK    9  A    between atoms: C_35  and  C_36
REMARK                            x       y       z     vdW  Elec       q    Type
REMARK                         _______ _______ _______ _____ _____    ______ ____
ROOT
ATOM      1  C   UNL     1      -5.085   2.472  -2.451  0.00  0.00    +0.061 C 
ATOM      2  C   UNL     1      -4.335   2.153  -1.183  0.00  0.00    +0.016 C 
ATOM      3  C   UNL     1      -3.288   1.311  -1.221  0.00  0.00    +0.065 C 
ATOM      4  C   UNL     1      -2.513   0.977   0.020  0.00  0.00    +0.092 C 
ATOM      5  C   UNL     1      -3.297   1.328   1.259  0.00  0.00    +0.024 C 
ATOM      6  C   UNL     1      -4.346   2.176   1.194  0.00  0.00    +0.016 C 
ATOM      7  N   UNL     1      -4.725   2.722  -0.003  0.00  0.00    -0.321 N 
ATOM      8  C   UNL     1      -5.123   2.546   2.433  0.00  0.00    +0.059 C 
ATOM      9  C   UNL     1      -5.105   1.376   3.419  0.00  0.00    +0.032 C 
ATOM     10  C   UNL     1      -3.647   1.044   3.755  0.00  0.00    +0.088 C 
ATOM     11  C   UNL     1      -2.907   0.749   2.479  0.00  0.00    +0.162 C 
ATOM     12  O   UNL     1      -1.954  -0.005   2.503  0.00  0.00    -0.292 OA
ATOM     13  H   UNL     1      -5.349   3.628  -0.008  0.00  0.00    +0.152 HD
ENDROOT
BRANCH   4  14
ATOM     14  C   UNL     1      -1.219   1.750   0.017  0.00  0.00    -0.032 A 
ATOM     15  C   UNL     1      -1.242   3.133   0.030  0.00  0.00    +0.008 A 
ATOM     16  C   UNL     1      -0.058   3.846   0.023  0.00  0.00    +0.050 A 
ATOM     17  C   UNL     1       1.155   3.177   0.008  0.00  0.00    +0.166 A 
ATOM     18  C   UNL     1       1.178   1.784   0.000  0.00  0.00    +0.167 A 
ATOM     19  C   UNL     1      -0.013   1.076   0.008  0.00  0.00    +0.054 A 
ATOM     20  O   UNL     1       2.478   1.369  -0.015  0.00  0.00    -0.453 OA
ATOM     21  C   UNL     1       3.251   2.513   0.396  0.00  0.00    +0.466 C 
ATOM     22  O   UNL     1       2.441   3.634  -0.003  0.00  0.00    -0.453 OA
ENDBRANCH   4  14
BRANCH   9  23
ATOM     23  C   UNL     1      -5.839   1.763   4.678  0.00  0.00    -0.043 A 
ATOM     24  C   UNL     1      -5.397   2.835   5.432  0.00  0.00    +0.007 A 
ATOM     25  C   UNL     1      -6.071   3.195   6.583  0.00  0.00    +0.046 A 
ATOM     26  C   UNL     1      -7.185   2.474   6.988  0.00  0.00    +0.120 A 
ATOM     27  C   UNL     1      -7.622   1.396   6.232  0.00  0.00    +0.046 A 
ATOM     28  C   UNL     1      -6.949   1.043   5.079  0.00  0.00    +0.007 A 
BRANCH  26  29
ATOM     29  O   UNL     1      -7.846   2.824   8.122  0.00  0.00    -0.495 OA
ATOM     30  C   UNL     1      -7.339   3.945   8.850  0.00  0.00    +0.277 C 
ENDBRANCH  26  29
ENDBRANCH   9  23
BRANCH   3  31
ATOM     31  C   UNL     1      -2.910   0.729  -2.453  0.00  0.00    +0.338 C 
ATOM     32  O   UNL     1      -3.531   0.992  -3.466  0.00  0.00    -0.245 OA
BRANCH  31  33
ATOM     33  O   UNL     1      -1.860  -0.117  -2.506  0.00  0.00    -0.457 OA
BRANCH  33  34
ATOM     34  C   UNL     1      -1.533  -0.667  -3.783  0.00  0.00    +0.268 C 
BRANCH  34  35
ATOM     35  C   UNL     1      -0.343  -1.582  -3.647  0.00  0.00    -0.010 A 
ATOM     36  C   UNL     1       0.935  -1.079  -3.801  0.00  0.00    +0.007 A 
ATOM     37  C   UNL     1       2.027  -1.917  -3.671  0.00  0.00    +0.000 A 
ATOM     38  C   UNL     1       1.840  -3.259  -3.398  0.00  0.00    +0.000 A 
ATOM     39  C   UNL     1       0.561  -3.763  -3.250  0.00  0.00    +0.000 A 
ATOM     40  C   UNL     1      -0.530  -2.924  -3.375  0.00  0.00    +0.007 A 
ENDBRANCH  34  35
ENDBRANCH  33  34
ENDBRANCH  31  33
ENDBRANCH   3  31
TORSDOF 7
