REMARK  Name = ZINC40983496
REMARK  12 active torsions:
REMARK  status: ('A' for Active; 'I' for Inactive)
REMARK    1  A    between atoms: C_1  and  C_2
REMARK    2  A    between atoms: C_2  and  C_3
REMARK    3  A    between atoms: C_3  and  C_4
REMARK    4  A    between atoms: C_4  and  S_5
REMARK    5  A    between atoms: S_5  and  C_6
REMARK    6  A    between atoms: C_11  and  C_28
REMARK    7  A    between atoms: C_13  and  C_17
REMARK    8  A    between atoms: C_14  and  C_16
REMARK    9  A    between atoms: N_19  and  C_20
REMARK   10  A    between atoms: C_25  and  O_26
REMARK   11  A    between atoms: O_26  and  C_27
REMARK   12  A    between atoms: C_29  and  C_33
REMARK                            x       y       z     vdW  Elec       q    Type
REMARK                         _______ _______ _______ _____ _____    ______ ____
ROOT
ATOM      1  C   UNL     1      -2.613  -4.344  -0.020  0.00  0.00    +0.210 A 
ATOM      2  N   UNL     1      -1.422  -4.959  -0.013  0.00  0.00    -0.187 NA
ATOM      3  C   UNL     1      -1.599  -6.252   0.018  0.00  0.00    +0.219 A 
ATOM      4  N   UNL     1      -2.933  -6.494   0.026  0.00  0.00    -0.219 N 
ATOM      5  N   UNL     1      -3.565  -5.252   0.011  0.00  0.00    -0.141 NA
ATOM      6  C   UNL     1      -3.510  -7.836   0.049  0.00  0.00    +0.184 C 
ATOM      7  C   UNL     1      -2.433  -8.840   0.360  0.00  0.00    +0.061 C 
ATOM      8  C   UNL     1      -1.125  -8.541   0.340  0.00  0.00    +0.018 C 
ATOM      9  N   UNL     1      -0.667  -7.281   0.042  0.00  0.00    -0.287 N 
ATOM     10  C   UNL     1      -0.126  -9.624   0.655  0.00  0.00    +0.061 C 
ATOM     11  H   UNL     1       0.270  -7.116  -0.144  0.00  0.00    +0.155 HD
ENDROOT
BRANCH   6  12
ATOM     12  C   UNL     1      -4.114  -8.146  -1.296  0.00  0.00    +0.022 A 
ATOM     13  C   UNL     1      -5.371  -8.556  -1.594  0.00  0.00    -0.038 A 
ATOM     14  C   UNL     1      -5.707  -8.782  -2.915  0.00  0.00    +0.011 A 
ATOM     15  C   UNL     1      -4.769  -8.588  -3.875  0.00  0.00    +0.046 A 
ATOM     16  S   UNL     1      -3.360  -8.063  -2.913  0.00  0.00    -0.099 S 
ATOM     17  C   UNL     1      -6.387  -8.761  -0.500  0.00  0.00    +0.044 C 
ENDBRANCH   6  12
BRANCH   7  18
ATOM     18  C   UNL     1      -2.817 -10.162   0.689  0.00  0.00    +0.248 C 
ATOM     19  O   UNL     1      -3.142 -10.435   1.830  0.00  0.00    -0.270 OA
ATOM     20  N   UNL     1      -2.823 -11.117  -0.262  0.00  0.00    -0.279 N 
ATOM     21  H   UNL     1      -2.642 -10.884  -1.185  0.00  0.00    +0.155 HD
BRANCH  20  22
ATOM     22  C   UNL     1      -3.092 -12.448   0.085  0.00  0.00    +0.076 A 
ATOM     23  C   UNL     1      -3.926 -12.732   1.157  0.00  0.00    +0.027 A 
ATOM     24  C   UNL     1      -4.189 -14.046   1.497  0.00  0.00    +0.002 A 
ATOM     25  C   UNL     1      -3.624 -15.078   0.771  0.00  0.00    +0.004 A 
ATOM     26  C   UNL     1      -2.792 -14.802  -0.298  0.00  0.00    +0.047 A 
ATOM     27  C   UNL     1      -2.527 -13.488  -0.649  0.00  0.00    +0.141 A 
BRANCH  27  28
ATOM     28  O   UNL     1      -1.713 -13.215  -1.703  0.00  0.00    -0.493 OA
ATOM     29  C   UNL     1      -1.170 -14.332  -2.410  0.00  0.00    +0.277 C 
ENDBRANCH  27  28
ENDBRANCH  20  22
ENDBRANCH   7  18
BRANCH   1  30
ATOM     30  S   UNL     1      -2.864  -2.600  -0.056  0.00  0.00    -0.084 S 
BRANCH  30  31
ATOM     31  C   UNL     1      -1.185  -1.916  -0.090  0.00  0.00    +0.077 C 
BRANCH  31  32
ATOM     32  C   UNL     1      -1.257  -0.388  -0.123  0.00  0.00    +0.011 C 
BRANCH  32  34
ATOM     33  C   UNL     1       0.087   1.718  -0.185  0.00  0.00    +0.004 C 
ATOM     34  C   UNL     1       0.159   0.190  -0.151  0.00  0.00    -0.003 C 
ENDBRANCH  32  34
ENDBRANCH  31  32
ENDBRANCH  30  31
ENDBRANCH   1  30
TORSDOF 8
