REMARK  Name = ZINC39201714
REMARK  6 active torsions:
REMARK  status: ('A' for Active; 'I' for Inactive)
REMARK    1  A    between atoms: C_4  and  C_7
REMARK    2  A    between atoms: C_8  and  C_16
REMARK    3  A    between atoms: C_16  and  N_17
REMARK    4  A    between atoms: C_20  and  C_23
REMARK    5  A    between atoms: C_28  and  C_31
REMARK    6  A    between atoms: C_28  and  O_38
REMARK                            x       y       z     vdW  Elec       q    Type
REMARK                         _______ _______ _______ _____ _____    ______ ____
ROOT
ATOM      1  N   UNL     1       3.130  -1.813   2.853  0.00  0.00    +0.383 N 
ATOM      2  C   UNL     1       2.478  -0.499   2.834  0.00  0.00    -0.078 C 
ATOM      3  C   UNL     1       2.597   0.154   4.213  0.00  0.00    -0.006 C 
ATOM      4  C   UNL     1       1.917  -0.740   5.255  0.00  0.00    +0.072 C 
ATOM      5  C   UNL     1       2.556  -2.131   5.214  0.00  0.00    -0.006 C 
ATOM      6  C   UNL     1       2.439  -2.699   3.797  0.00  0.00    -0.078 C 
ATOM      7  H   UNL     1       4.092  -1.705   3.137  0.00  0.00    -0.081 HD
ENDROOT
BRANCH   4   8
ATOM      8  C   UNL     1       2.099  -0.143   6.627  0.00  0.00    +0.219 C 
ATOM      9  O   UNL     1       3.054  -0.459   7.304  0.00  0.00    -0.275 OA
ATOM     10  N   UNL     1       1.200   0.743   7.100  0.00  0.00    -0.301 N 
ATOM     11  C   UNL     1       0.094   1.211   6.254  0.00  0.00    +0.111 C 
ATOM     12  C   UNL     1       0.104   2.743   6.233  0.00  0.00    +0.058 C 
ATOM     13  C   UNL     1       0.064   3.270   7.669  0.00  0.00    +0.094 C 
ATOM     14  C   UNL     1       1.304   2.789   8.426  0.00  0.00    +0.058 C 
ATOM     15  C   UNL     1       1.304   1.253   8.474  0.00  0.00    +0.111 C 
BRANCH  13  16
ATOM     16  C   UNL     1       0.039   4.776   7.651  0.00  0.00    -0.016 A 
ATOM     17  C   UNL     1       0.645   5.465   6.617  0.00  0.00    +0.008 A 
ATOM     18  C   UNL     1       0.623   6.847   6.600  0.00  0.00    +0.020 A 
ATOM     19  C   UNL     1      -0.005   7.541   7.618  0.00  0.00    +0.041 A 
ATOM     20  C   UNL     1      -0.611   6.851   8.653  0.00  0.00    +0.020 A 
ATOM     21  C   UNL     1      -0.594   5.469   8.666  0.00  0.00    +0.008 A 
ATOM     22 CL   UNL     1      -0.033   9.277   7.598  0.00  0.00    -0.084 Cl
ENDBRANCH  13  16
BRANCH  13  23
ATOM     23  O   UNL     1      -1.111   2.783   8.322  0.00  0.00    -0.384 OA
ATOM     24  H   UNL     1      -1.202   3.077   9.239  0.00  0.00    +0.211 HD
ENDBRANCH  13  23
ENDBRANCH   4   8
BRANCH   1  25
ATOM     25  C   UNL     1       3.081  -2.402   1.507  0.00  0.00    -0.022 C 
BRANCH  25  27
ATOM     26  C   UNL     1       3.420  -0.584  -0.267  0.00  0.00    +0.091 A 
ATOM     27  C   UNL     1       3.894  -1.557   0.560  0.00  0.00    +0.035 A 
ATOM     28  N   UNL     1       5.246  -1.623   0.369  0.00  0.00    -0.305 N 
ATOM     29  C   UNL     1       6.216  -2.407   0.925  0.00  0.00    +0.093 A 
ATOM     30  C   UNL     1       7.506  -2.270   0.554  0.00  0.00    +0.018 A 
ATOM     31  C   UNL     1       7.869  -1.315  -0.411  0.00  0.00    +0.005 A 
ATOM     32  C   UNL     1       6.913  -0.528  -0.973  0.00  0.00    +0.047 A 
ATOM     33  C   UNL     1       5.569  -0.683  -0.575  0.00  0.00    +0.138 A 
ATOM     34  N   UNL     1       4.455  -0.071  -0.951  0.00  0.00    -0.228 NA
BRANCH  26  38
ATOM     35  C   UNL     1      -0.644   0.613  -0.634  0.00  0.00    +0.000 A 
ATOM     36  C   UNL     1       0.354   1.569  -0.582  0.00  0.00    +0.001 A 
ATOM     37  C   UNL     1       1.675   1.186  -0.463  0.00  0.00    +0.010 A 
ATOM     38  C   UNL     1       2.002  -0.166  -0.394  0.00  0.00    +0.002 A 
ATOM     39  C   UNL     1       0.993  -1.126  -0.447  0.00  0.00    +0.010 A 
ATOM     40  C   UNL     1      -0.325  -0.732  -0.566  0.00  0.00    +0.001 A 
ENDBRANCH  26  38
ENDBRANCH  25  27
ENDBRANCH   1  25
TORSDOF 6
