REMARK  Name = ZINC35592327
REMARK  13 active torsions:
REMARK  status: ('A' for Active; 'I' for Inactive)
REMARK    1  A    between atoms: C_1  and  C_2
REMARK    2  A    between atoms: C_2  and  O_3
REMARK    3  A    between atoms: O_3  and  C_4
REMARK    4  A    between atoms: C_4  and  C_6
REMARK    5  A    between atoms: C_6  and  N_7
REMARK    6  A    between atoms: C_10  and  C_21
REMARK    7  A    between atoms: N_12  and  C_13
REMARK    8  A    between atoms: C_16  and  C_20
REMARK    9  A    between atoms: C_18  and  C_19
REMARK   10  A    between atoms: C_21  and  C_22
REMARK   11  A    between atoms: C_21  and  C_23
REMARK   12  A    between atoms: C_21  and  C_24
REMARK   13  A    between atoms: C_25  and  C_31
REMARK                            x       y       z     vdW  Elec       q    Type
REMARK                         _______ _______ _______ _____ _____    ______ ____
ROOT
ATOM      1  N   UNL     1      -0.061  -2.251  -2.411  0.00  0.00    -0.244 N 
ATOM      2  C   UNL     1      -0.916  -3.292  -2.800  0.00  0.00    +0.136 A 
ATOM      3  C   UNL     1      -0.580  -4.602  -2.749  0.00  0.00    +0.034 A 
ATOM      4  C   UNL     1      -1.672  -5.343  -3.203  0.00  0.00    +0.075 A 
ATOM      5  N   UNL     1      -2.632  -4.508  -3.519  0.00  0.00    -0.169 NA
ATOM      6  N   UNL     1      -2.180  -3.201  -3.276  0.00  0.00    -0.217 N 
ATOM      7  C   UNL     1       0.753  -5.131  -2.284  0.00  0.00    +0.115 C 
ATOM      8  S   UNL     1       0.844  -4.962  -0.465  0.00  0.00    -0.138 S 
ATOM      9  C   UNL     1       0.089  -3.323  -0.201  0.00  0.00    +0.166 C 
ATOM     10  C   UNL     1       0.570  -2.349  -1.236  0.00  0.00    +0.231 C 
ATOM     11  O   UNL     1       1.532  -1.646  -1.006  0.00  0.00    -0.274 OA
ENDROOT
BRANCH   6  12
ATOM     12  C   UNL     1      -2.904  -2.019  -3.487  0.00  0.00    +0.070 A 
ATOM     13  C   UNL     1      -3.103  -1.129  -2.441  0.00  0.00    +0.028 A 
ATOM     14  C   UNL     1      -3.817   0.035  -2.652  0.00  0.00    +0.005 A 
ATOM     15  C   UNL     1      -4.333   0.313  -3.905  0.00  0.00    -0.050 A 
ATOM     16  C   UNL     1      -4.137  -0.572  -4.949  0.00  0.00    +0.008 A 
ATOM     17  C   UNL     1      -3.419  -1.734  -4.745  0.00  0.00    -0.025 A 
ATOM     18  C   UNL     1      -3.200  -2.695  -5.885  0.00  0.00    +0.046 C 
ATOM     19  C   UNL     1      -5.113   1.583  -4.132  0.00  0.00    +0.044 C 
ENDBRANCH   6  12
BRANCH   7  20
ATOM     20  C   UNL     1       0.883  -6.583  -2.668  0.00  0.00    +0.005 A 
ATOM     21  C   UNL     1       1.438  -6.928  -3.886  0.00  0.00    +0.010 A 
ATOM     22  C   UNL     1       1.558  -8.258  -4.239  0.00  0.00    +0.039 A 
ATOM     23  C   UNL     1       1.123  -9.248  -3.373  0.00  0.00    +0.126 A 
ATOM     24  C   UNL     1       0.567  -8.903  -2.154  0.00  0.00    +0.077 A 
ATOM     25  C   UNL     1       0.452  -7.570  -1.798  0.00  0.00    +0.131 A 
ATOM     26  F   UNL     1      -0.086  -7.232  -0.606  0.00  0.00    -0.205 F 
ATOM     27  F   UNL     1       1.240 -10.548  -3.719  0.00  0.00    -0.205 F 
ENDBRANCH   7  20
BRANCH   4  28
ATOM     28  C   UNL     1      -1.737  -6.845  -3.312  0.00  0.00    +0.007 C 
ATOM     29  C   UNL     1      -1.712  -7.459  -1.910  0.00  0.00    +0.017 C 
ATOM     30  C   UNL     1      -3.030  -7.249  -4.022  0.00  0.00    +0.017 C 
ATOM     31  C   UNL     1      -0.535  -7.351  -4.112  0.00  0.00    +0.017 C 
ENDBRANCH   4  28
BRANCH   1  32
ATOM     32  C   UNL     1       0.141  -1.085  -3.275  0.00  0.00    +0.235 C 
BRANCH  32  33
ATOM     33  C   UNL     1       1.369  -1.294  -4.122  0.00  0.00    +0.325 C 
ATOM     34  O   UNL     1       2.011  -2.312  -4.015  0.00  0.00    -0.249 OA
BRANCH  33  35
ATOM     35  O   UNL     1       1.751  -0.349  -4.995  0.00  0.00    -0.464 OA
BRANCH  35  37
ATOM     36  C   UNL     1       3.201   0.568  -6.697  0.00  0.00    +0.048 C 
ATOM     37  C   UNL     1       2.925  -0.614  -5.766  0.00  0.00    +0.229 C 
ENDBRANCH  35  37
ENDBRANCH  33  35
ENDBRANCH  32  33
ENDBRANCH   1  32
TORSDOF 7
