REMARK  Name = ZINC44974361
REMARK  5 active torsions:
REMARK  status: ('A' for Active; 'I' for Inactive)
REMARK    1  A    between atoms: C_4  and  O_33
REMARK    2  A    between atoms: C_5  and  C_7
REMARK    3  A    between atoms: C_7  and  N_8
REMARK    4  A    between atoms: C_21  and  C_23
REMARK    5  A    between atoms: O_33  and  C_34
REMARK                            x       y       z     vdW  Elec       q    Type
REMARK                         _______ _______ _______ _____ _____    ______ ____
ROOT
ATOM      1  N   UNL     1       1.605  -2.679   1.310  0.00  0.00    -0.286 NA
ATOM      2  C   UNL     1       2.943  -2.202   1.687  0.00  0.00    +0.090 C 
ATOM      3  C   UNL     1       3.147  -2.394   3.196  0.00  0.00    +0.053 C 
ATOM      4  C   UNL     1       2.748  -3.806   3.544  0.00  0.00    -0.016 A 
ATOM      5  C   UNL     1       3.034  -4.572   4.736  0.00  0.00    +0.003 A 
ATOM      6  C   UNL     1       3.740  -4.279   5.907  0.00  0.00    +0.010 A 
ATOM      7  C   UNL     1       3.812  -5.272   6.854  0.00  0.00    +0.001 A 
ATOM      8  C   UNL     1       3.217  -6.510   6.669  0.00  0.00    +0.002 A 
ATOM      9  C   UNL     1       2.514  -6.827   5.520  0.00  0.00    +0.026 A 
ATOM     10  C   UNL     1       2.423  -5.839   4.542  0.00  0.00    +0.047 A 
ATOM     11  N   UNL     1       1.819  -5.816   3.317  0.00  0.00    -0.356 N 
ATOM     12  H   UNL     1       1.325  -6.553   2.925  0.00  0.00    +0.166 HD
ATOM     13  C   UNL     1       2.017  -4.598   2.726  0.00  0.00    +0.042 A 
ATOM     14  C   UNL     1       1.520  -4.147   1.373  0.00  0.00    +0.138 C 
ENDROOT
BRANCH  14  15
ATOM     15  C   UNL     1       0.088  -4.580   1.189  0.00  0.00    +0.022 A 
ATOM     16  C   UNL     1      -0.939  -3.679   1.405  0.00  0.00    +0.029 A 
ATOM     17  C   UNL     1      -2.254  -4.072   1.237  0.00  0.00    +0.045 A 
ATOM     18  C   UNL     1      -2.547  -5.369   0.853  0.00  0.00    +0.069 A 
ATOM     19  C   UNL     1      -1.523  -6.276   0.636  0.00  0.00    +0.168 A 
ATOM     20  C   UNL     1      -0.198  -5.877   0.800  0.00  0.00    +0.171 A 
ATOM     21  O   UNL     1       0.614  -6.939   0.524  0.00  0.00    -0.452 OA
ATOM     22  C   UNL     1      -0.238  -8.099   0.581  0.00  0.00    +0.466 C 
ATOM     23  O   UNL     1      -1.541  -7.588   0.260  0.00  0.00    -0.453 OA
ATOM     24 CL   UNL     1      -3.539  -2.937   1.508  0.00  0.00    -0.083 Cl
ENDBRANCH  14  15
BRANCH   1  25
ATOM     25  C   UNL     1       1.227  -2.187  -0.022  0.00  0.00    +0.124 C 
BRANCH  25  30
ATOM     26  C   UNL     1       0.603   1.274   1.354  0.00  0.00    +0.001 A 
ATOM     27  C   UNL     1       0.368   1.996   0.198  0.00  0.00    +0.004 A 
ATOM     28  C   UNL     1       0.410   1.367  -1.031  0.00  0.00    +0.046 A 
ATOM     29  C   UNL     1       0.689   0.010  -1.105  0.00  0.00    +0.134 A 
ATOM     30  C   UNL     1       0.924  -0.712   0.055  0.00  0.00    +0.009 A 
ATOM     31  C   UNL     1       0.880  -0.079   1.282  0.00  0.00    +0.008 A 
BRANCH  29  32
ATOM     32  O   UNL     1       0.731  -0.611  -2.314  0.00  0.00    -0.405 OA
BRANCH  32  33
ATOM     33  C   UNL     1       0.478   0.194  -3.466  0.00  0.00    +0.575 C 
ATOM     34  F   UNL     1       1.429   1.218  -3.537  0.00  0.00    -0.133 F 
ATOM     35  F   UNL     1       0.560  -0.598  -4.616  0.00  0.00    -0.133 F 
ATOM     36  F   UNL     1      -0.802   0.752  -3.374  0.00  0.00    -0.133 F 
ENDBRANCH  32  33
ENDBRANCH  29  32
ENDBRANCH  25  30
ENDBRANCH   1  25
TORSDOF 5
