REMARK  Name = ZINC64971795
REMARK  9 active torsions:
REMARK  status: ('A' for Active; 'I' for Inactive)
REMARK    1  A    between atoms: C_1  and  C_2
REMARK    2  A    between atoms: C_5  and  C_8
REMARK    3  A    between atoms: C_10  and  C_13
REMARK    4  A    between atoms: C_14  and  C_33
REMARK    5  A    between atoms: C_16  and  C_32
REMARK    6  A    between atoms: N_17  and  C_20
REMARK    7  A    between atoms: C_20  and  C_21
REMARK    8  A    between atoms: N_23  and  C_24
REMARK    9  A    between atoms: C_27  and  C_31
REMARK                            x       y       z     vdW  Elec       q    Type
REMARK                         _______ _______ _______ _____ _____    ______ ____
ROOT
ATOM      1  C   UNL     1       0.114  -7.436   1.612  0.00  0.00    +0.107 A 
ATOM      2  C   UNL     1       0.128  -8.731   1.103  0.00  0.00    -0.031 A 
ATOM      3  C   UNL     1       0.135  -9.808   1.991  0.00  0.00    +0.025 A 
ATOM      4  C   UNL     1       0.128  -9.586   3.329  0.00  0.00    +0.020 A 
ATOM      5  N   UNL     1       0.113  -8.328   3.833  0.00  0.00    -0.303 N 
ATOM      6  C   UNL     1       0.112  -7.255   3.019  0.00  0.00    +0.265 A 
ATOM      7  O   UNL     1       0.105  -6.130   3.490  0.00  0.00    -0.267 OA
ATOM      8  C   UNL     1       0.135 -10.761   4.274  0.00  0.00    +0.063 C 
ATOM      9  C   UNL     1       0.135  -8.967  -0.386  0.00  0.00    +0.045 C 
ENDROOT
BRANCH   1  12
ATOM     10  C   UNL     1       0.095  -4.222  -0.012  0.00  0.00    +0.202 A 
ATOM     11  N   UNL     1       0.099  -5.012   1.073  0.00  0.00    -0.187 NA
ATOM     12  C   UNL     1       0.107  -6.275   0.707  0.00  0.00    +0.264 A 
ATOM     13  O   UNL     1       0.108  -6.322  -0.638  0.00  0.00    -0.332 OA
ATOM     14  N   UNL     1       0.095  -4.975  -1.085  0.00  0.00    -0.056 NA
BRANCH  10  19
ATOM     15  C   UNL     1       0.055   1.538   0.038  0.00  0.00    +0.044 C 
ATOM     16  C   UNL     1       0.065   0.031   0.025  0.00  0.00    -0.050 A 
ATOM     17  C   UNL     1       0.066  -0.648  -1.180  0.00  0.00    +0.004 A 
ATOM     18  C   UNL     1       0.075  -2.028  -1.198  0.00  0.00    +0.012 A 
ATOM     19  C   UNL     1       0.085  -2.737   0.001  0.00  0.00    +0.022 A 
ATOM     20  C   UNL     1       0.084  -2.049   1.212  0.00  0.00    +0.012 A 
ATOM     21  C   UNL     1       0.080  -0.669   1.218  0.00  0.00    +0.004 A 
ENDBRANCH  10  19
ENDBRANCH   1  12
BRANCH   5  22
ATOM     22  C   UNL     1       0.105  -8.132   5.285  0.00  0.00    +0.221 C 
BRANCH  22  23
ATOM     23  C   UNL     1       1.523  -8.051   5.789  0.00  0.00    +0.237 C 
ATOM     24  O   UNL     1       2.449  -8.148   5.011  0.00  0.00    -0.274 OA
ATOM     25  N   UNL     1       1.762  -7.872   7.103  0.00  0.00    -0.283 N 
ATOM     26  H   UNL     1       1.023  -7.729   7.715  0.00  0.00    +0.155 HD
BRANCH  25  27
ATOM     27  C   UNL     1       3.076  -7.891   7.584  0.00  0.00    +0.048 A 
ATOM     28  C   UNL     1       4.109  -7.385   6.807  0.00  0.00    +0.024 A 
ATOM     29  C   UNL     1       5.405  -7.404   7.285  0.00  0.00    +0.005 A 
ATOM     30  C   UNL     1       5.674  -7.928   8.536  0.00  0.00    -0.049 A 
ATOM     31  C   UNL     1       4.648  -8.433   9.313  0.00  0.00    +0.020 A 
ATOM     32  C   UNL     1       3.349  -8.411   8.843  0.00  0.00    +0.039 A 
ATOM     33 BR   UNL     1       1.945  -9.095   9.910  0.00  0.00    -0.048 Br
ATOM     34  C   UNL     1       7.089  -7.948   9.054  0.00  0.00    +0.044 C 
ENDBRANCH  25  27
ENDBRANCH  22  23
ENDBRANCH   5  22
TORSDOF 5
