REMARK  Name = ZINC12791720
REMARK  4 active torsions:
REMARK  status: ('A' for Active; 'I' for Inactive)
REMARK    1  A    between atoms: C_1  and  C_2
REMARK    2  A    between atoms: C_2  and  C_23
REMARK    3  A    between atoms: N_5  and  N_9
REMARK    4  A    between atoms: N_12  and  C_13
REMARK                            x       y       z     vdW  Elec       q    Type
REMARK                         _______ _______ _______ _____ _____    ______ ____
ROOT
ATOM      1  N   UNL     1      -1.192   2.002   0.019  0.00  0.00    -0.207 N 
ATOM      2  C   UNL     1      -0.016   1.344   0.009  0.00  0.00    +0.317 C 
ATOM      3  O   UNL     1       1.028   1.966   0.003  0.00  0.00    -0.251 OA
ATOM      4  N   UNL     1       0.002  -0.004   0.002  0.00  0.00    -0.293 N 
ATOM      5  H   UNL     1      -1.206   2.971   0.024  0.00  0.00    +0.175 HD
ATOM      6  H   UNL     1      -0.831  -0.500   0.007  0.00  0.00    +0.151 HD
ENDROOT
BRANCH   4   7
ATOM      7  C   UNL     1       1.281  -0.719  -0.014  0.00  0.00    +0.037 C 
ATOM      8  C   UNL     1       2.066  -0.332  -1.269  0.00  0.00    +0.029 C 
ATOM      9  C   UNL     1       3.401  -1.079  -1.286  0.00  0.00    -0.008 C 
ATOM     10  C   UNL     1       3.142  -2.587  -1.291  0.00  0.00    +0.007 C 
ATOM     11  C   UNL     1       2.357  -2.974  -0.036  0.00  0.00    -0.008 C 
ATOM     12  C   UNL     1       1.021  -2.227  -0.020  0.00  0.00    +0.029 C 
ATOM     13  C   UNL     1       3.166  -2.600   1.207  0.00  0.00    +0.007 C 
ATOM     14  C   UNL     1       3.425  -1.092   1.213  0.00  0.00    -0.008 C 
ATOM     15  C   UNL     1       4.210  -0.705  -0.042  0.00  0.00    +0.007 C 
ATOM     16  C   UNL     1       2.090  -0.345   1.230  0.00  0.00    +0.029 C 
ENDBRANCH   4   7
BRANCH   1  21
ATOM     17  C   UNL     1      -4.429  -1.013   1.419  0.00  0.00    +0.047 C 
ATOM     18  C   UNL     1      -4.363   0.300   0.637  0.00  0.00    +0.137 C 
ATOM     19  C   UNL     1      -3.189   1.139   1.100  0.00  0.00    +0.267 C 
ATOM     20  O   UNL     1      -3.002   1.586   2.212  0.00  0.00    -0.271 OA
ATOM     21  N   UNL     1      -2.396   1.285   0.020  0.00  0.00    -0.136 N 
ATOM     22  C   UNL     1      -2.903   0.664  -1.051  0.00  0.00    +0.327 C 
ATOM     23  O   UNL     1      -2.370   0.658  -2.143  0.00  0.00    -0.251 OA
ATOM     24  N   UNL     1      -4.068   0.046  -0.784  0.00  0.00    -0.280 N 
ATOM     25  H   UNL     1      -4.609  -0.465  -1.406  0.00  0.00    +0.152 HD
BRANCH  18  26
ATOM     26  C   UNL     1      -5.653   1.066   0.781  0.00  0.00    -0.015 A 
ATOM     27  C   UNL     1      -5.787   2.010   1.782  0.00  0.00    +0.006 A 
ATOM     28  C   UNL     1      -6.968   2.717   1.912  0.00  0.00    +0.000 A 
ATOM     29  C   UNL     1      -8.018   2.472   1.047  0.00  0.00    +0.000 A 
ATOM     30  C   UNL     1      -7.886   1.524   0.049  0.00  0.00    +0.000 A 
ATOM     31  C   UNL     1      -6.703   0.822  -0.083  0.00  0.00    +0.006 A 
ENDBRANCH  18  26
ENDBRANCH   1  21
TORSDOF 3
