REMARK  Name = ZINC51735556
REMARK  10 active torsions:
REMARK  status: ('A' for Active; 'I' for Inactive)
REMARK    1  A    between atoms: C_1  and  C_2
REMARK    2  A    between atoms: C_6  and  C_7
REMARK    3  A    between atoms: C_7  and  N_8
REMARK    4  A    between atoms: N_8  and  C_9
REMARK    5  A    between atoms: N_8  and  C_10
REMARK    6  A    between atoms: C_10  and  C_11
REMARK    7  A    between atoms: C_11  and  N_13
REMARK    8  A    between atoms: C_16  and  C_19
REMARK    9  A    between atoms: C_19  and  N_20
REMARK   10  A    between atoms: C_23  and  C_26
REMARK                            x       y       z     vdW  Elec       q    Type
REMARK                         _______ _______ _______ _____ _____    ______ ____
ROOT
ATOM      1  N   UNL     1      -2.716   0.876   6.551  0.00  0.00    -0.158 NA
ATOM      2  C   UNL     1      -4.005   0.897   6.897  0.00  0.00    +0.163 A 
ATOM      3  N   UNL     1      -4.547   1.147   8.119  0.00  0.00    -0.341 N 
ATOM      4  C   UNL     1      -5.900   1.119   8.254  0.00  0.00    +0.008 A 
ATOM      5  C   UNL     1      -6.620   0.844   7.161  0.00  0.00    +0.067 A 
ATOM      6  S   UNL     1      -5.352   0.629   5.927  0.00  0.00    -0.061 S 
ATOM      7  H   UNL     1      -3.979   1.342   8.881  0.00  0.00    +0.167 HD
ENDROOT
BRANCH   1   8
ATOM      8  C   UNL     1      -2.370   0.616   5.296  0.00  0.00    +0.222 C 
ATOM      9  O   UNL     1      -3.228   0.397   4.462  0.00  0.00    -0.276 OA
BRANCH   8  10
ATOM     10  C   UNL     1      -0.915   0.592   4.905  0.00  0.00    +0.021 C 
BRANCH  10  11
ATOM     11  N   UNL     1      -0.798   0.284   3.474  0.00  0.00    +0.387 N 
ATOM     12  C   UNL     1      -1.393   1.373   2.688  0.00  0.00    -0.095 C 
ATOM     13  H   UNL     1      -1.282  -0.579   3.275  0.00  0.00    -0.081 HD
BRANCH  11  14
ATOM     14  C   UNL     1       0.621   0.142   3.118  0.00  0.00    -0.035 C 
BRANCH  14  20
ATOM     15  C   UNL     1       0.819   1.971   0.658  0.00  0.00    +0.044 C 
ATOM     16  C   UNL     1       0.827   0.467   0.562  0.00  0.00    -0.042 A 
ATOM     17  C   UNL     1       0.933  -0.157  -0.666  0.00  0.00    +0.011 A 
ATOM     18  C   UNL     1       0.938  -1.512  -0.717  0.00  0.00    +0.045 A 
ATOM     19  S   UNL     1       0.789  -1.947   1.008  0.00  0.00    -0.103 S 
ATOM     20  C   UNL     1       0.737  -0.294   1.681  0.00  0.00    -0.024 A 
ENDBRANCH  14  20
ENDBRANCH  11  14
ENDBRANCH  10  11
ENDBRANCH   8  10
ENDBRANCH   1   8
BRANCH   4  21
ATOM     21  C   UNL     1      -6.561   1.387   9.582  0.00  0.00    -0.024 C 
BRANCH  21  22
ATOM     22  N   UNL     1      -6.200   0.327  10.531  0.00  0.00    +0.383 N 
ATOM     23  C   UNL     1      -6.722   0.664  11.861  0.00  0.00    -0.078 C 
ATOM     24  C   UNL     1      -6.280  -0.397  12.871  0.00  0.00    -0.016 C 
ATOM     25  C   UNL     1      -6.823  -1.762  12.440  0.00  0.00    -0.018 C 
ATOM     26  C   UNL     1      -6.333  -2.071  11.022  0.00  0.00    -0.016 C 
ATOM     27  C   UNL     1      -6.773  -0.948  10.080  0.00  0.00    -0.078 C 
ATOM     28  C   UNL     1      -6.319  -2.841  13.401  0.00  0.00    +0.007 C 
ATOM     29  H   UNL     1      -5.196   0.245  10.577  0.00  0.00    -0.081 HD
ENDBRANCH  21  22
ENDBRANCH   4  21
TORSDOF 7
