REMARK  Name = ZINC12795155
REMARK  8 active torsions:
REMARK  status: ('A' for Active; 'I' for Inactive)
REMARK    1  A    between atoms: C_1  and  C_2
REMARK    2  A    between atoms: C_5  and  C_9
REMARK    3  A    between atoms: C_7  and  C_8
REMARK    4  A    between atoms: C_9  and  C_11
REMARK    5  A    between atoms: C_9  and  N_12
REMARK    6  A    between atoms: C_13  and  C_15
REMARK    7  A    between atoms: C_15  and  N_62
REMARK    8  A    between atoms: C_19  and  C_21
REMARK                            x       y       z     vdW  Elec       q    Type
REMARK                         _______ _______ _______ _____ _____    ______ ____
ROOT
ATOM      1  C   UNL     1       2.478   6.312  -5.571  0.00  0.00    -0.077 C 
ATOM      2  C   UNL     1       1.431   5.712  -6.532  0.00  0.00    -0.020 C 
ATOM      3  C   UNL     1       0.444   4.997  -5.573  0.00  0.00    -0.013 C 
ATOM      4  C   UNL     1       1.400   4.473  -4.473  0.00  0.00    -0.037 C 
ATOM      5  N   UNL     1       2.402   5.547  -4.316  0.00  0.00    +0.390 N 
ATOM      6  H   UNL     1       2.113   6.171  -3.554  0.00  0.00    -0.080 HD
ENDROOT
BRANCH   4   7
ATOM      7  C   UNL     1       0.653   4.270  -3.180  0.00  0.00    -0.057 A 
ATOM      8  C   UNL     1       0.297   5.363  -2.412  0.00  0.00    +0.006 A 
ATOM      9  C   UNL     1      -0.389   5.184  -1.223  0.00  0.00    +0.049 A 
ATOM     10  C   UNL     1      -0.719   3.906  -0.807  0.00  0.00    +0.162 A 
ATOM     11  C   UNL     1      -0.362   2.809  -1.579  0.00  0.00    +0.162 A 
ATOM     12  C   UNL     1       0.326   2.991  -2.767  0.00  0.00    +0.051 A 
ATOM     13  O   UNL     1      -0.692   1.553  -1.159  0.00  0.00    -0.488 OA
ATOM     14  C   UNL     1      -0.013   1.086   0.008  0.00  0.00    +0.232 C 
ATOM     15  C   UNL     1      -0.712   1.570   1.269  0.00  0.00    +0.082 C 
ATOM     16  C   UNL     1      -0.662   3.083   1.413  0.00  0.00    +0.232 C 
ATOM     17  O   UNL     1      -1.395   3.716   0.363  0.00  0.00    -0.488 OA
ENDBRANCH   4   7
BRANCH   5  18
ATOM     18  C   UNL     1       3.729   4.964  -3.989  0.00  0.00    +0.019 C 
BRANCH  18  20
ATOM     19  N   UNL     1       5.945   5.782  -3.254  0.00  0.00    -0.310 N 
ATOM     20  C   UNL     1       4.675   6.071  -3.600  0.00  0.00    +0.197 C 
ATOM     21  O   UNL     1       4.294   7.222  -3.598  0.00  0.00    -0.278 OA
ATOM     22  H   UNL     1       6.251   4.861  -3.256  0.00  0.00    +0.149 HD
BRANCH  19  23
ATOM     23  C   UNL     1       6.865   6.858  -2.876  0.00  0.00    +0.100 C 
ATOM     24  C   UNL     1       6.689   7.180  -1.391  0.00  0.00    +0.033 C 
BRANCH  23  29
ATOM     25  C   UNL     1      12.306   5.173  -3.851  0.00  0.00    +0.044 C 
ATOM     26  C   UNL     1      10.887   5.612  -3.597  0.00  0.00    -0.048 A 
ATOM     27  C   UNL     1       9.971   4.720  -3.071  0.00  0.00    +0.004 A 
ATOM     28  C   UNL     1       8.671   5.125  -2.834  0.00  0.00    +0.006 A 
ATOM     29  C   UNL     1       8.284   6.418  -3.130  0.00  0.00    -0.027 A 
ATOM     30  C   UNL     1       9.200   7.310  -3.655  0.00  0.00    +0.009 A 
ATOM     31  C   UNL     1      10.502   6.907  -3.888  0.00  0.00    -0.047 A 
ATOM     32  C   UNL     1      11.501   7.880  -4.460  0.00  0.00    +0.044 C 
ENDBRANCH  23  29
ENDBRANCH  19  23
ENDBRANCH  18  20
ENDBRANCH   5  18
TORSDOF 5
