REMARK  Name = ZINC36580895
REMARK  18 active torsions:
REMARK  status: ('A' for Active; 'I' for Inactive)
REMARK    1  A    between atoms: C_1  and  C_2
REMARK    2  A    between atoms: C_2  and  C_3
REMARK    3  A    between atoms: C_3  and  C_4
REMARK    4  A    between atoms: C_4  and  N_5
REMARK    5  A    between atoms: C_6  and  C_8
REMARK    6  A    between atoms: C_8  and  C_10
REMARK    7  A    between atoms: C_8  and  N_19
REMARK    8  A    between atoms: C_11  and  O_18
REMARK    9  A    between atoms: C_13  and  O_17
REMARK   10  A    between atoms: C_15  and  O_16
REMARK   11  A    between atoms: N_19  and  C_32
REMARK   12  A    between atoms: C_20  and  C_22
REMARK   13  A    between atoms: C_22  and  C_24
REMARK   14  A    between atoms: C_22  and  O_30
REMARK   15  A    between atoms: O_30  and  C_31
REMARK   16  A    between atoms: C_32  and  C_33
REMARK   17  A    between atoms: C_32  and  C_34
REMARK   18  A    between atoms: C_32  and  C_35
REMARK                            x       y       z     vdW  Elec       q    Type
REMARK                         _______ _______ _______ _____ _____    ______ ____
ROOT
ATOM      1  C   UNL     1      -5.027  -3.691   0.869  0.00  0.00    +0.200 C 
ENDROOT
BRANCH   1   2
ATOM      2  C   UNL     1      -5.756  -3.773   2.186  0.00  0.00    +0.065 A 
ATOM      3  C   UNL     1      -6.660  -4.800   2.414  0.00  0.00    +0.129 A 
ATOM      4  C   UNL     1      -7.331  -4.876   3.625  0.00  0.00    +0.091 A 
ATOM      5  C   UNL     1      -7.098  -3.926   4.608  0.00  0.00    +0.124 A 
ATOM      6  C   UNL     1      -6.193  -2.900   4.380  0.00  0.00    +0.091 A 
ATOM      7  C   UNL     1      -5.519  -2.826   3.170  0.00  0.00    +0.129 A 
BRANCH   7   8
ATOM      8  O   UNL     1      -4.629  -1.823   2.948  0.00  0.00    -0.506 OA
ATOM      9  H   UNL     1      -5.020  -1.030   2.556  0.00  0.00    +0.292 HD
ENDBRANCH   7   8
BRANCH   5  10
ATOM     10  O   UNL     1      -7.756  -4.000   5.795  0.00  0.00    -0.507 OA
ATOM     11  H   UNL     1      -7.297  -4.521   6.467  0.00  0.00    +0.292 HD
ENDBRANCH   5  10
BRANCH   3  12
ATOM     12  O   UNL     1      -6.888  -5.731   1.451  0.00  0.00    -0.506 OA
ATOM     13  H   UNL     1      -6.244  -6.453   1.442  0.00  0.00    +0.292 HD
ENDBRANCH   3  12
ENDBRANCH   1   2
BRANCH   1  15
ATOM     14  N   UNL     1      -6.872  -2.509  -0.278  0.00  0.00    -0.313 N 
ATOM     15  C   UNL     1      -6.026  -3.558  -0.251  0.00  0.00    +0.238 C 
ATOM     16  O   UNL     1      -6.068  -4.394  -1.128  0.00  0.00    -0.273 OA
ATOM     17  H   UNL     1      -6.838  -1.840   0.423  0.00  0.00    +0.149 HD
BRANCH  14  18
ATOM     18  C   UNL     1      -7.843  -2.380  -1.367  0.00  0.00    +0.104 C 
BRANCH  18  19
ATOM     19  C   UNL     1      -8.675  -1.112  -1.161  0.00  0.00    +0.018 C 
BRANCH  19  21
ATOM     20  C   UNL     1     -10.521   0.291  -2.093  0.00  0.00    +0.004 C 
ATOM     21  C   UNL     1      -9.689  -0.977  -2.299  0.00  0.00    -0.002 C 
ENDBRANCH  19  21
ENDBRANCH  18  19
ENDBRANCH  14  18
ENDBRANCH   1  15
BRANCH   1  22
ATOM     22  N   UNL     1      -4.233  -4.906   0.674  0.00  0.00    -0.278 N 
ATOM     23  C   UNL     1      -4.202  -5.853   1.633  0.00  0.00    +0.250 C 
ATOM     24  O   UNL     1      -4.860  -5.715   2.642  0.00  0.00    -0.272 OA
BRANCH  22  25
ATOM     25  C   UNL     1      -3.472  -5.093  -0.565  0.00  0.00    +0.030 C 
ATOM     26  C   UNL     1      -3.052  -3.729  -1.116  0.00  0.00    +0.031 C 
ATOM     27  C   UNL     1      -2.226  -5.933  -0.276  0.00  0.00    +0.031 C 
ATOM     28  C   UNL     1      -4.345  -5.813  -1.595  0.00  0.00    +0.031 C 
ENDBRANCH  22  25
BRANCH  23  29
ATOM     29  C   UNL     1      -3.348  -7.082   1.452  0.00  0.00    +0.233 C 
BRANCH  29  30
ATOM     30  C   UNL     1      -3.959  -7.965   0.395  0.00  0.00    -0.010 A 
ATOM     31  C   UNL     1      -5.294  -8.315   0.473  0.00  0.00    +0.006 A 
ATOM     32  C   UNL     1      -5.854  -9.126  -0.497  0.00  0.00    +0.000 A 
ATOM     33  C   UNL     1      -5.079  -9.586  -1.544  0.00  0.00    +0.000 A 
ATOM     34  C   UNL     1      -3.744  -9.236  -1.623  0.00  0.00    +0.000 A 
ATOM     35  C   UNL     1      -3.185  -8.422  -0.656  0.00  0.00    +0.006 A 
ENDBRANCH  29  30
BRANCH  29  36
ATOM     36  O   UNL     1      -3.275  -7.797   2.687  0.00  0.00    -0.366 OA
ATOM     37  C   UNL     1      -2.186  -7.402   3.523  0.00  0.00    +0.195 C 
ENDBRANCH  29  36
ENDBRANCH  23  29
ENDBRANCH   1  22
TORSDOF 13
