REMARK  Name = ZINC22913762
REMARK  8 active torsions:
REMARK  status: ('A' for Active; 'I' for Inactive)
REMARK    1  A    between atoms: C_1  and  C_2
REMARK    2  A    between atoms: C_2  and  C_3
REMARK    3  A    between atoms: C_3  and  C_4
REMARK    4  A    between atoms: C_4  and  C_5
REMARK    5  A    between atoms: C_5  and  C_27
REMARK    6  A    between atoms: N_8  and  C_12
REMARK    7  A    between atoms: C_12  and  N_13
REMARK    8  A    between atoms: N_16  and  C_19
REMARK                            x       y       z     vdW  Elec       q    Type
REMARK                         _______ _______ _______ _____ _____    ______ ____
ROOT
ATOM      1  C   UNL     1       1.455  -2.521  -2.524  0.00  0.00    +0.138 C 
ATOM      2  C   UNL     1       0.818  -1.931  -3.766  0.00  0.00    +0.252 C 
ATOM      3  O   UNL     1      -0.324  -2.080  -4.145  0.00  0.00    -0.272 OA
ATOM      4  N   UNL     1       1.784  -1.204  -4.362  0.00  0.00    -0.210 N 
ATOM      5  C   UNL     1       2.932  -1.253  -3.676  0.00  0.00    +0.311 C 
ATOM      6  O   UNL     1       3.947  -0.678  -4.015  0.00  0.00    -0.252 OA
ATOM      7  N   UNL     1       2.836  -2.011  -2.568  0.00  0.00    -0.281 N 
ATOM      8  H   UNL     1       3.540  -2.187  -1.924  0.00  0.00    +0.152 HD
ENDROOT
BRANCH   1   9
ATOM      9  C   UNL     1       1.444  -4.027  -2.583  0.00  0.00    -0.015 A 
ATOM     10  C   UNL     1       0.397  -4.732  -2.019  0.00  0.00    +0.009 A 
ATOM     11  C   UNL     1       0.385  -6.113  -2.073  0.00  0.00    +0.039 A 
ATOM     12  C   UNL     1       1.423  -6.790  -2.691  0.00  0.00    +0.123 A 
ATOM     13  C   UNL     1       2.471  -6.082  -3.255  0.00  0.00    +0.039 A 
ATOM     14  C   UNL     1       2.478  -4.701  -3.205  0.00  0.00    +0.009 A 
ATOM     15  F   UNL     1       1.412  -8.140  -2.744  0.00  0.00    -0.205 F 
ENDBRANCH   1   9
BRANCH   1  16
ATOM     16  C   UNL     1       0.739  -2.027  -1.265  0.00  0.00    +0.040 C 
BRANCH  16  17
ATOM     17  C   UNL     1       0.718  -0.497  -1.257  0.00  0.00    +0.003 C 
BRANCH  17  19
ATOM     18  C   UNL     1      -0.019   1.526   0.010  0.00  0.00    +0.004 C 
ATOM     19  C   UNL     1       0.002  -0.004   0.002  0.00  0.00    -0.003 C 
ENDBRANCH  17  19
ENDBRANCH  16  17
ENDBRANCH   1  16
BRANCH   4  20
ATOM     20  C   UNL     1       1.601  -0.455  -5.607  0.00  0.00    +0.205 C 
BRANCH  20  21
ATOM     21  N   UNL     1       1.152   0.909  -5.296  0.00  0.00    -0.290 NA
ATOM     22  C   UNL     1      -0.295   0.941  -5.041  0.00  0.00    +0.067 C 
ATOM     23  C   UNL     1      -0.712   2.364  -4.663  0.00  0.00    -0.063 C 
ATOM     24  N   UNL     1      -0.370   3.281  -5.759  0.00  0.00    +0.384 N 
ATOM     25  C   UNL     1       1.081   3.257  -5.986  0.00  0.00    -0.063 C 
ATOM     26  C   UNL     1       1.512   1.841  -6.374  0.00  0.00    +0.067 C 
ATOM     27  H   UNL     1      -0.847   2.993  -6.600  0.00  0.00    -0.081 HD
BRANCH  24  28
ATOM     28  C   UNL     1      -0.787   4.645  -5.404  0.00  0.00    -0.046 C 
ATOM     29  C   UNL     1      -2.310   4.686  -5.199  0.00  0.00    +0.009 C 
ATOM     30  C   UNL     1      -2.796   6.154  -5.144  0.00  0.00    +0.164 C 
ATOM     31  S   UNL     1      -1.547   7.032  -6.170  0.00  0.00    -0.033 S 
ATOM     32  O   UNL     1      -2.165   7.476  -7.370  0.00  0.00    -0.174 OA
ATOM     33  O   UNL     1      -0.852   7.964  -5.354  0.00  0.00    -0.174 OA
ATOM     34  C   UNL     1      -0.427   5.622  -6.559  0.00  0.00    +0.151 C 
ENDBRANCH  24  28
ENDBRANCH  20  21
ENDBRANCH   4  20
TORSDOF 7
