REMARK  Name = ZINC22312350
REMARK  6 active torsions:
REMARK  status: ('A' for Active; 'I' for Inactive)
REMARK    1  A    between atoms: C_1  and  C_2
REMARK    2  A    between atoms: C_2  and  O_3
REMARK    3  A    between atoms: O_3  and  C_4
REMARK    4  A    between atoms: C_5  and  N_12
REMARK    5  A    between atoms: C_13  and  C_15
REMARK    6  A    between atoms: N_17  and  C_22
REMARK                            x       y       z     vdW  Elec       q    Type
REMARK                         _______ _______ _______ _____ _____    ______ ____
ROOT
ATOM      1  N   UNL     1       3.622  -0.660  -0.037  0.00  0.00    -0.277 N 
ATOM      2  C   UNL     1       3.642  -2.004   0.057  0.00  0.00    +0.264 C 
ATOM      3  O   UNL     1       2.599  -2.629   0.064  0.00  0.00    -0.268 OA
ATOM      4  H   UNL     1       4.565  -0.101  -0.135  0.00  0.00    +0.155 HD
ENDROOT
BRANCH   1   6
ATOM      5  C   UNL     1       2.293   1.283  -0.601  0.00  0.00    +0.156 A 
ATOM      6  C   UNL     1       2.402   0.026  -0.010  0.00  0.00    +0.078 A 
ATOM      7  C   UNL     1       1.297  -0.545   0.605  0.00  0.00    +0.047 A 
ATOM      8  C   UNL     1       0.092   0.133   0.630  0.00  0.00    +0.044 A 
ATOM      9  C   UNL     1      -0.015   1.381   0.043  0.00  0.00    +0.039 A 
ATOM     10  C   UNL     1       1.083   1.956  -0.572  0.00  0.00    +0.063 A 
ATOM     11 BR   UNL     1       0.931   3.663  -1.373  0.00  0.00    -0.046 Br
ATOM     12 CL   UNL     1      -1.290  -0.583   1.400  0.00  0.00    -0.083 Cl
BRANCH   5  13
ATOM     13  O   UNL     1       3.373   1.847  -1.205  0.00  0.00    -0.489 OA
BRANCH  13  15
ATOM     14  C   UNL     1       4.813   2.285  -3.096  0.00  0.00    +0.048 C 
ATOM     15  C   UNL     1       3.557   1.569  -2.595  0.00  0.00    +0.226 C 
ENDBRANCH  13  15
ENDBRANCH   5  13
ENDBRANCH   1   6
BRANCH   2  16
ATOM     16  C   UNL     1       4.923  -2.714   0.151  0.00  0.00    +0.122 C 
ATOM     17  N   UNL     1       6.030  -2.038   0.143  0.00  0.00    -0.177 NA
ATOM     18  N   UNL     1       7.270  -2.681   0.229  0.00  0.00    -0.188 N 
ATOM     19  C   UNL     1       7.380  -3.992  -0.061  0.00  0.00    +0.235 C 
ATOM     20  O   UNL     1       8.458  -4.543   0.011  0.00  0.00    -0.274 OA
ATOM     21  C   UNL     1       6.157  -4.772  -0.475  0.00  0.00    +0.104 C 
ATOM     22  C   UNL     1       4.934  -4.215   0.262  0.00  0.00    +0.071 C 
BRANCH  18  23
ATOM     23  C   UNL     1       8.456  -1.924   0.637  0.00  0.00    +0.124 C 
ATOM     24  C   UNL     1       8.242  -1.365   2.054  0.00  0.00    +0.049 C 
ATOM     25  C   UNL     1       9.360  -0.320   2.335  0.00  0.00    +0.168 C 
ATOM     26  S   UNL     1       9.438   0.538   0.707  0.00  0.00    -0.029 S 
ATOM     27  O   UNL     1       8.572   1.665   0.736  0.00  0.00    -0.174 OA
ATOM     28  O   UNL     1      10.799   0.712   0.340  0.00  0.00    -0.174 OA
ATOM     29  C   UNL     1       8.690  -0.761  -0.358  0.00  0.00    +0.190 C 
ENDBRANCH  18  23
ENDBRANCH   2  16
TORSDOF 5
