REMARK  Name = ZINC23594443
REMARK  14 active torsions:
REMARK  status: ('A' for Active; 'I' for Inactive)
REMARK    1  A    between atoms: C_1  and  C_2
REMARK    2  A    between atoms: C_2  and  C_4
REMARK    3  A    between atoms: C_2  and  S_16
REMARK    4  A    between atoms: N_6  and  C_7
REMARK    5  A    between atoms: C_10  and  N_13
REMARK    6  A    between atoms: S_16  and  C_17
REMARK    7  A    between atoms: C_20  and  C_27
REMARK    8  A    between atoms: N_21  and  C_22
REMARK    9  A    between atoms: C_22  and  C_23
REMARK   10  A    between atoms: C_23  and  C_24
REMARK   11  A    between atoms: C_24  and  C_25
REMARK   12  A    between atoms: C_24  and  C_26
REMARK   13  A    between atoms: C_27  and  O_28
REMARK   14  A    between atoms: O_28  and  C_29
REMARK                            x       y       z     vdW  Elec       q    Type
REMARK                         _______ _______ _______ _____ _____    ______ ____
ROOT
ATOM      1  C   UNL     1      -0.192  -0.042  -2.807  0.00  0.00    +0.192 A 
ATOM      2  N   UNL     1      -1.310   0.637  -2.691  0.00  0.00    -0.122 NA
ATOM      3  N   UNL     1      -1.806   0.863  -3.854  0.00  0.00    -0.130 NA
ATOM      4  C   UNL     1      -1.042   0.348  -4.775  0.00  0.00    +0.172 A 
ATOM      5  N   UNL     1       0.017  -0.242  -4.142  0.00  0.00    -0.303 N 
ENDROOT
BRANCH   1   6
ATOM      6  S   UNL     1       0.847  -0.585  -1.491  0.00  0.00    -0.074 S 
BRANCH   6   8
ATOM      7  C   UNL     1      -0.007   1.532   0.016  0.00  0.00    +0.029 C 
ATOM      8  C   UNL     1       0.003   0.002   0.004  0.00  0.00    +0.137 C 
BRANCH   8   9
ATOM      9  C   UNL     1       0.730  -0.505   1.222  0.00  0.00    +0.230 C 
ATOM     10  O   UNL     1       1.909  -0.785   1.153  0.00  0.00    -0.274 OA
ATOM     11  N   UNL     1       0.071  -0.647   2.389  0.00  0.00    -0.285 N 
ATOM     12  H   UNL     1      -0.852  -0.361   2.463  0.00  0.00    +0.155 HD
BRANCH  11  13
ATOM     13  C   UNL     1       0.720  -1.209   3.495  0.00  0.00    +0.034 A 
ATOM     14  C   UNL     1       0.015  -2.013   4.381  0.00  0.00    +0.025 A 
ATOM     15  C   UNL     1       0.658  -2.566   5.471  0.00  0.00    +0.034 A 
ATOM     16  C   UNL     1       2.002  -2.319   5.681  0.00  0.00    +0.126 A 
ATOM     17  C   UNL     1       2.707  -1.518   4.801  0.00  0.00    +0.034 A 
ATOM     18  C   UNL     1       2.071  -0.968   3.706  0.00  0.00    +0.025 A 
BRANCH  16  19
ATOM     19  N   UNL     1       2.688  -2.913   6.851  0.00  0.00    +0.056 N 
ATOM     20  O   UNL     1       2.073  -3.613   7.621  0.00  0.00    -0.126 OA
ATOM     21  O   UNL     1       3.864  -2.698   7.035  0.00  0.00    -0.126 OA
ENDBRANCH  16  19
ENDBRANCH  11  13
ENDBRANCH   8   9
ENDBRANCH   6   8
ENDBRANCH   1   6
BRANCH   5  22
ATOM     22  C   UNL     1       1.140  -0.946  -4.765  0.00  0.00    +0.126 C 
BRANCH  22  23
ATOM     23  C   UNL     1       0.794  -2.429  -4.912  0.00  0.00    +0.024 C 
BRANCH  23  24
ATOM     24  C   UNL     1       1.967  -3.165  -5.564  0.00  0.00    -0.016 C 
ATOM     25  C   UNL     1       1.673  -4.666  -5.598  0.00  0.00    +0.007 C 
ATOM     26  C   UNL     1       2.161  -2.651  -6.992  0.00  0.00    +0.007 C 
ENDBRANCH  23  24
ENDBRANCH  22  23
ENDBRANCH   5  22
BRANCH   4  27
ATOM     27  C   UNL     1      -1.278   0.398  -6.262  0.00  0.00    +0.305 C 
BRANCH  27  28
ATOM     28  O   UNL     1      -0.659   1.567  -6.804  0.00  0.00    -0.484 OA
BRANCH  28  29
ATOM     29  C   UNL     1      -0.779   1.764  -8.143  0.00  0.00    +0.121 A 
ATOM     30  C   UNL     1      -1.482   0.855  -8.919  0.00  0.00    +0.045 A 
ATOM     31  C   UNL     1      -1.602   1.058 -10.280  0.00  0.00    +0.004 A 
ATOM     32  C   UNL     1      -1.022   2.166 -10.869  0.00  0.00    +0.000 A 
ATOM     33  C   UNL     1      -0.320   3.074 -10.098  0.00  0.00    +0.004 A 
ATOM     34  C   UNL     1      -0.202   2.879  -8.735  0.00  0.00    +0.045 A 
ENDBRANCH  28  29
ENDBRANCH  27  28
ENDBRANCH   4  27
TORSDOF 11
