REMARK  Name = ZINC13244704
REMARK  12 active torsions:
REMARK  status: ('A' for Active; 'I' for Inactive)
REMARK    1  A    between atoms: C_1  and  C_2
REMARK    2  A    between atoms: C_5  and  C_33
REMARK    3  A    between atoms: C_6  and  N_8
REMARK    4  A    between atoms: C_9  and  C_11
REMARK    5  A    between atoms: C_11  and  N_12
REMARK    6  A    between atoms: N_12  and  C_13
REMARK    7  A    between atoms: C_14  and  C_16
REMARK    8  A    between atoms: C_16  and  N_17
REMARK    9  A    between atoms: N_20  and  CA_21
REMARK   10  A    between atoms: CA_21  and  C_23
REMARK   11  A    between atoms: CA_21  and  C_31
REMARK   12  A    between atoms: C_23  and  C_24
REMARK                            x       y       z     vdW  Elec       q    Type
REMARK                         _______ _______ _______ _____ _____    ______ ____
ROOT
ATOM      1  C   UNL     1      -4.341  -1.022   2.425  0.00  0.00    +0.201 C 
ENDROOT
BRANCH   1   2
ATOM      2  N   UNL     1      -3.864  -0.457   1.160  0.00  0.00    -0.291 N 
ATOM      3  C   UNL     1      -2.851   0.431   1.158  0.00  0.00    +0.301 C 
ATOM      4  O   UNL     1      -2.333   0.764   2.207  0.00  0.00    -0.253 OA
ATOM      5  N   UNL     1      -2.411   0.951  -0.005  0.00  0.00    -0.286 N 
ATOM      6  H   UNL     1      -4.277  -0.723   0.323  0.00  0.00    +0.151 HD
ATOM      7  H   UNL     1      -2.825   0.685  -0.842  0.00  0.00    +0.151 HD
BRANCH   5   8
ATOM      8  CA  UNL     1      -1.310   1.917  -0.007  0.00  0.00    +0.196 C 
BRANCH   8   9
ATOM      9  C   UNL     1       0.005   1.179  -0.006  0.00  0.00    +0.376 C 
ATOM     10  O   UNL     1       0.020  -0.029  -0.005  0.00  0.00    -0.244 OA
ATOM     11  OXT UNL     1       1.159   1.865  -0.013  0.00  0.00    -0.244 OA
ENDBRANCH   8   9
BRANCH   8  12
ATOM     12  C   UNL     1      -1.402   2.794  -1.257  0.00  0.00    +0.130 C 
BRANCH  12  13
ATOM     13  C   UNL     1      -2.659   3.623  -1.197  0.00  0.00    +0.218 C 
ATOM     14  O   UNL     1      -3.407   3.522  -0.248  0.00  0.00    -0.276 OA
ATOM     15  N   UNL     1      -2.952   4.476  -2.199  0.00  0.00    -0.301 N 
ATOM     16  C   UNL     1      -2.134   4.701  -3.399  0.00  0.00    +0.108 C 
ATOM     17  C   UNL     1      -2.848   5.776  -4.246  0.00  0.00    +0.020 C 
ATOM     18  C   UNL     1      -3.729   6.509  -3.200  0.00  0.00    +0.020 C 
ATOM     19  C   UNL     1      -4.142   5.343  -2.268  0.00  0.00    +0.108 C 
ENDBRANCH  12  13
ENDBRANCH   8  12
ENDBRANCH   5   8
ENDBRANCH   1   2
BRANCH   1  22
ATOM     20  N   UNL     1      -6.071  -2.624   3.173  0.00  0.00    -0.294 N 
ATOM     21  C   UNL     1      -5.624  -2.391   4.549  0.00  0.00    +0.132 C 
ATOM     22  C   UNL     1      -5.471  -1.980   2.152  0.00  0.00    +0.233 C 
ATOM     23  O   UNL     1      -5.842  -2.174   1.013  0.00  0.00    -0.274 OA
BRANCH  20  24
ATOM     24  C   UNL     1      -7.169  -3.556   2.908  0.00  0.00    +0.203 C 
BRANCH  24  26
ATOM     25  N   UNL     1      -7.445  -5.968   2.433  0.00  0.00    -0.284 N 
ATOM     26  C   UNL     1      -6.613  -4.940   2.694  0.00  0.00    +0.235 C 
ATOM     27  O   UNL     1      -5.417  -5.129   2.757  0.00  0.00    -0.274 OA
ATOM     28  H   UNL     1      -8.405  -5.834   2.462  0.00  0.00    +0.155 HD
BRANCH  25  34
ATOM     29  C   UNL     1      -3.752  -8.707   0.693  0.00  0.00    +0.044 C 
ATOM     30  C   UNL     1      -5.136  -8.585   1.276  0.00  0.00    -0.049 A 
ATOM     31  C   UNL     1      -5.892  -9.720   1.503  0.00  0.00    +0.004 A 
ATOM     32  C   UNL     1      -7.163  -9.613   2.037  0.00  0.00    +0.005 A 
ATOM     33  C   UNL     1      -7.681  -8.370   2.346  0.00  0.00    -0.029 A 
ATOM     34  C   UNL     1      -6.923  -7.228   2.121  0.00  0.00    +0.037 A 
ATOM     35  C   UNL     1      -5.649  -7.339   1.579  0.00  0.00    +0.027 A 
ATOM     36  C   UNL     1      -9.066  -8.254   2.929  0.00  0.00    +0.045 C 
ENDBRANCH  25  34
ENDBRANCH  24  26
ENDBRANCH  20  24
ENDBRANCH   1  22
TORSDOF 9
