REMARK  Name = ZINC13357866
REMARK  10 active torsions:
REMARK  status: ('A' for Active; 'I' for Inactive)
REMARK    1  A    between atoms: C_1  and  C_2
REMARK    2  A    between atoms: C_2  and  N_3
REMARK    3  A    between atoms: C_4  and  C_6
REMARK    4  A    between atoms: C_6  and  O_7
REMARK    5  A    between atoms: O_7  and  C_8
REMARK    6  A    between atoms: C_11  and  C_16
REMARK    7  A    between atoms: C_13  and  O_14
REMARK    8  A    between atoms: O_14  and  C_15
REMARK    9  A    between atoms: C_17  and  C_18
REMARK   10  A    between atoms: C_25  and  C_29
REMARK                            x       y       z     vdW  Elec       q    Type
REMARK                         _______ _______ _______ _____ _____    ______ ____
ROOT
ATOM      1  C   UNL     1       4.042  -6.197  -7.038  0.00  0.00    +0.031 C 
ATOM      2  C   UNL     1       4.995  -5.543  -7.728  0.00  0.00    +0.086 C 
ATOM      3 CL   UNL     1       5.545  -3.988  -7.188  0.00  0.00    -0.080 Cl
ENDROOT
BRANCH   2   4
ATOM      4  C   UNL     1       5.571  -6.148  -8.941  0.00  0.00    +0.175 A 
ATOM      5  N   UNL     1       5.124  -7.343  -9.336  0.00  0.00    -0.188 NA
ATOM      6  C   UNL     1       5.603  -7.934 -10.415  0.00  0.00    +0.281 A 
ATOM      7  O   UNL     1       5.140  -9.145 -10.803  0.00  0.00    -0.265 OA
ATOM      8  C   UNL     1       6.612  -7.270 -11.157  0.00  0.00    +0.067 A 
ATOM      9  C   UNL     1       7.167  -7.834 -12.312  0.00  0.00    +0.016 A 
ATOM     10  C   UNL     1       8.134  -7.164 -12.997  0.00  0.00    +0.016 A 
ATOM     11  C   UNL     1       8.587  -5.908 -12.560  0.00  0.00    +0.065 A 
ATOM     12  C   UNL     1       8.055  -5.326 -11.419  0.00  0.00    +0.043 A 
ATOM     13  C   UNL     1       7.057  -6.003 -10.703  0.00  0.00    +0.079 A 
ATOM     14  N   UNL     1       6.506  -5.483  -9.599  0.00  0.00    -0.226 NA
BRANCH  11  15
ATOM     15  C   UNL     1       9.638  -5.202 -13.320  0.00  0.00    +0.387 C 
ATOM     16  O   UNL     1      10.111  -5.711 -14.326  0.00  0.00    -0.241 OA
ATOM     17  O   UNL     1      10.036  -4.109 -12.944  0.00  0.00    -0.241 OA
ENDBRANCH  11  15
ENDBRANCH   2   4
BRANCH   1  21
ATOM     18  C   UNL     1       2.052  -4.264  -3.823  0.00  0.00    +0.163 A 
ATOM     19  C   UNL     1       2.478  -3.526  -4.918  0.00  0.00    +0.050 A 
ATOM     20  C   UNL     1       3.125  -4.149  -5.964  0.00  0.00    +0.012 A 
ATOM     21  C   UNL     1       3.352  -5.528  -5.923  0.00  0.00    -0.020 A 
ATOM     22  C   UNL     1       2.923  -6.271  -4.818  0.00  0.00    +0.057 A 
ATOM     23  C   UNL     1       2.280  -5.638  -3.772  0.00  0.00    +0.162 A 
BRANCH  23  24
ATOM     24  O   UNL     1       1.865  -6.356  -2.694  0.00  0.00    -0.491 OA
ATOM     25  C   UNL     1       2.132  -7.760  -2.708  0.00  0.00    +0.277 C 
ENDBRANCH  23  24
BRANCH  18  26
ATOM     26  O   UNL     1       1.415  -3.644  -2.795  0.00  0.00    -0.479 OA
BRANCH  26  27
ATOM     27  C   UNL     1       1.213  -2.234  -2.912  0.00  0.00    +0.324 C 
BRANCH  27  29
ATOM     28  N   UNL     1       0.199  -0.416  -1.577  0.00  0.00    -0.313 N 
ATOM     29  C   UNL     1       0.497  -1.726  -1.687  0.00  0.00    +0.251 C 
ATOM     30  O   UNL     1       0.189  -2.495  -0.801  0.00  0.00    -0.272 OA
ATOM     31  H   UNL     1       0.445   0.199  -2.285  0.00  0.00    +0.149 HD
BRANCH  28  33
ATOM     32  C   UNL     1      -0.713   1.588  -0.512  0.00  0.00    +0.024 C 
ATOM     33  C   UNL     1      -0.498   0.078  -0.386  0.00  0.00    +0.101 C 
ENDBRANCH  28  33
ENDBRANCH  27  29
ENDBRANCH  26  27
ENDBRANCH  18  26
ENDBRANCH   1  21
TORSDOF 8
