REMARK  Name = ZINC35746504
REMARK  12 active torsions:
REMARK  status: ('A' for Active; 'I' for Inactive)
REMARK    1  A    between atoms: C_1  and  C_2
REMARK    2  A    between atoms: C_2  and  C_3
REMARK    3  A    between atoms: C_3  and  C_4
REMARK    4  A    between atoms: C_4  and  C_6
REMARK    5  A    between atoms: C_4  and  O_31
REMARK    6  A    between atoms: C_6  and  N_7
REMARK    7  A    between atoms: N_7  and  C_8
REMARK    8  A    between atoms: N_7  and  C_28
REMARK    9  A    between atoms: C_8  and  C_9
REMARK   10  A    between atoms: C_15  and  C_20
REMARK   11  A    between atoms: C_22  and  C_27
REMARK   12  A    between atoms: C_25  and  C_26
REMARK                            x       y       z     vdW  Elec       q    Type
REMARK                         _______ _______ _______ _____ _____    ______ ____
ROOT
ATOM      1  C   UNL     1       2.320  -5.683   4.153  0.00  0.00    +0.094 A 
ATOM      2  N   UNL     1       2.847  -6.097   5.333  0.00  0.00    -0.312 N 
ATOM      3  H   UNL     1       3.073  -5.440   6.010  0.00  0.00    +0.170 HD
ATOM      4  C   UNL     1       3.062  -7.402   5.584  0.00  0.00    +0.260 A 
ATOM      5  O   UNL     1       3.535  -7.758   6.650  0.00  0.00    -0.267 OA
ATOM      6  C   UNL     1       2.725  -8.366   4.581  0.00  0.00    +0.080 A 
ATOM      7  C   UNL     1       2.861  -9.817   4.613  0.00  0.00    +0.004 A 
ATOM      8  C   UNL     1       2.470 -10.532   3.530  0.00  0.00    +0.056 A 
ATOM      9  S   UNL     1       1.894  -9.283   2.397  0.00  0.00    -0.076 S 
ATOM     10  C   UNL     1       2.187  -7.845   3.393  0.00  0.00    +0.116 A 
ATOM     11  N   UNL     1       1.999  -6.539   3.220  0.00  0.00    -0.229 NA
ENDROOT
BRANCH   7  12
ATOM     12  C   UNL     1       3.416 -10.497   5.808  0.00  0.00    -0.013 A 
ATOM     13  C   UNL     1       4.629 -11.180   5.724  0.00  0.00    +0.012 A 
ATOM     14  C   UNL     1       5.140 -11.811   6.839  0.00  0.00    -0.050 A 
ATOM     15  C   UNL     1       4.453 -11.767   8.039  0.00  0.00    +0.003 A 
ATOM     16  C   UNL     1       3.249 -11.091   8.128  0.00  0.00    +0.004 A 
ATOM     17  C   UNL     1       2.730 -10.452   7.020  0.00  0.00    -0.043 A 
ATOM     18  C   UNL     1       1.422  -9.711   7.120  0.00  0.00    +0.044 C 
ATOM     19  C   UNL     1       6.451 -12.550   6.750  0.00  0.00    +0.044 C 
ENDBRANCH   7  12
BRANCH   1  20
ATOM     20  C   UNL     1       2.097  -4.212   3.917  0.00  0.00    -0.003 C 
BRANCH  20  21
ATOM     21  N   UNL     1       1.518  -4.012   2.582  0.00  0.00    +0.388 N 
ATOM     22  H   UNL     1       2.110  -4.445   1.889  0.00  0.00    -0.081 HD
BRANCH  21  23
ATOM     23  C   UNL     1       0.181  -4.620   2.532  0.00  0.00    -0.068 C 
ATOM     24  C   UNL     1      -0.026  -5.794   1.573  0.00  0.00    -0.017 C 
ATOM     25  C   UNL     1      -0.636  -4.428   1.253  0.00  0.00    -0.017 C 
ENDBRANCH  21  23
BRANCH  21  26
ATOM     26  C   UNL     1       1.411  -2.574   2.304  0.00  0.00    -0.046 C 
BRANCH  26  27
ATOM     27  C   UNL     1       0.625  -1.894   3.427  0.00  0.00    +0.098 C 
BRANCH  27  28
ATOM     28  O   UNL     1      -0.721  -2.371   3.422  0.00  0.00    -0.394 OA
ATOM     29  H   UNL     1      -1.197  -2.200   2.598  0.00  0.00    +0.210 HD
ENDBRANCH  27  28
BRANCH  27  30
ATOM     30  C   UNL     1       0.631  -0.380   3.209  0.00  0.00    +0.029 C 
BRANCH  30  32
ATOM     31  C   UNL     1      -0.041   1.823   4.178  0.00  0.00    +0.004 C 
ATOM     32  C   UNL     1      -0.046   0.309   4.396  0.00  0.00    -0.001 C 
ENDBRANCH  30  32
ENDBRANCH  27  30
ENDBRANCH  26  27
ENDBRANCH  21  26
ENDBRANCH  20  21
ENDBRANCH   1  20
TORSDOF 9
