REMARK  Name = ZINC22011432
REMARK  10 active torsions:
REMARK  status: ('A' for Active; 'I' for Inactive)
REMARK    1  A    between atoms: C_1  and  C_2
REMARK    2  A    between atoms: C_2  and  C_4
REMARK    3  A    between atoms: C_2  and  N_15
REMARK    4  A    between atoms: C_7  and  N_10
REMARK    5  A    between atoms: N_15  and  C_16
REMARK    6  A    between atoms: N_15  and  C_17
REMARK    7  A    between atoms: C_17  and  C_18
REMARK    8  A    between atoms: C_27  and  C_29
REMARK    9  A    between atoms: C_32  and  O_35
REMARK   10  A    between atoms: O_35  and  C_36
REMARK                            x       y       z     vdW  Elec       q    Type
REMARK                         _______ _______ _______ _____ _____    ______ ____
ROOT
ATOM      1  C   UNL     1      -1.527   5.944   0.045  0.00  0.00    +0.094 A 
ATOM      2  N   UNL     1      -0.240   6.382   0.035  0.00  0.00    -0.311 N 
ATOM      3  H   UNL     1      -0.026   7.461   0.038  0.00  0.00    +0.170 HD
ATOM      4  C   UNL     1       0.769   5.479   0.022  0.00  0.00    +0.266 A 
ATOM      5  O   UNL     1       1.934   5.840   0.014  0.00  0.00    -0.267 OA
ATOM      6  C   UNL     1       0.440   4.123   0.019  0.00  0.00    +0.102 A 
ATOM      7  C   UNL     1      -0.901   3.696   0.029  0.00  0.00    +0.086 A 
ATOM      8  N   UNL     1      -1.849   4.691   0.042  0.00  0.00    -0.235 NA
ATOM      9  C   UNL     1      -1.095   2.312   0.019  0.00  0.00    +0.044 A 
ATOM     10  C   UNL     1      -0.018   1.474   0.010  0.00  0.00    +0.022 A 
ATOM     11  S   UNL     1       1.361   2.608   0.003  0.00  0.00    -0.081 S 
ENDROOT
BRANCH  10  12
ATOM     12  C   UNL     1       0.002  -0.004   0.002  0.00  0.00    -0.011 A 
ATOM     13  C   UNL     1      -1.196  -0.720   0.015  0.00  0.00    +0.012 A 
ATOM     14  C   UNL     1      -1.173  -2.098   0.002  0.00  0.00    +0.046 A 
ATOM     15  C   UNL     1       0.040  -2.775  -0.013  0.00  0.00    +0.120 A 
ATOM     16  C   UNL     1       1.234  -2.066  -0.020  0.00  0.00    +0.046 A 
ATOM     17  C   UNL     1       1.219  -0.687  -0.013  0.00  0.00    +0.012 A 
BRANCH  15  18
ATOM     18  O   UNL     1       0.058  -4.133  -0.021  0.00  0.00    -0.495 OA
ATOM     19  C   UNL     1      -1.206  -4.799  -0.013  0.00  0.00    +0.277 C 
ENDBRANCH  15  18
ENDBRANCH  10  12
BRANCH   1  20
ATOM     20  C   UNL     1      -2.632   6.968   0.059  0.00  0.00    -0.003 C 
BRANCH  20  21
ATOM     21  N   UNL     1      -3.933   6.285   0.067  0.00  0.00    +0.387 N 
ATOM     22  C   UNL     1      -4.129   5.542   1.319  0.00  0.00    -0.095 C 
ATOM     23  H   UNL     1      -3.939   5.561  -0.761  0.00  0.00    -0.081 HD
BRANCH  21  25
ATOM     24  C   UNL     1      -4.841   7.920  -1.514  0.00  0.00    -0.008 C 
ATOM     25  C   UNL     1      -5.029   7.237  -0.157  0.00  0.00    -0.041 C 
BRANCH  25  26
ATOM     26  C   UNL     1      -6.344   6.502  -0.142  0.00  0.00    -0.061 A 
ATOM     27  C   UNL     1      -6.449   5.263  -0.748  0.00  0.00    +0.004 A 
ATOM     28  C   UNL     1      -7.651   4.584  -0.731  0.00  0.00    +0.028 A 
ATOM     29  C   UNL     1      -8.758   5.151  -0.114  0.00  0.00    +0.067 A 
ATOM     30  C   UNL     1      -8.652   6.397   0.488  0.00  0.00    +0.028 A 
ATOM     31  C   UNL     1      -7.445   7.069   0.472  0.00  0.00    +0.004 A 
BRANCH  29  32
ATOM     32  N   UNL     1      -9.982   4.466  -0.099  0.00  0.00    -0.220 N 
ATOM     33  C   UNL     1     -10.239   3.261  -0.642  0.00  0.00    +0.225 A 
ATOM     34  N   UNL     1     -11.495   2.972  -0.411  0.00  0.00    -0.222 NA
ATOM     35  C   UNL     1     -12.070   3.966   0.265  0.00  0.00    +0.245 A 
ATOM     36  N   UNL     1     -11.184   4.904   0.480  0.00  0.00    -0.154 NA
ENDBRANCH  29  32
ENDBRANCH  25  26
ENDBRANCH  21  25
ENDBRANCH  20  21
ENDBRANCH   1  20
TORSDOF 7
