REMARK  Name = ZINC63786429
REMARK  8 active torsions:
REMARK  status: ('A' for Active; 'I' for Inactive)
REMARK    1  A    between atoms: C_1  and  C_2
REMARK    2  A    between atoms: C_4  and  C_34
REMARK    3  A    between atoms: N_5  and  C_7
REMARK    4  A    between atoms: N_13  and  C_15
REMARK    5  A    between atoms: C_15  and  C_16
REMARK    6  A    between atoms: C_16  and  N_18
REMARK    7  A    between atoms: C_25  and  O_29
REMARK    8  A    between atoms: O_29  and  C_30
REMARK                            x       y       z     vdW  Elec       q    Type
REMARK                         _______ _______ _______ _____ _____    ______ ____
ROOT
ATOM      1  C   UNL     1      -2.527  -5.871   3.322  0.00  0.00    +0.257 C 
ATOM      2  O   UNL     1      -1.877  -6.263   2.372  0.00  0.00    -0.272 OA
ENDROOT
BRANCH   1   3
ATOM      3  N   UNL     1      -3.619  -6.529   3.696  0.00  0.00    -0.155 NA
ATOM      4  C   UNL     1      -4.061  -7.553   2.970  0.00  0.00    +0.164 A 
ATOM      5  N   UNL     1      -3.466  -8.127   1.894  0.00  0.00    -0.335 N 
ATOM      6  H   UNL     1      -2.616  -7.791   1.571  0.00  0.00    +0.168 HD
ATOM      7  C   UNL     1      -4.077  -9.194   1.258  0.00  0.00    +0.055 A 
ATOM      8  C   UNL     1      -3.643  -9.926   0.144  0.00  0.00    +0.030 A 
ATOM      9  C   UNL     1      -4.397 -10.964  -0.350  0.00  0.00    +0.048 A 
ATOM     10  C   UNL     1      -5.605 -11.318   0.238  0.00  0.00    +0.131 A 
ATOM     11  C   UNL     1      -6.055 -10.608   1.343  0.00  0.00    +0.063 A 
ATOM     12  C   UNL     1      -5.299  -9.571   1.834  0.00  0.00    +0.042 A 
ATOM     13  S   UNL     1      -5.478  -8.432   3.182  0.00  0.00    -0.052 S 
BRANCH  10  14
ATOM     14  O   UNL     1      -6.339 -12.347  -0.264  0.00  0.00    -0.406 OA
BRANCH  14  15
ATOM     15  C   UNL     1      -5.808 -13.028  -1.403  0.00  0.00    +0.575 C 
ATOM     16  F   UNL     1      -4.563 -13.576  -1.080  0.00  0.00    -0.133 F 
ATOM     17  F   UNL     1      -6.683 -14.050  -1.785  0.00  0.00    -0.133 F 
ATOM     18  F   UNL     1      -5.659 -12.123  -2.459  0.00  0.00    -0.133 F 
ENDBRANCH  14  15
ENDBRANCH  10  14
ENDBRANCH   1   3
BRANCH   1  19
ATOM     19  C   UNL     1      -2.094  -4.640   4.075  0.00  0.00    +0.225 C 
BRANCH  19  25
ATOM     20  C   UNL     1       0.014  -3.266   1.460  0.00  0.00    +0.214 C 
ATOM     21  C   UNL     1       1.400  -3.428   2.031  0.00  0.00    +0.022 C 
ATOM     22  C   UNL     1       1.544  -4.078   3.190  0.00  0.00    +0.068 C 
ATOM     23  C   UNL     1       0.327  -4.598   3.843  0.00  0.00    +0.253 C 
ATOM     24  O   UNL     1       0.403  -5.457   4.700  0.00  0.00    -0.269 OA
ATOM     25  N   UNL     1      -0.872  -4.103   3.472  0.00  0.00    -0.222 N 
ATOM     26  N   UNL     1      -0.958  -3.109   2.545  0.00  0.00    -0.210 NA
ATOM     27  H   UNL     1      -0.874  -2.201   2.978  0.00  0.00    +0.147 HD
BRANCH  20  32
ATOM     28  C   UNL     1      -0.106   1.532  -0.012  0.00  0.00    +0.067 C 
ATOM     29  C   UNL     1      -0.074   0.025  -0.021  0.00  0.00    +0.060 A 
ATOM     30  C   UNL     1      -0.070  -0.788  -1.159  0.00  0.00    +0.047 A 
ATOM     31  C   UNL     1      -0.037  -2.078  -0.749  0.00  0.00    +0.039 A 
ATOM     32  N   UNL     1      -0.022  -2.080   0.601  0.00  0.00    -0.246 N 
ATOM     33  N   UNL     1      -0.040  -0.748   1.034  0.00  0.00    -0.174 NA
ATOM     34  C   UNL     1      -0.022  -3.293  -1.639  0.00  0.00    +0.065 C 
ENDBRANCH  20  32
ENDBRANCH  19  25
ENDBRANCH   1  19
TORSDOF 6
