REMARK  Name = ZINC11913903
REMARK  6 active torsions:
REMARK  status: ('A' for Active; 'I' for Inactive)
REMARK    1  A    between atoms: C_1  and  C_2
REMARK    2  A    between atoms: C_7  and  C_12
REMARK    3  A    between atoms: C_14  and  C_17
REMARK    4  A    between atoms: N_19  and  C_20
REMARK    5  A    between atoms: C_28  and  C_29
REMARK    6  A    between atoms: C_29  and  C_31
REMARK                            x       y       z     vdW  Elec       q    Type
REMARK                         _______ _______ _______ _____ _____    ______ ____
ROOT
ATOM      1  C   UNL     1      -0.034  -0.019   0.353  0.00  0.00    +0.270 C 
ATOM      2  O   UNL     1       0.979  -0.629   0.633  0.00  0.00    -0.268 OA
ATOM      3  N   UNL     1      -1.156  -0.691   0.024  0.00  0.00    -0.277 N 
ATOM      4  H   UNL     1      -1.978  -0.206  -0.147  0.00  0.00    +0.155 HD
ENDROOT
BRANCH   3   5
ATOM      5  C   UNL     1      -1.134  -2.075  -0.070  0.00  0.00    +0.091 A 
ATOM      6  C   UNL     1       0.022  -2.923  -0.381  0.00  0.00    +0.042 A 
ATOM      7  C   UNL     1       1.368  -2.668  -0.650  0.00  0.00    +0.013 A 
ATOM      8  C   UNL     1       2.219  -3.707  -0.901  0.00  0.00    +0.001 A 
ATOM      9  C   UNL     1       1.754  -5.015  -0.885  0.00  0.00    +0.004 A 
ATOM     10  C   UNL     1       0.430  -5.288  -0.616  0.00  0.00    +0.047 A 
ATOM     11  C   UNL     1      -0.454  -4.246  -0.357  0.00  0.00    +0.138 A 
ATOM     12  O   UNL     1      -1.771  -4.210  -0.070  0.00  0.00    -0.450 OA
ATOM     13  C   UNL     1      -2.197  -2.940   0.104  0.00  0.00    +0.197 A 
BRANCH  13  14
ATOM     14  C   UNL     1      -3.524  -2.555   0.417  0.00  0.00    +0.230 C 
ATOM     15  O   UNL     1      -3.822  -1.375   0.461  0.00  0.00    -0.283 OA
BRANCH  14  16
ATOM     16  C   UNL     1      -4.547  -3.587   0.690  0.00  0.00    +0.026 A 
ATOM     17  C   UNL     1      -4.247  -4.938   0.506  0.00  0.00    +0.014 A 
ATOM     18  C   UNL     1      -5.203  -5.896   0.767  0.00  0.00    +0.039 A 
ATOM     19  C   UNL     1      -6.465  -5.519   1.200  0.00  0.00    +0.123 A 
ATOM     20  C   UNL     1      -6.771  -4.178   1.378  0.00  0.00    +0.039 A 
ATOM     21  C   UNL     1      -5.820  -3.213   1.126  0.00  0.00    +0.014 A 
ATOM     22  F   UNL     1      -7.400  -6.462   1.449  0.00  0.00    -0.205 F 
ENDBRANCH  14  16
ENDBRANCH  13  14
ENDBRANCH   3   5
BRANCH   1  25
ATOM     23  C   UNL     1       0.538   3.571   0.565  0.00  0.00    +0.168 A 
ATOM     24  C   UNL     1       1.054   2.312   0.695  0.00  0.00    +0.086 A 
ATOM     25  C   UNL     1      -0.036   1.463   0.372  0.00  0.00    +0.168 A 
ATOM     26  N   UNL     1      -1.045   2.252   0.090  0.00  0.00    -0.073 NA
ATOM     27  O   UNL     1      -0.746   3.418   0.197  0.00  0.00    -0.354 OA
BRANCH  23  33
ATOM     28  C   UNL     1       2.080  10.764   1.441  0.00  0.00    +0.052 C 
ATOM     29  C   UNL     1       2.177   9.435   0.687  0.00  0.00    +0.175 C 
ATOM     30  C   UNL     1       0.819   8.694   0.707  0.00  0.00    +0.083 C 
ATOM     31  C   UNL     1       1.255   7.245   0.820  0.00  0.00    -0.002 A 
ATOM     32  C   UNL     1       0.587   6.064   0.607  0.00  0.00    +0.019 A 
ATOM     33  C   UNL     1       1.250   4.847   0.785  0.00  0.00    +0.020 A 
ATOM     34  C   UNL     1       2.593   4.847   1.168  0.00  0.00    +0.015 A 
ATOM     35  C   UNL     1       3.254   6.036   1.375  0.00  0.00    +0.046 A 
ATOM     36  C   UNL     1       2.591   7.251   1.206  0.00  0.00    +0.124 A 
ATOM     37  O   UNL     1       3.049   8.522   1.375  0.00  0.00    -0.488 OA
ENDBRANCH  23  33
ENDBRANCH   1  25
TORSDOF 5
