REMARK  Name = ZINC21539388
REMARK  7 active torsions:
REMARK  status: ('A' for Active; 'I' for Inactive)
REMARK    1  A    between atoms: C_1  and  C_2
REMARK    2  A    between atoms: C_5  and  C_8
REMARK    3  A    between atoms: N_28  and  C_29
REMARK    4  A    between atoms: C_31  and  O_37
REMARK    5  A    between atoms: C_34  and  O_35
REMARK    6  A    between atoms: O_35  and  C_36
REMARK    7  A    between atoms: O_37  and  C_38
REMARK                            x       y       z     vdW  Elec       q    Type
REMARK                         _______ _______ _______ _____ _____    ______ ____
ROOT
ATOM      1  C   UNL     1       3.679   0.619   0.100  0.00  0.00    +0.155 C 
ATOM      2  C   UNL     1       2.180   0.656   0.085  0.00  0.00    +0.049 A 
ATOM      3  C   UNL     1       1.355   1.714   0.078  0.00  0.00    +0.025 A 
ATOM      4  C   UNL     1       0.034   1.219   0.137  0.00  0.00    +0.020 A 
ATOM      5  C   UNL     1       0.105  -0.131   0.165  0.00  0.00    +0.092 A 
ATOM      6  N   UNL     1       1.410  -0.483   0.107  0.00  0.00    -0.312 N 
ATOM      7  C   UNL     1       2.026  -1.726   0.029  0.00  0.00    +0.090 A 
ATOM      8  C   UNL     1       3.031  -2.027  -0.837  0.00  0.00    +0.005 A 
ATOM      9  C   UNL     1       3.573  -3.326  -0.754  0.00  0.00    -0.030 A 
ATOM     10  C   UNL     1       3.025  -4.183   0.146  0.00  0.00    -0.005 A 
ATOM     11  S   UNL     1       1.758  -3.220   0.933  0.00  0.00    -0.075 S 
ATOM     12  C   UNL     1       3.410  -5.603   0.409  0.00  0.00    +0.043 C 
ATOM     13  C   UNL     1       4.309  -6.080  -0.743  0.00  0.00    +0.005 C 
ATOM     14  C   UNL     1       5.377  -5.015  -1.006  0.00  0.00    +0.005 C 
ATOM     15  C   UNL     1       4.737  -3.776  -1.633  0.00  0.00    +0.036 C 
ATOM     16  C   UNL     1       3.515  -0.993  -1.829  0.00  0.00    +0.148 C 
ATOM     17  N   UNL     1       4.230   0.124  -1.185  0.00  0.00    -0.268 N 
ATOM     18  C   UNL     1       5.331   0.670  -1.738  0.00  0.00    +0.308 C 
ATOM     19  O   UNL     1       5.898   1.591  -1.182  0.00  0.00    -0.252 OA
ATOM     20  N   UNL     1       5.804   0.196  -2.908  0.00  0.00    -0.266 N 
ATOM     21  H   UNL     1       5.239  -0.571  -3.458  0.00  0.00    +0.156 HD
ENDROOT
BRANCH   1  26
ATOM     22  C   UNL     1       5.434  -2.864   4.364  0.00  0.00    +0.044 C 
ATOM     23  C   UNL     1       4.976  -1.956   3.252  0.00  0.00    -0.050 A 
ATOM     24  C   UNL     1       5.742  -1.822   2.110  0.00  0.00    +0.004 A 
ATOM     25  C   UNL     1       5.323  -0.989   1.089  0.00  0.00    +0.006 A 
ATOM     26  C   UNL     1       4.136  -0.290   1.212  0.00  0.00    -0.021 A 
ATOM     27  C   UNL     1       3.372  -0.420   2.356  0.00  0.00    +0.006 A 
ATOM     28  C   UNL     1       3.789  -1.257   3.374  0.00  0.00    +0.004 A 
ENDBRANCH   1  26
BRANCH  20  29
ATOM     29  C   UNL     1       7.014   0.679  -3.422  0.00  0.00    +0.080 A 
ATOM     30  C   UNL     1       8.040   1.040  -2.562  0.00  0.00    +0.072 A 
ATOM     31  C   UNL     1       9.237   1.518  -3.073  0.00  0.00    +0.122 A 
ATOM     32  C   UNL     1       9.408   1.635  -4.445  0.00  0.00    +0.049 A 
ATOM     33  C   UNL     1       8.387   1.276  -5.305  0.00  0.00    +0.051 A 
ATOM     34  C   UNL     1       7.191   0.793  -4.799  0.00  0.00    +0.141 A 
BRANCH  34  35
ATOM     35  O   UNL     1       6.189   0.435  -5.646  0.00  0.00    -0.493 OA
ATOM     36  C   UNL     1       6.440   0.579  -7.046  0.00  0.00    +0.277 C 
ENDBRANCH  34  35
BRANCH  31  37
ATOM     37  O   UNL     1      10.244   1.871  -2.230  0.00  0.00    -0.495 OA
ATOM     38  C   UNL     1      11.449   2.355  -2.826  0.00  0.00    +0.277 C 
ENDBRANCH  31  37
ENDBRANCH  20  29
TORSDOF 4
