REMARK  Name = ZINC36705463
REMARK  8 active torsions:
REMARK  status: ('A' for Active; 'I' for Inactive)
REMARK    1  A    between atoms: C_1  and  C_2
REMARK    2  A    between atoms: C_7  and  N_12
REMARK    3  A    between atoms: C_9  and  C_11
REMARK    4  A    between atoms: C_13  and  C_15
REMARK    5  A    between atoms: C_15  and  N_16
REMARK    6  A    between atoms: C_21  and  C_28
REMARK    7  A    between atoms: C_24  and  C_26
REMARK    8  A    between atoms: C_24  and  C_27
REMARK                            x       y       z     vdW  Elec       q    Type
REMARK                         _______ _______ _______ _____ _____    ______ ____
ROOT
ATOM      1  N   UNL     1       1.042  -5.787   4.043  0.00  0.00    -0.215 N 
ATOM      2  C   UNL     1       0.069  -6.053   4.939  0.00  0.00    +0.247 C 
ATOM      3  O   UNL     1      -0.669  -5.256   5.478  0.00  0.00    -0.273 OA
ATOM      4  C   UNL     1       0.092  -7.552   5.127  0.00  0.00    +0.113 C 
ATOM      5  C   UNL     1      -1.241  -8.162   4.705  0.00  0.00    +0.038 C 
ATOM      6  C   UNL     1      -1.186  -9.682   4.875  0.00  0.00    -0.011 C 
ATOM      7  C   UNL     1      -0.892 -10.020   6.338  0.00  0.00    +0.009 C 
ATOM      8  C   UNL     1       0.458  -9.422   6.740  0.00  0.00    -0.032 C 
ATOM      9  C   UNL     1       0.410  -7.901   6.577  0.00  0.00    +0.041 C 
ATOM     10  C   UNL     1       1.557  -9.996   5.844  0.00  0.00    +0.011 C 
ATOM     11  C   UNL     1       0.756  -9.770   8.200  0.00  0.00    +0.011 C 
ATOM     12  C   UNL     1      -2.531 -10.290   4.471  0.00  0.00    +0.007 C 
ATOM     13  N   UNL     1       1.170  -8.007   4.240  0.00  0.00    -0.285 N 
ATOM     14  C   UNL     1       1.663  -6.904   3.644  0.00  0.00    +0.310 C 
ATOM     15  O   UNL     1       2.572  -6.921   2.838  0.00  0.00    -0.252 OA
ATOM     16  H   UNL     1       1.466  -8.921   4.107  0.00  0.00    +0.151 HD
ENDROOT
BRANCH   1  17
ATOM     17  C   UNL     1       1.375  -4.444   3.562  0.00  0.00    +0.213 C 
BRANCH  17  19
ATOM     18  N   UNL     1       0.688  -2.939   1.724  0.00  0.00    -0.311 N 
ATOM     19  C   UNL     1       0.550  -4.129   2.341  0.00  0.00    +0.231 C 
ATOM     20  O   UNL     1      -0.238  -4.946   1.915  0.00  0.00    -0.274 OA
ATOM     21  H   UNL     1       1.318  -2.286   2.065  0.00  0.00    +0.149 HD
BRANCH  18  27
ATOM     22  C   UNL     1      -1.247   0.720  -0.980  0.00  0.00    +0.008 C 
ATOM     23  C   UNL     1      -1.099  -0.796  -0.842  0.00  0.00    -0.009 C 
ATOM     24  C   UNL     1      -0.406  -1.357  -2.085  0.00  0.00    +0.003 C 
ATOM     25  C   UNL     1      -0.258  -2.873  -1.946  0.00  0.00    +0.002 C 
ATOM     26  C   UNL     1       0.580  -3.193  -0.707  0.00  0.00    +0.022 C 
ATOM     27  C   UNL     1      -0.114  -2.633   0.537  0.00  0.00    +0.076 C 
ATOM     28  C   UNL     1      -0.262  -1.116   0.398  0.00  0.00    +0.009 C 
ATOM     29  C   UNL     1      -0.956  -0.556   1.641  0.00  0.00    +0.009 C 
ENDBRANCH  18  27
ENDBRANCH  17  19
ENDBRANCH   1  17
TORSDOF 3
