REMARK  Name = ZINC35671570
REMARK  6 active torsions:
REMARK  status: ('A' for Active; 'I' for Inactive)
REMARK    1  A    between atoms: C_1  and  C_2
REMARK    2  A    between atoms: C_2  and  C_3
REMARK    3  A    between atoms: C_6  and  C_9
REMARK    4  A    between atoms: C_9  and  C_11
REMARK    5  A    between atoms: C_9  and  N_27
REMARK    6  A    between atoms: C_11  and  N_12
REMARK                            x       y       z     vdW  Elec       q    Type
REMARK                         _______ _______ _______ _____ _____    ______ ____
ROOT
ATOM      1  C   UNL     1       2.838  -3.256  -4.775  0.00  0.00    +0.115 C 
ENDROOT
BRANCH   1   2
ATOM      2  N   UNL     1       1.542  -3.921  -4.622  0.00  0.00    -0.300 N 
ATOM      3  C   UNL     1       1.018  -4.125  -3.384  0.00  0.00    +0.202 A 
ATOM      4  N   UNL     1      -0.122  -4.705  -3.184  0.00  0.00    -0.235 NA
ATOM      5  C   UNL     1      -0.896  -5.163  -4.223  0.00  0.00    +0.107 A 
ATOM      6  C   UNL     1      -2.147  -5.809  -4.142  0.00  0.00    +0.081 A 
ATOM      7  C   UNL     1      -2.734  -6.180  -5.330  0.00  0.00    +0.070 A 
ATOM      8  S   UNL     1      -1.607  -5.659  -6.584  0.00  0.00    -0.073 S 
ATOM      9  C   UNL     1      -0.372  -4.961  -5.515  0.00  0.00    +0.105 A 
ATOM     10  C   UNL     1       0.851  -4.331  -5.712  0.00  0.00    +0.268 A 
ATOM     11  O   UNL     1       1.292  -4.157  -6.836  0.00  0.00    -0.266 OA
ATOM     12  S   UNL     1      -4.278  -6.999  -5.468  0.00  0.00    -0.107 S 
ATOM     13  C   UNL     1      -4.388  -7.830  -3.849  0.00  0.00    +0.171 C 
ATOM     14  C   UNL     1      -3.843  -6.916  -2.789  0.00  0.00    +0.227 C 
ATOM     15  O   UNL     1      -4.396  -6.941  -1.710  0.00  0.00    -0.275 OA
ATOM     16  N   UNL     1      -2.814  -6.081  -2.915  0.00  0.00    -0.282 N 
ATOM     17  H   UNL     1      -2.498  -5.629  -2.117  0.00  0.00    +0.155 HD
ENDBRANCH   1   2
BRANCH   1  18
ATOM     18  C   UNL     1       2.620  -1.765  -5.035  0.00  0.00    -0.017 C 
BRANCH  18  22
ATOM     19  C   UNL     1       0.832   0.031  -1.596  0.00  0.00    -0.048 A 
ATOM     20  C   UNL     1       0.050  -0.307  -2.685  0.00  0.00    +0.004 A 
ATOM     21  C   UNL     1       0.629  -0.888  -3.798  0.00  0.00    +0.002 A 
ATOM     22  C   UNL     1       1.989  -1.130  -3.822  0.00  0.00    -0.059 A 
ATOM     23  C   UNL     1       2.772  -0.791  -2.734  0.00  0.00    +0.002 A 
ATOM     24  C   UNL     1       2.193  -0.206  -1.623  0.00  0.00    +0.004 A 
BRANCH  19  26
ATOM     25  C   UNL     1       0.204   2.186  -0.542  0.00  0.00    +0.009 C 
ATOM     26  C   UNL     1       0.201   0.664  -0.383  0.00  0.00    +0.032 C 
ENDBRANCH  19  26
ENDBRANCH  18  22
BRANCH  18  27
ATOM     27  N   UNL     1       3.912  -1.121  -5.308  0.00  0.00    +0.385 N 
ATOM     28  C   UNL     1       4.511  -1.680  -6.547  0.00  0.00    -0.078 C 
ATOM     29  C   UNL     1       5.500  -0.574  -6.993  0.00  0.00    -0.020 C 
ATOM     30  C   UNL     1       4.742   0.728  -6.644  0.00  0.00    -0.020 C 
ATOM     31  C   UNL     1       3.718   0.322  -5.569  0.00  0.00    -0.078 C 
ATOM     32  H   UNL     1       4.538  -1.252  -4.528  0.00  0.00    -0.081 HD
ENDBRANCH  18  27
ENDBRANCH   1  18
TORSDOF 5
