REMARK  Name = ZINC39877984
REMARK  14 active torsions:
REMARK  status: ('A' for Active; 'I' for Inactive)
REMARK    1  A    between atoms: C_1  and  C_2
REMARK    2  A    between atoms: C_2  and  C_3
REMARK    3  A    between atoms: C_6  and  N_9
REMARK    4  A    between atoms: C_10  and  C_27
REMARK    5  A    between atoms: C_17  and  C_26
REMARK    6  A    between atoms: C_18  and  C_25
REMARK    7  A    between atoms: C_30  and  O_35
REMARK    8  A    between atoms: C_31  and  O_33
REMARK    9  A    between atoms: O_33  and  C_34
REMARK   10  A    between atoms: O_35  and  C_36
REMARK   11  A    between atoms: C_36  and  C_37
REMARK   12  A    between atoms: C_37  and  C_38
REMARK   13  A    between atoms: C_38  and  C_39
REMARK   14  A    between atoms: C_38  and  C_40
REMARK                            x       y       z     vdW  Elec       q    Type
REMARK                         _______ _______ _______ _____ _____    ______ ____
ROOT
ATOM      1  N   UNL     1       2.657  -1.833  -4.664  0.00  0.00    -0.253 N 
ATOM      2  C   UNL     1       4.097  -2.112  -4.787  0.00  0.00    +0.150 C 
ATOM      3  C   UNL     1       4.306  -2.563  -6.195  0.00  0.00    +0.072 A 
ATOM      4  C   UNL     1       5.520  -2.969  -6.910  0.00  0.00    +0.199 A 
ATOM      5  O   UNL     1       6.588  -3.160  -6.355  0.00  0.00    -0.287 OA
ATOM      6  C   UNL     1       5.325  -3.123  -8.374  0.00  0.00    +0.065 A 
ATOM      7  C   UNL     1       6.420  -3.309  -9.217  0.00  0.00    +0.019 A 
ATOM      8  C   UNL     1       6.224  -3.445 -10.563  0.00  0.00    -0.047 A 
ATOM      9  C   UNL     1       4.941  -3.398 -11.091  0.00  0.00    -0.044 A 
ATOM     10  C   UNL     1       3.849  -3.216 -10.273  0.00  0.00    +0.050 A 
ATOM     11  C   UNL     1       4.022  -3.078  -8.896  0.00  0.00    +0.140 A 
ATOM     12  O   UNL     1       2.934  -2.911  -8.110  0.00  0.00    -0.450 OA
ATOM     13  C   UNL     1       3.091  -2.549  -6.821  0.00  0.00    +0.199 A 
ATOM     14  C   UNL     1       2.078  -2.095  -5.854  0.00  0.00    +0.287 C 
ATOM     15  O   UNL     1       0.893  -1.972  -6.094  0.00  0.00    -0.266 OA
ATOM     16  C   UNL     1       4.742  -3.546 -12.577  0.00  0.00    +0.044 C 
ATOM     17  C   UNL     1       7.405  -3.647 -11.477  0.00  0.00    +0.044 C 
ENDROOT
BRANCH   1  21
ATOM     18  C   UNL     1       0.707  -0.490  -1.238  0.00  0.00    -0.048 A 
ATOM     19  C   UNL     1      -0.012  -0.718  -2.397  0.00  0.00    +0.005 A 
ATOM     20  C   UNL     1       0.631  -1.163  -3.534  0.00  0.00    +0.024 A 
ATOM     21  C   UNL     1       2.003  -1.382  -3.515  0.00  0.00    +0.038 A 
ATOM     22  C   UNL     1       2.723  -1.152  -2.349  0.00  0.00    +0.024 A 
ATOM     23  C   UNL     1       2.074  -0.702  -1.216  0.00  0.00    +0.005 A 
BRANCH  18  25
ATOM     24  C   UNL     1      -0.019   1.526   0.010  0.00  0.00    +0.009 C 
ATOM     25  C   UNL     1       0.002  -0.004   0.002  0.00  0.00    +0.032 C 
ENDBRANCH  18  25
ENDBRANCH   1  21
BRANCH   2  26
ATOM     26  C   UNL     1       4.500  -3.200  -3.826  0.00  0.00    -0.018 A 
ATOM     27  C   UNL     1       3.671  -4.290  -3.632  0.00  0.00    +0.009 A 
ATOM     28  C   UNL     1       4.036  -5.292  -2.751  0.00  0.00    +0.050 A 
ATOM     29  C   UNL     1       5.234  -5.204  -2.061  0.00  0.00    +0.162 A 
ATOM     30  C   UNL     1       6.068  -4.107  -2.256  0.00  0.00    +0.162 A 
ATOM     31  C   UNL     1       5.699  -3.110  -3.144  0.00  0.00    +0.055 A 
BRANCH  30  32
ATOM     32  O   UNL     1       7.245  -4.017  -1.581  0.00  0.00    -0.491 OA
ATOM     33  C   UNL     1       8.050  -2.864  -1.832  0.00  0.00    +0.277 C 
ENDBRANCH  30  32
BRANCH  29  34
ATOM     34  O   UNL     1       5.595  -6.188  -1.194  0.00  0.00    -0.488 OA
BRANCH  34  35
ATOM     35  C   UNL     1       4.689  -7.284  -1.043  0.00  0.00    +0.229 C 
BRANCH  35  36
ATOM     36  C   UNL     1       5.261  -8.282  -0.035  0.00  0.00    +0.044 C 
BRANCH  36  37
ATOM     37  C   UNL     1       4.291  -9.455   0.127  0.00  0.00    -0.014 C 
ATOM     38  C   UNL     1       4.195 -10.223  -1.193  0.00  0.00    +0.007 C 
ATOM     39  C   UNL     1       4.801 -10.390   1.225  0.00  0.00    +0.007 C 
ENDBRANCH  36  37
ENDBRANCH  35  36
ENDBRANCH  34  35
ENDBRANCH  29  34
ENDBRANCH   2  26
TORSDOF 8
