REMARK  Name = ZINC63637569
REMARK  2 active torsions:
REMARK  status: ('A' for Active; 'I' for Inactive)
REMARK    1  A    between atoms: C_3  and  O_26
REMARK    2  A    between atoms: C_6  and  C_7
REMARK                            x       y       z     vdW  Elec       q    Type
REMARK                         _______ _______ _______ _____ _____    ______ ____
ROOT
ATOM      1  C   UNL     1      -1.293  -0.774   0.011  0.00  0.00    +0.073 C 
ATOM      2  C   UNL     1      -1.376  -1.640  -1.248  0.00  0.00    +0.148 C 
ATOM      3  C   UNL     1      -0.446  -2.814  -1.054  0.00  0.00    +0.106 C 
ATOM      4  N   UNL     1       0.516  -3.082  -1.881  0.00  0.00    -0.151 NA
ATOM      5  C   UNL     1       0.773  -2.326  -2.958  0.00  0.00    +0.331 C 
ATOM      6  O   UNL     1       1.675  -2.649  -3.708  0.00  0.00    -0.250 OA
ATOM      7  N   UNL     1       0.060  -1.221  -3.228  0.00  0.00    -0.238 N 
ATOM      8  C   UNL     1      -0.972  -0.839  -2.452  0.00  0.00    +0.231 C 
ATOM      9  O   UNL     1      -1.587   0.169  -2.726  0.00  0.00    -0.275 OA
ATOM     10  N   UNL     1      -0.660  -3.580   0.059  0.00  0.00    -0.307 N 
ATOM     11  C   UNL     1      -1.032  -2.947   1.224  0.00  0.00    +0.016 C 
ATOM     12  C   UNL     1      -1.351  -1.643   1.246  0.00  0.00    +0.020 C 
ATOM     13  C   UNL     1      -1.758  -1.024   2.446  0.00  0.00    +0.161 C 
ATOM     14  O   UNL     1      -2.037   0.158   2.439  0.00  0.00    -0.292 OA
ATOM     15  C   UNL     1      -1.856  -1.795   3.732  0.00  0.00    +0.080 C 
ATOM     16  C   UNL     1      -2.154  -3.264   3.413  0.00  0.00    +0.014 C 
ATOM     17  C   UNL     1      -1.065  -3.778   2.486  0.00  0.00    +0.051 C 
ATOM     18  H   UNL     1       0.292  -0.685  -4.003  0.00  0.00    +0.159 HD
ATOM     19  H   UNL     1      -0.554  -4.544   0.028  0.00  0.00    +0.153 HD
ENDROOT
BRANCH   1  25
ATOM     20  C   UNL     1      -0.017   1.378   0.010  0.00  0.00    +0.008 A 
ATOM     21  C   UNL     1       1.169   2.087   0.002  0.00  0.00    +0.045 A 
ATOM     22  C   UNL     1       2.380   1.409  -0.013  0.00  0.00    +0.117 A 
ATOM     23  C   UNL     1       2.396   0.022  -0.021  0.00  0.00    +0.045 A 
ATOM     24  C   UNL     1       1.207  -0.681  -0.013  0.00  0.00    +0.008 A 
ATOM     25  C   UNL     1       0.002  -0.004   0.002  0.00  0.00    -0.038 A 
BRANCH  22  26
ATOM     26  O   UNL     1       3.548   2.104  -0.021  0.00  0.00    -0.507 OA
ATOM     27  H   UNL     1       3.895   2.300   0.860  0.00  0.00    +0.292 HD
ENDBRANCH  22  26
ENDBRANCH   1  25
TORSDOF 2
