REMARK  Name = ZINC39674645
REMARK  7 active torsions:
REMARK  status: ('A' for Active; 'I' for Inactive)
REMARK    1  A    between atoms: C_1  and  C_2
REMARK    2  A    between atoms: C_4  and  C_14
REMARK    3  A    between atoms: C_7  and  C_12
REMARK    4  A    between atoms: C_14  and  C_15
REMARK    5  A    between atoms: C_15  and  N_16
REMARK    6  A    between atoms: C_17  and  C_19
REMARK    7  A    between atoms: C_30  and  C_32
REMARK                            x       y       z     vdW  Elec       q    Type
REMARK                         _______ _______ _______ _____ _____    ______ ____
ROOT
ATOM      1  C   UNL     1       1.250  -1.593  -7.125  0.00  0.00    +0.100 C 
ATOM      2  C   UNL     1      -0.129  -2.045  -7.654  0.00  0.00    +0.121 C 
ATOM      3  N   UNL     1       0.126  -2.463  -9.053  0.00  0.00    -0.296 N 
ATOM      4  C   UNL     1       1.433  -3.160  -8.997  0.00  0.00    +0.115 C 
ATOM      5  C   UNL     1       2.273  -2.328  -8.008  0.00  0.00    -0.004 C 
ATOM      6  C   UNL     1       3.145  -3.245  -7.155  0.00  0.00    -0.010 C 
ATOM      7  C   UNL     1       4.191  -3.920  -8.047  0.00  0.00    -0.082 C 
ATOM      8  N   UNL     1       5.015  -2.895  -8.700  0.00  0.00    +0.379 N 
ATOM      9  C   UNL     1       4.183  -2.076  -9.590  0.00  0.00    -0.082 C 
ATOM     10  C   UNL     1       3.137  -1.323  -8.764  0.00  0.00    -0.010 C 
ATOM     11  C   UNL     1      -0.654  -2.256 -10.132  0.00  0.00    +0.247 C 
ATOM     12  O   UNL     1      -1.642  -1.554 -10.042  0.00  0.00    -0.270 OA
ATOM     13  H   UNL     1       5.435  -2.305  -7.997  0.00  0.00    -0.086 HD
ATOM     14  H   UNL     1       5.742  -3.343  -9.238  0.00  0.00    -0.086 HD
ENDROOT
BRANCH  11  15
ATOM     15  C   UNL     1      -0.309  -2.883 -11.425  0.00  0.00    +0.037 A 
ATOM     16  C   UNL     1       0.521  -4.018 -11.450  0.00  0.00    +0.013 A 
ATOM     17  C   UNL     1       0.852  -4.612 -12.625  0.00  0.00    +0.009 A 
ATOM     18  C   UNL     1       0.365  -4.093 -13.838  0.00  0.00    -0.018 A 
ATOM     19  C   UNL     1       0.694  -4.691 -15.066  0.00  0.00    +0.008 A 
ATOM     20  C   UNL     1       0.206  -4.166 -16.224  0.00  0.00    +0.001 A 
ATOM     21  C   UNL     1      -0.617  -3.042 -16.212  0.00  0.00    +0.001 A 
ATOM     22  C   UNL     1      -0.957  -2.436 -15.043  0.00  0.00    +0.008 A 
ATOM     23  C   UNL     1      -0.473  -2.949 -13.826  0.00  0.00    -0.017 A 
ATOM     24  C   UNL     1      -0.810  -2.352 -12.602  0.00  0.00    +0.021 A 
ENDBRANCH  11  15
BRANCH   1  26
ATOM     25  N   UNL     1       2.183  -1.254  -4.859  0.00  0.00    -0.315 N 
ATOM     26  C   UNL     1       1.417  -1.997  -5.682  0.00  0.00    +0.218 C 
ATOM     27  O   UNL     1       0.862  -2.990  -5.263  0.00  0.00    -0.275 OA
ATOM     28  H   UNL     1       2.627  -0.460  -5.194  0.00  0.00    +0.149 HD
BRANCH  25  29
ATOM     29  C   UNL     1       2.344  -1.647  -3.456  0.00  0.00    +0.108 C 
BRANCH  29  30
ATOM     30  C   UNL     1       3.255  -0.643  -2.747  0.00  0.00    +0.052 C 
BRANCH  30  33
ATOM     31  C   UNL     1       5.710  -0.295  -0.661  0.00  0.00    +0.035 C 
ATOM     32  C   UNL     1       4.237  -0.335  -0.250  0.00  0.00    +0.103 C 
ATOM     33  C   UNL     1       3.421  -1.047  -1.305  0.00  0.00    -0.037 C 
ATOM     34  C   UNL     1       2.869  -2.124  -0.690  0.00  0.00    +0.000 A 
ATOM     35  C   UNL     1       2.014  -3.151  -1.167  0.00  0.00    +0.028 A 
ATOM     36  C   UNL     1       1.590  -4.147  -0.317  0.00  0.00    +0.052 A 
ATOM     37  C   UNL     1       2.003  -4.175   1.082  0.00  0.00    +0.021 A 
ATOM     38  C   UNL     1       2.815  -3.225   1.590  0.00  0.00    +0.027 A 
ATOM     39  C   UNL     1       3.295  -2.140   0.727  0.00  0.00    +0.043 A 
ATOM     40  N   UNL     1       4.077  -1.117   0.980  0.00  0.00    -0.378 N 
ATOM     41  H   UNL     1       4.482  -0.912   1.838  0.00  0.00    +0.160 HD
BRANCH  36  42
ATOM     42  C   UNL     1       0.727  -5.175  -0.815  0.00  0.00    +0.099 C 
ATOM     43  N   UNL     1       0.043  -5.991  -1.210  0.00  0.00    -0.191 NA
ENDBRANCH  36  42
ENDBRANCH  30  33
ENDBRANCH  29  30
ENDBRANCH  25  29
ENDBRANCH   1  26
TORSDOF 6
