REMARK  Name = ZINC65801475
REMARK  3 active torsions:
REMARK  status: ('A' for Active; 'I' for Inactive)
REMARK    1  A    between atoms: C_6  and  N_7
REMARK    2  A    between atoms: N_10  and  C_11
REMARK    3  A    between atoms: C_11  and  C_12
REMARK                            x       y       z     vdW  Elec       q    Type
REMARK                         _______ _______ _______ _____ _____    ______ ____
ROOT
ATOM      1  N   UNL     1      -1.198  -0.715   0.010  0.00  0.00    -0.269 N 
ATOM      2  C   UNL     1      -2.369  -0.058   0.126  0.00  0.00    +0.304 C 
ATOM      3  O   UNL     1      -2.386   1.158   0.133  0.00  0.00    -0.252 OA
ATOM      4  N   UNL     1      -3.521  -0.749   0.235  0.00  0.00    -0.295 N 
ATOM      5  H   UNL     1      -1.190  -1.681  -0.074  0.00  0.00    +0.156 HD
ATOM      6  H   UNL     1      -3.507  -1.719   0.229  0.00  0.00    +0.151 HD
ENDROOT
BRANCH   1  12
ATOM      7  C   UNL     1       0.123   1.150   0.772  0.00  0.00    +0.024 A 
ATOM      8  C   UNL     1       1.308   1.863   0.779  0.00  0.00    +0.015 A 
ATOM      9  C   UNL     1       2.384   1.423   0.020  0.00  0.00    +0.049 A 
ATOM     10  C   UNL     1       2.264   0.250  -0.756  0.00  0.00    +0.051 A 
ATOM     11  C   UNL     1       1.077  -0.458  -0.757  0.00  0.00    +0.037 A 
ATOM     12  C   UNL     1       0.002  -0.005   0.009  0.00  0.00    +0.036 A 
ATOM     13  C   UNL     1       3.571   0.075  -1.426  0.00  0.00    +0.251 C 
ATOM     14  O   UNL     1       3.864  -0.827  -2.184  0.00  0.00    -0.270 OA
ATOM     15  N   UNL     1       4.380   1.083  -1.054  0.00  0.00    -0.248 N 
ATOM     16  C   UNL     1       3.755   1.918  -0.204  0.00  0.00    +0.251 C 
ATOM     17  O   UNL     1       4.240   2.914   0.295  0.00  0.00    -0.270 OA
ATOM     18  H   UNL     1       5.294   1.194  -1.359  0.00  0.00    +0.158 HD
ENDBRANCH   1  12
BRANCH   4  19
ATOM     19  C   UNL     1      -4.794  -0.035   0.361  0.00  0.00    +0.148 C 
BRANCH  19  20
ATOM     20  C   UNL     1      -5.920  -1.031   0.466  0.00  0.00    +0.008 A 
ATOM     21  C   UNL     1      -6.460  -1.596   1.574  0.00  0.00    +0.028 A 
ATOM     22  C   UNL     1      -7.500  -2.496   1.429  0.00  0.00    +0.025 A 
ATOM     23  C   UNL     1      -7.948  -2.787   0.183  0.00  0.00    +0.060 A 
ATOM     24  S   UNL     1      -6.894  -1.768  -0.836  0.00  0.00    -0.099 S 
ATOM     25 BR   UNL     1      -8.284  -3.309   2.946  0.00  0.00    -0.050 Br
ENDBRANCH  19  20
ENDBRANCH   4  19
TORSDOF 3
