REMARK  Name = ZINC19162238
REMARK  7 active torsions:
REMARK  status: ('A' for Active; 'I' for Inactive)
REMARK    1  A    between atoms: C_1  and  C_2
REMARK    2  A    between atoms: C_4  and  N_22
REMARK    3  A    between atoms: C_7  and  N_8
REMARK    4  A    between atoms: C_9  and  C_11
REMARK    5  A    between atoms: C_12  and  C_13
REMARK    6  A    between atoms: C_18  and  O_19
REMARK    7  A    between atoms: O_19  and  C_20
REMARK                            x       y       z     vdW  Elec       q    Type
REMARK                         _______ _______ _______ _____ _____    ______ ____
ROOT
ATOM      1  N   UNL     1      -4.941   3.970   0.048  0.00  0.00    -0.282 N 
ATOM      2  C   UNL     1      -4.961   5.313   0.157  0.00  0.00    +0.241 C 
ATOM      3  O   UNL     1      -3.917   5.939   0.155  0.00  0.00    -0.270 OA
ATOM      4  H   UNL     1      -5.773   3.477  -0.032  0.00  0.00    +0.155 HD
ENDROOT
BRANCH   1  11
ATOM      5  C   UNL     1      -4.828   1.422  -1.215  0.00  0.00    +0.046 C 
ATOM      6  C   UNL     1      -3.622   2.040  -0.556  0.00  0.00    -0.027 A 
ATOM      7  C   UNL     1      -2.415   1.367  -0.553  0.00  0.00    +0.038 A 
ATOM      8  C   UNL     1      -1.308   1.933   0.051  0.00  0.00    +0.127 A 
ATOM      9  C   UNL     1      -1.405   3.172   0.659  0.00  0.00    +0.034 A 
ATOM     10  C   UNL     1      -2.607   3.852   0.654  0.00  0.00    +0.026 A 
ATOM     11  C   UNL     1      -3.721   3.286   0.049  0.00  0.00    +0.037 A 
BRANCH   8  12
ATOM     12  N   UNL     1      -0.017   1.210   0.053  0.00  0.00    +0.056 N 
ATOM     13  O   UNL     1       0.069   0.117  -0.478  0.00  0.00    -0.126 OA
ATOM     14  O   UNL     1       0.961   1.709   0.580  0.00  0.00    -0.126 OA
ENDBRANCH   8  12
ENDBRANCH   1  11
BRANCH   2  15
ATOM     15  C   UNL     1      -6.236   6.018   0.277  0.00  0.00    +0.068 C 
ATOM     16  C   UNL     1      -6.256   7.363   0.387  0.00  0.00    +0.016 C 
BRANCH  16  17
ATOM     17  C   UNL     1      -7.538   8.072   0.508  0.00  0.00    +0.018 A 
ATOM     18  C   UNL     1      -8.741   7.356   0.510  0.00  0.00    +0.026 A 
ATOM     19  C   UNL     1      -9.939   8.027   0.625  0.00  0.00    +0.019 A 
ATOM     20  C   UNL     1      -9.958   9.409   0.737  0.00  0.00    +0.019 A 
ATOM     21  C   UNL     1      -8.779  10.128   0.736  0.00  0.00    +0.047 A 
ATOM     22  C   UNL     1      -7.564   9.470   0.627  0.00  0.00    +0.127 A 
ATOM     23 BR   UNL     1     -11.563   7.060   0.627  0.00  0.00    -0.050 Br
BRANCH  22  24
ATOM     24  O   UNL     1      -6.404  10.175   0.632  0.00  0.00    -0.495 OA
ATOM     25  C   UNL     1      -6.508  11.595   0.757  0.00  0.00    +0.277 C 
ENDBRANCH  22  24
ENDBRANCH  16  17
ENDBRANCH   2  15
TORSDOF 5
