REMARK  Name = ZINC59056537
REMARK  6 active torsions:
REMARK  status: ('A' for Active; 'I' for Inactive)
REMARK    1  A    between atoms: C_3  and  C_9
REMARK    2  A    between atoms: C_9  and  O_10
REMARK    3  A    between atoms: O_10  and  C_11
REMARK    4  A    between atoms: C_12  and  C_19
REMARK    5  A    between atoms: C_19  and  N_20
REMARK    6  A    between atoms: N_20  and  N_21
REMARK                            x       y       z     vdW  Elec       q    Type
REMARK                         _______ _______ _______ _____ _____    ______ ____
ROOT
ATOM      1  C   UNL     1       4.569   4.317  -0.131  0.00  0.00    +0.144 A 
ATOM      2  C   UNL     1       5.127   4.862   1.016  0.00  0.00    +0.016 A 
ATOM      3  C   UNL     1       6.105   5.832   0.913  0.00  0.00    +0.029 A 
ATOM      4  C   UNL     1       6.529   6.261  -0.332  0.00  0.00    +0.043 A 
ATOM      5  C   UNL     1       5.974   5.720  -1.478  0.00  0.00    +0.043 A 
ATOM      6  C   UNL     1       4.999   4.744  -1.380  0.00  0.00    +0.084 A 
ATOM      7 CL   UNL     1       4.308   4.059  -2.818  0.00  0.00    -0.080 Cl
ATOM      8 CL   UNL     1       7.757   7.482  -0.457  0.00  0.00    -0.083 Cl
ENDROOT
BRANCH   1   9
ATOM      9  O   UNL     1       3.607   3.362  -0.032  0.00  0.00    -0.486 OA
BRANCH   9  10
ATOM     10  C   UNL     1       2.249   3.803  -0.074  0.00  0.00    +0.266 C 
BRANCH  10  13
ATOM     11  C   UNL     1       1.021   0.233  -0.031  0.00  0.00    +0.020 A 
ATOM     12  C   UNL     1       1.861   1.331  -0.034  0.00  0.00    +0.010 A 
ATOM     13  C   UNL     1       1.332   2.607  -0.072  0.00  0.00    +0.008 A 
ATOM     14  C   UNL     1      -0.040   2.786  -0.109  0.00  0.00    +0.049 A 
ATOM     15  C   UNL     1      -0.881   1.689  -0.106  0.00  0.00    +0.040 A 
ATOM     16  C   UNL     1      -0.351   0.411  -0.067  0.00  0.00    +0.042 A 
ATOM     17 CL   UNL     1      -1.406  -0.967  -0.065  0.00  0.00    -0.083 Cl
ATOM     18 CL   UNL     1      -0.705   4.389  -0.156  0.00  0.00    -0.083 Cl
ENDBRANCH  10  13
ENDBRANCH   9  10
ENDBRANCH   1   9
BRANCH   2  19
ATOM     19  C   UNL     1       4.667   4.396   2.373  0.00  0.00    +0.161 C 
BRANCH  19  20
ATOM     20  N   UNL     1       5.279   3.096   2.678  0.00  0.00    -0.260 N 
ATOM     21  H   UNL     1       5.000   2.398   2.005  0.00  0.00    +0.168 HD
BRANCH  20  22
ATOM     22  N   UNL     1       4.978   2.699   3.950  0.00  0.00    -0.129 N 
ATOM     23  C   UNL     1       5.372   1.564   4.571  0.00  0.00    +0.251 A 
ATOM     24  N   UNL     1       4.856   1.585   5.781  0.00  0.00    -0.091 NA
ATOM     25  N   UNL     1       4.167   2.655   5.957  0.00  0.00    -0.020 NA
ATOM     26  N   UNL     1       4.196   3.385   4.895  0.00  0.00    -0.024 NA
ATOM     27  N   UNL     1       6.168   0.567   4.035  0.00  0.00    -0.325 N 
ATOM     28  H   UNL     1       6.499   0.647   3.127  0.00  0.00    +0.145 HD
ATOM     29  H   UNL     1       6.394  -0.212   4.567  0.00  0.00    +0.145 HD
ENDBRANCH  20  22
ENDBRANCH  19  20
ENDBRANCH   2  19
TORSDOF 6
