REMARK  Name = ZINC04092193
REMARK  7 active torsions:
REMARK  status: ('A' for Active; 'I' for Inactive)
REMARK    1  A    between atoms: C_5  and  C_27
REMARK    2  A    between atoms: C_7  and  C_9
REMARK    3  A    between atoms: N_11  and  C_12
REMARK    4  A    between atoms: C_12  and  C_13
REMARK    5  A    between atoms: C_13  and  N_14
REMARK    6  A    between atoms: C_15  and  C_17
REMARK    7  A    between atoms: C_23  and  C_25
REMARK                            x       y       z     vdW  Elec       q    Type
REMARK                         _______ _______ _______ _____ _____    ______ ____
ROOT
ATOM      1  C   UNL     1       1.455   5.699  -0.484  0.00  0.00    +0.123 C 
ENDROOT
BRANCH   1   4
ATOM      2  C   UNL     1       0.129   3.682  -0.150  0.00  0.00    +0.217 C 
ATOM      3  O   UNL     1       1.109   3.026  -0.434  0.00  0.00    -0.275 OA
ATOM      4  N   UNL     1       0.197   5.028  -0.146  0.00  0.00    -0.314 N 
ATOM      5  H   UNL     1      -0.587   5.552   0.081  0.00  0.00    +0.149 HD
BRANCH   2  11
ATOM      6  C   UNL     1      -1.353   1.768  -0.703  0.00  0.00    +0.040 C 
ATOM      7  C   UNL     1      -0.364   0.700  -0.338  0.00  0.00    -0.030 C 
ATOM      8  C   UNL     1       0.289   0.668   0.779  0.00  0.00    -0.030 C 
ATOM      9  C   UNL     1       0.157   1.700   1.860  0.00  0.00    +0.042 C 
ATOM     10  C   UNL     1      -1.121   2.515   1.654  0.00  0.00    +0.118 C 
ATOM     11  C   UNL     1      -1.164   2.991   0.197  0.00  0.00    +0.093 C 
BRANCH  10  12
ATOM     12  C   UNL     1      -1.115   3.709   2.574  0.00  0.00    +0.360 C 
ATOM     13  O   UNL     1      -1.162   4.826   2.114  0.00  0.00    -0.246 OA
ATOM     14  O   UNL     1      -1.058   3.532   3.903  0.00  0.00    -0.246 OA
ENDBRANCH  10  12
ENDBRANCH   2  11
ENDBRANCH   1   4
BRANCH   1  15
ATOM     15  C   UNL     1       1.262   7.214  -0.404  0.00  0.00    +0.123 C 
BRANCH  15  16
ATOM     16  N   UNL     1       2.519   7.886  -0.742  0.00  0.00    -0.314 N 
ATOM     17  C   UNL     1       2.587   9.232  -0.737  0.00  0.00    +0.217 C 
ATOM     18  O   UNL     1       1.607   9.887  -0.453  0.00  0.00    -0.275 OA
ATOM     19  H   UNL     1       3.303   7.361  -0.969  0.00  0.00    +0.149 HD
BRANCH  17  20
ATOM     20  C   UNL     1       3.881   9.922  -1.085  0.00  0.00    +0.093 C 
ATOM     21  C   UNL     1       3.589  11.173  -1.917  0.00  0.00    +0.040 C 
ATOM     22  C   UNL     1       2.939  12.222  -1.063  0.00  0.00    -0.030 C 
ATOM     23  C   UNL     1       2.954  12.215   0.231  0.00  0.00    -0.030 C 
ATOM     24  C   UNL     1       3.615  11.152   1.059  0.00  0.00    +0.042 C 
ATOM     25  C   UNL     1       4.598  10.352   0.201  0.00  0.00    +0.118 C 
BRANCH  25  26
ATOM     26  C   UNL     1       5.058   9.131   0.957  0.00  0.00    +0.360 C 
ATOM     27  O   UNL     1       4.837   8.029   0.515  0.00  0.00    -0.246 OA
ATOM     28  O   UNL     1       5.713   9.270   2.120  0.00  0.00    -0.246 OA
ENDBRANCH  25  26
ENDBRANCH  17  20
ENDBRANCH  15  16
ENDBRANCH   1  15
TORSDOF 7
