REMARK  Name = ZINC02204860
REMARK  11 active torsions:
REMARK  status: ('A' for Active; 'I' for Inactive)
REMARK    1  A    between atoms: C_1  and  C_2
REMARK    2  A    between atoms: C_2  and  O_3
REMARK    3  A    between atoms: O_3  and  C_4
REMARK    4  A    between atoms: C_4  and  C_6
REMARK    5  A    between atoms: C_9  and  O_29
REMARK    6  A    between atoms: N_13  and  C_22
REMARK    7  A    between atoms: C_14  and  C_15
REMARK    8  A    between atoms: C_15  and  N_62
REMARK    9  A    between atoms: C_18  and  C_21
REMARK   10  A    between atoms: O_29  and  C_30
REMARK   11  A    between atoms: C_30  and  C_32
REMARK                            x       y       z     vdW  Elec       q    Type
REMARK                         _______ _______ _______ _____ _____    ______ ____
ROOT
ATOM      1  C   UNL     1       0.688   6.169  -4.077  0.00  0.00    +0.086 A 
ATOM      2  C   UNL     1      -0.428   6.390  -5.017  0.00  0.00    +0.018 A 
ATOM      3  C   UNL     1      -0.511   6.535  -6.399  0.00  0.00    +0.058 A 
ATOM      4  C   UNL     1      -1.743   6.736  -6.992  0.00  0.00    +0.146 A 
ATOM      5  C   UNL     1      -2.895   6.793  -6.211  0.00  0.00    +0.062 A 
ATOM      6  C   UNL     1      -2.821   6.650  -4.843  0.00  0.00    +0.045 A 
ATOM      7  C   UNL     1      -1.589   6.447  -4.230  0.00  0.00    +0.056 A 
ATOM      8  N   UNL     1      -1.207   6.269  -2.913  0.00  0.00    -0.314 N 
ATOM      9  C   UNL     1       0.137   6.111  -2.829  0.00  0.00    +0.022 A 
ATOM     10 BR   UNL     1      -4.574   7.069  -7.036  0.00  0.00    -0.046 Br
ENDROOT
BRANCH   8  11
ATOM     11  C   UNL     1      -2.083   6.256  -1.821  0.00  0.00    +0.047 A 
ATOM     12  C   UNL     1      -2.278   5.086  -1.099  0.00  0.00    +0.026 A 
ATOM     13  C   UNL     1      -3.140   5.077  -0.020  0.00  0.00    +0.002 A 
ATOM     14  C   UNL     1      -3.816   6.230   0.336  0.00  0.00    +0.000 A 
ATOM     15  C   UNL     1      -3.628   7.395  -0.384  0.00  0.00    +0.002 A 
ATOM     16  C   UNL     1      -2.764   7.412  -1.461  0.00  0.00    +0.026 A 
ENDBRANCH   8  11
BRANCH   1  17
ATOM     17  C   UNL     1       2.109   6.039  -4.416  0.00  0.00    +0.341 C 
ATOM     18  O   UNL     1       2.578   4.944  -4.658  0.00  0.00    -0.245 OA
BRANCH  17  19
ATOM     19  O   UNL     1       2.895   7.134  -4.460  0.00  0.00    -0.461 OA
BRANCH  19  21
ATOM     20  C   UNL     1       5.019   8.276  -4.802  0.00  0.00    +0.048 C 
ATOM     21  C   UNL     1       4.291   6.930  -4.802  0.00  0.00    +0.229 C 
ENDBRANCH  19  21
ENDBRANCH  17  19
ENDBRANCH   1  17
BRANCH   9  22
ATOM     22  C   UNL     1       0.907   5.898  -1.551  0.00  0.00    -0.023 C 
BRANCH  22  29
ATOM     23  C   UNL     1       1.561   7.017   0.494  0.00  0.00    -0.078 C 
ATOM     24  C   UNL     1       1.670   8.384   1.172  0.00  0.00    -0.016 C 
ATOM     25  C   UNL     1       2.700   9.237   0.427  0.00  0.00    -0.018 C 
ATOM     26  C   UNL     1       2.281   9.366  -1.040  0.00  0.00    -0.016 C 
ATOM     27  C   UNL     1       2.154   7.970  -1.654  0.00  0.00    -0.078 C 
ATOM     28  C   UNL     1       2.770  10.627   1.063  0.00  0.00    +0.007 C 
ATOM     29  N   UNL     1       1.130   7.209  -0.907  0.00  0.00    +0.383 N 
ATOM     30  H   UNL     1       0.250   7.738  -0.916  0.00  0.00    -0.081 HD
ENDBRANCH  22  29
ENDBRANCH   9  22
BRANCH   4  31
ATOM     31  O   UNL     1      -1.831   6.878  -8.342  0.00  0.00    -0.425 OA
BRANCH  31  32
ATOM     32  C   UNL     1      -1.903   8.131  -8.819  0.00  0.00    +0.309 C 
ATOM     33  O   UNL     1      -1.796   9.071  -8.067  0.00  0.00    -0.251 OA
ATOM     34  C   UNL     1      -2.117   8.365 -10.292  0.00  0.00    +0.136 C 
ENDBRANCH  31  32
ENDBRANCH   4  31
TORSDOF 8
