REMARK  Name = ZINC08793529
REMARK  10 active torsions:
REMARK  status: ('A' for Active; 'I' for Inactive)
REMARK    1  A    between atoms: C_1  and  C_2
REMARK    2  A    between atoms: C_5  and  C_38
REMARK    3  A    between atoms: C_6  and  N_8
REMARK    4  A    between atoms: C_9  and  C_11
REMARK    5  A    between atoms: C_11  and  S_12
REMARK    6  A    between atoms: S_12  and  C_13
REMARK    7  A    between atoms: C_16  and  C_24
REMARK    8  A    between atoms: N_17  and  C_18
REMARK    9  A    between atoms: C_24  and  N_25
REMARK   10  A    between atoms: C_26  and  C_28
REMARK                            x       y       z     vdW  Elec       q    Type
REMARK                         _______ _______ _______ _____ _____    ______ ____
ROOT
ATOM      1  C   UNL     1       0.537  -2.770   7.657  0.00  0.00    +0.192 A 
ATOM      2  N   UNL     1       0.562  -4.083   7.665  0.00  0.00    -0.122 NA
ATOM      3  N   UNL     1       0.677  -4.509   8.872  0.00  0.00    -0.132 NA
ATOM      4  C   UNL     1       0.732  -3.503   9.699  0.00  0.00    +0.152 A 
ATOM      5  N   UNL     1       0.650  -2.360   8.954  0.00  0.00    -0.302 N 
ENDROOT
BRANCH   5   6
ATOM      6  C   UNL     1       0.676  -0.980   9.446  0.00  0.00    +0.091 C 
ATOM      7  C   UNL     1      -0.625  -0.275   9.056  0.00  0.00    +0.025 C 
ATOM      8  C   UNL     1      -0.599   1.166   9.570  0.00  0.00    +0.002 C 
ATOM      9  C   UNL     1       0.588   1.906   8.950  0.00  0.00    +0.000 C 
ATOM     10  C   UNL     1       1.889   1.202   9.340  0.00  0.00    +0.002 C 
ATOM     11  C   UNL     1       1.862  -0.239   8.826  0.00  0.00    +0.025 C 
ENDBRANCH   5   6
BRANCH   1  12
ATOM     12  S   UNL     1       0.391  -1.734   6.239  0.00  0.00    -0.077 S 
BRANCH  12  13
ATOM     13  C   UNL     1       0.280  -2.900   4.854  0.00  0.00    +0.173 C 
BRANCH  13  15
ATOM     14  N   UNL     1       0.052  -2.797   2.393  0.00  0.00    -0.285 N 
ATOM     15  C   UNL     1       0.150  -2.135   3.562  0.00  0.00    +0.227 C 
ATOM     16  O   UNL     1       0.134  -0.922   3.575  0.00  0.00    -0.275 OA
ATOM     17  H   UNL     1      -0.016  -3.765   2.388  0.00  0.00    +0.155 HD
BRANCH  14  23
ATOM     18  C   UNL     1       1.264   1.227  -0.158  0.00  0.00    +0.044 C 
ATOM     19  C   UNL     1       0.628  -0.137  -0.079  0.00  0.00    -0.049 A 
ATOM     20  C   UNL     1       0.039  -0.690  -1.201  0.00  0.00    +0.004 A 
ATOM     21  C   UNL     1      -0.546  -1.941  -1.133  0.00  0.00    +0.005 A 
ATOM     22  C   UNL     1      -0.543  -2.643   0.057  0.00  0.00    -0.029 A 
ATOM     23  C   UNL     1       0.048  -2.090   1.185  0.00  0.00    +0.037 A 
ATOM     24  C   UNL     1       0.639  -0.835   1.112  0.00  0.00    +0.027 A 
ATOM     25  C   UNL     1      -1.181  -4.006   0.131  0.00  0.00    +0.045 C 
ENDBRANCH  14  23
ENDBRANCH  13  15
ENDBRANCH  12  13
ENDBRANCH   1  12
BRANCH   4  26
ATOM     26  C   UNL     1       0.867  -3.586  11.198  0.00  0.00    +0.180 C 
BRANCH  26  27
ATOM     27  N   UNL     1       2.286  -3.586  11.561  0.00  0.00    -0.308 N 
ATOM     28  C   UNL     1       2.650  -3.653  12.857  0.00  0.00    +0.220 C 
ATOM     29  O   UNL     1       1.802  -3.714  13.723  0.00  0.00    -0.275 OA
ATOM     30  H   UNL     1       2.964  -3.537  10.869  0.00  0.00    +0.149 HD
BRANCH  28  31
ATOM     31  C   UNL     1       4.109  -3.653  13.231  0.00  0.00    +0.048 C 
ATOM     32  C   UNL     1       4.800  -4.859  12.590  0.00  0.00    +0.019 C 
ATOM     33  C   UNL     1       6.282  -4.859  12.970  0.00  0.00    -0.009 C 
ATOM     34  C   UNL     1       6.419  -4.942  14.491  0.00  0.00    +0.007 C 
ATOM     35  C   UNL     1       5.728  -3.737  15.132  0.00  0.00    -0.009 C 
ATOM     36  C   UNL     1       4.246  -3.737  14.753  0.00  0.00    +0.019 C 
ATOM     37  C   UNL     1       6.383  -2.448  14.631  0.00  0.00    +0.007 C 
ATOM     38  C   UNL     1       6.247  -2.365  13.109  0.00  0.00    -0.009 C 
ATOM     39  C   UNL     1       6.937  -3.570  12.469  0.00  0.00    +0.007 C 
ATOM     40  C   UNL     1       4.764  -2.365  12.730  0.00  0.00    +0.019 C 
ENDBRANCH  28  31
ENDBRANCH  26  27
ENDBRANCH   4  26
TORSDOF 8
