REMARK  Name = ZINC39703052
REMARK  6 active torsions:
REMARK  status: ('A' for Active; 'I' for Inactive)
REMARK    1  A    between atoms: C_1  and  C_2
REMARK    2  A    between atoms: C_7  and  C_12
REMARK    3  A    between atoms: C_12  and  C_32
REMARK    4  A    between atoms: C_13  and  C_14
REMARK    5  A    between atoms: N_17  and  C_24
REMARK    6  A    between atoms: C_24  and  C_25
REMARK                            x       y       z     vdW  Elec       q    Type
REMARK                         _______ _______ _______ _____ _____    ______ ____
ROOT
ATOM      1  C   UNL     1       2.464  -7.021   2.754  0.00  0.00    +0.062 C 
ATOM      2  C   UNL     1       2.506  -8.454   2.199  0.00  0.00    +0.117 C 
ATOM      3  N   UNL     1       2.484  -9.323   3.379  0.00  0.00    -0.324 N 
ATOM      4  C   UNL     1       2.436  -8.552   4.541  0.00  0.00    +0.034 A 
ATOM      5  C   UNL     1       2.423  -7.193   4.255  0.00  0.00    -0.018 A 
ATOM      6  C   UNL     1       2.378  -6.261   5.274  0.00  0.00    +0.006 A 
ATOM      7  C   UNL     1       2.346  -6.674   6.593  0.00  0.00    +0.000 A 
ATOM      8  C   UNL     1       2.359  -8.024   6.891  0.00  0.00    +0.002 A 
ATOM      9  C   UNL     1       2.402  -8.964   5.875  0.00  0.00    +0.023 A 
ENDROOT
BRANCH   1  11
ATOM     10  C   UNL     1       1.340  -5.177   1.578  0.00  0.00    +0.068 C 
ATOM     11  C   UNL     1       1.228  -6.306   2.272  0.00  0.00    +0.001 C 
BRANCH  10  18
ATOM     12  C   UNL     1       0.049   1.274  -0.781  0.00  0.00    +0.044 C 
ATOM     13  C   UNL     1       0.072  -0.231  -0.700  0.00  0.00    -0.048 A 
ATOM     14  C   UNL     1       0.111  -0.971  -1.895  0.00  0.00    +0.005 A 
ATOM     15  C   UNL     1       0.134  -2.319  -1.914  0.00  0.00    +0.027 A 
ATOM     16  C   UNL     1       0.119  -3.062  -0.647  0.00  0.00    +0.060 A 
ATOM     17  N   UNL     1       0.134  -4.333  -0.366  0.00  0.00    -0.359 N 
ATOM     18  C   UNL     1       0.104  -4.462   1.096  0.00  0.00    +0.216 C 
ATOM     19  N   UNL     1       0.070  -3.095   1.631  0.00  0.00    -0.359 N 
ATOM     20  C   UNL     1       0.079  -2.279   0.618  0.00  0.00    +0.061 A 
ATOM     21  C   UNL     1       0.061  -0.813   0.516  0.00  0.00    +0.030 A 
ATOM     22  H   UNL     1       0.159  -5.062  -1.006  0.00  0.00    +0.162 HD
ATOM     23  H   UNL     1       0.046  -2.847   2.569  0.00  0.00    +0.162 HD
ENDBRANCH  10  18
BRANCH  10  24
ATOM     24  C   UNL     1       2.636  -4.641   1.288  0.00  0.00    +0.098 C 
ATOM     25  N   UNL     1       3.664  -4.215   1.058  0.00  0.00    -0.191 NA
ENDBRANCH  10  24
ENDBRANCH   1  11
BRANCH   3  26
ATOM     26  C   UNL     1       2.510 -10.788   3.343  0.00  0.00    +0.141 C 
BRANCH  26  27
ATOM     27  C   UNL     1       1.101 -11.317   3.419  0.00  0.00    -0.012 A 
ATOM     28  C   UNL     1       0.590 -11.751   4.628  0.00  0.00    +0.006 A 
ATOM     29  C   UNL     1      -0.702 -12.236   4.697  0.00  0.00    +0.000 A 
ATOM     30  C   UNL     1      -1.484 -12.289   3.558  0.00  0.00    +0.001 A 
ATOM     31  C   UNL     1      -0.974 -11.856   2.349  0.00  0.00    +0.020 A 
ATOM     32  C   UNL     1       0.318 -11.364   2.280  0.00  0.00    +0.046 A 
ATOM     33 CL   UNL     1       0.958 -10.814   0.762  0.00  0.00    -0.083 Cl
ENDBRANCH  26  27
ENDBRANCH   3  26
TORSDOF 5
