REMARK  Name = ZINC09591963
REMARK  14 active torsions:
REMARK  status: ('A' for Active; 'I' for Inactive)
REMARK    1  A    between atoms: C_1  and  C_2
REMARK    2  A    between atoms: C_5  and  S_8
REMARK    3  A    between atoms: S_8  and  N_11
REMARK    4  A    between atoms: N_11  and  C_12
REMARK    5  A    between atoms: N_11  and  C_13
REMARK    6  A    between atoms: C_16  and  O_19
REMARK    7  A    between atoms: O_19  and  C_20
REMARK    8  A    between atoms: C_20  and  C_21
REMARK    9  A    between atoms: N_23  and  C_24
REMARK   10  A    between atoms: C_24  and  C_25
REMARK   11  A    between atoms: C_25  and  C_27
REMARK   12  A    between atoms: C_25  and  N_62
REMARK   13  A    between atoms: C_32  and  N_62
REMARK   14  A    between atoms: C_33  and  N_62
REMARK                            x       y       z     vdW  Elec       q    Type
REMARK                         _______ _______ _______ _____ _____    ______ ____
ROOT
ATOM      1  C   UNL     1       1.159  -3.881  -2.435  0.00  0.00    +0.051 A 
ATOM      2  C   UNL     1       1.582  -3.412  -3.671  0.00  0.00    +0.028 A 
ATOM      3  C   UNL     1       1.466  -2.070  -3.977  0.00  0.00    +0.047 A 
ATOM      4  C   UNL     1       0.926  -1.191  -3.049  0.00  0.00    +0.121 A 
ATOM      5  C   UNL     1       0.507  -1.659  -1.812  0.00  0.00    +0.047 A 
ATOM      6  C   UNL     1       0.619  -3.001  -1.507  0.00  0.00    +0.028 A 
ENDROOT
BRANCH   1   7
ATOM      7  N   UNL     1       1.276  -5.240  -2.125  0.00  0.00    -0.206 N 
ATOM      8  C   UNL     1       1.273  -6.239  -3.196  0.00  0.00    +0.157 C 
BRANCH   7   9
ATOM      9  S   UNL     1       1.420  -5.720  -0.546  0.00  0.00    +0.074 S 
ATOM     10  O   UNL     1       2.099  -6.968  -0.561  0.00  0.00    -0.150 OA
ATOM     11  O   UNL     1       1.906  -4.597   0.177  0.00  0.00    -0.150 OA
BRANCH   9  16
ATOM     12  C   UNL     1      -4.150  -6.809   1.502  0.00  0.00    +0.044 C 
ATOM     13  C   UNL     1      -2.759  -6.537   0.990  0.00  0.00    -0.050 A 
ATOM     14  C   UNL     1      -2.081  -7.510   0.280  0.00  0.00    +0.005 A 
ATOM     15  C   UNL     1      -0.805  -7.261  -0.189  0.00  0.00    +0.029 A 
ATOM     16  C   UNL     1      -0.207  -6.038   0.052  0.00  0.00    +0.109 A 
ATOM     17  C   UNL     1      -0.883  -5.067   0.766  0.00  0.00    +0.029 A 
ATOM     18  C   UNL     1      -2.161  -5.315   1.231  0.00  0.00    +0.005 A 
ENDBRANCH   9  16
ENDBRANCH   7   9
ENDBRANCH   1   7
BRANCH   4  19
ATOM     19  O   UNL     1       0.812   0.130  -3.350  0.00  0.00    -0.483 OA
BRANCH  19  20
ATOM     20  C   UNL     1       0.246   0.978  -2.348  0.00  0.00    +0.324 C 
BRANCH  20  21
ATOM     21  C   UNL     1       0.200   2.395  -2.857  0.00  0.00    +0.251 C 
ATOM     22  O   UNL     1       0.611   2.654  -3.969  0.00  0.00    -0.272 OA
ATOM     23  N   UNL     1      -0.297   3.376  -2.077  0.00  0.00    -0.314 N 
ATOM     24  H   UNL     1      -0.626   3.168  -1.188  0.00  0.00    +0.149 HD
BRANCH  23  25
ATOM     25  C   UNL     1      -0.342   4.754  -2.572  0.00  0.00    +0.094 C 
BRANCH  25  26
ATOM     26  C   UNL     1      -1.046   5.642  -1.544  0.00  0.00    -0.014 C 
BRANCH  26  27
ATOM     27  C   UNL     1      -0.206   5.729  -0.296  0.00  0.00    -0.022 A 
ATOM     28  C   UNL     1       0.635   6.716   0.099  0.00  0.00    +0.009 A 
ATOM     29  C   UNL     1       1.308   6.583   1.299  0.00  0.00    +0.008 A 
ATOM     30  C   UNL     1       1.115   5.464   2.040  0.00  0.00    +0.045 A 
ATOM     31  S   UNL     1      -0.053   4.556   1.041  0.00  0.00    -0.103 S 
ENDBRANCH  26  27
BRANCH  26  34
ATOM     32  C   UNL     1      -3.084   5.919  -0.266  0.00  0.00    -0.096 C 
ATOM     33  C   UNL     1      -3.149   4.828  -2.427  0.00  0.00    -0.096 C 
ATOM     34  N   UNL     1      -2.351   5.039  -1.200  0.00  0.00    +0.382 N 
ATOM     35  H   UNL     1      -2.190   4.132  -0.747  0.00  0.00    -0.082 HD
ENDBRANCH  26  34
ENDBRANCH  25  26
ENDBRANCH  23  25
ENDBRANCH  20  21
ENDBRANCH  19  20
ENDBRANCH   4  19
TORSDOF 10
