REMARK  Name = ZINC36643537
REMARK  13 active torsions:
REMARK  status: ('A' for Active; 'I' for Inactive)
REMARK    1  A    between atoms: C_1  and  C_2
REMARK    2  A    between atoms: C_2  and  N_3
REMARK    3  A    between atoms: N_3  and  C_4
REMARK    4  A    between atoms: N_3  and  S_6
REMARK    5  A    between atoms: C_4  and  C_5
REMARK    6  A    between atoms: S_6  and  C_9
REMARK    7  A    between atoms: C_12  and  C_15
REMARK    8  A    between atoms: N_17  and  C_18
REMARK    9  A    between atoms: C_18  and  C_19
REMARK   10  A    between atoms: C_19  and  C_20
REMARK   11  A    between atoms: C_20  and  N_21
REMARK   12  A    between atoms: N_21  and  C_22
REMARK   13  A    between atoms: N_21  and  C_23
REMARK                            x       y       z     vdW  Elec       q    Type
REMARK                         _______ _______ _______ _____ _____    ______ ____
ROOT
ATOM      1  C   UNL     1      -0.598   3.799  -5.599  0.00  0.00    +0.252 C 
ATOM      2  O   UNL     1      -1.664   4.337  -5.370  0.00  0.00    -0.270 OA
ATOM      3  N   UNL     1       0.192   4.263  -6.588  0.00  0.00    -0.246 N 
ATOM      4  C   UNL     1      -0.152   5.422  -7.263  0.00  0.00    +0.168 A 
ATOM      5  N   UNL     1       0.479   6.020  -8.247  0.00  0.00    -0.224 NA
ATOM      6  C   UNL     1       0.024   7.158  -8.816  0.00  0.00    +0.084 A 
ATOM      7  C   UNL     1       0.605   7.895  -9.875  0.00  0.00    +0.078 A 
ATOM      8  C   UNL     1       0.013   9.044 -10.345  0.00  0.00    +0.168 A 
ATOM      9  C   UNL     1      -1.180   9.516  -9.790  0.00  0.00    +0.167 A 
ATOM     10  C   UNL     1      -1.772   8.816  -8.754  0.00  0.00    +0.066 A 
ATOM     11  C   UNL     1      -1.181   7.669  -8.284  0.00  0.00    +0.044 A 
ATOM     12  S   UNL     1      -1.571   6.481  -7.021  0.00  0.00    -0.052 S 
ATOM     13  O   UNL     1      -1.543  10.661 -10.436  0.00  0.00    -0.453 OA
ATOM     14  C   UNL     1      -0.356  11.112 -11.114  0.00  0.00    +0.466 C 
ATOM     15  O   UNL     1       0.390   9.902 -11.343  0.00  0.00    -0.453 OA
ENDROOT
BRANCH   1  19
ATOM     16  C   UNL     1       0.639   0.462  -3.281  0.00  0.00    +0.106 A 
ATOM     17  C   UNL     1       0.114   1.579  -2.655  0.00  0.00    +0.029 A 
ATOM     18  C   UNL     1      -0.290   2.666  -3.402  0.00  0.00    +0.015 A 
ATOM     19  C   UNL     1      -0.167   2.638  -4.792  0.00  0.00    +0.037 A 
ATOM     20  C   UNL     1       0.363   1.508  -5.417  0.00  0.00    +0.015 A 
ATOM     21  C   UNL     1       0.768   0.430  -4.658  0.00  0.00    +0.029 A 
BRANCH  16  22
ATOM     22  S   UNL     1       1.152  -0.922  -2.319  0.00  0.00    +0.061 S 
ATOM     23  O   UNL     1       1.107  -2.053  -3.179  0.00  0.00    -0.153 OA
ATOM     24  O   UNL     1       0.423  -0.863  -1.101  0.00  0.00    -0.153 OA
BRANCH  22  25
ATOM     25  N   UNL     1       2.744  -0.685  -1.931  0.00  0.00    -0.177 NA
BRANCH  25  27
ATOM     26  C   UNL     1       3.335   1.504  -1.015  0.00  0.00    +0.022 C 
ATOM     27  C   UNL     1       3.100   0.026  -0.700  0.00  0.00    +0.106 C 
ENDBRANCH  25  27
BRANCH  25  28
ATOM     28  C   UNL     1       3.797  -1.187  -2.817  0.00  0.00    +0.106 C 
ATOM     29  C   UNL     1       4.261  -2.561  -2.331  0.00  0.00    +0.022 C 
ENDBRANCH  25  28
ENDBRANCH  22  25
ENDBRANCH  16  22
ENDBRANCH   1  19
BRANCH   3  30
ATOM     30  C   UNL     1       1.414   3.539  -6.950  0.00  0.00    +0.114 C 
BRANCH  30  31
ATOM     31  C   UNL     1       1.141   2.655  -8.168  0.00  0.00    +0.001 C 
BRANCH  31  32
ATOM     32  C   UNL     1       2.375   1.800  -8.464  0.00  0.00    -0.078 C 
BRANCH  32  33
ATOM     33  N   UNL     1       2.113   0.950  -9.633  0.00  0.00    +0.376 N 
ATOM     34  C   UNL     1       3.336   0.218  -9.990  0.00  0.00    -0.097 C 
ATOM     35  C   UNL     1       1.044  -0.006  -9.315  0.00  0.00    -0.097 C 
ATOM     36  H   UNL     1       1.828   1.527 -10.411  0.00  0.00    -0.083 HD
ENDBRANCH  32  33
ENDBRANCH  31  32
ENDBRANCH  30  31
ENDBRANCH   3  30
TORSDOF 9
