REMARK  Name = ZINC63350637
REMARK  2 active torsions:
REMARK  status: ('A' for Active; 'I' for Inactive)
REMARK    1  A    between atoms: C_8  and  C_16
REMARK    2  A    between atoms: N_22  and  C_25
REMARK                            x       y       z     vdW  Elec       q    Type
REMARK                         _______ _______ _______ _____ _____    ______ ____
ROOT
ATOM      1  C   UNL     1       5.298  -3.697   1.240  0.00  0.00    +0.101 A 
ATOM      2  C   UNL     1       6.043  -2.662   1.723  0.00  0.00    +0.261 A 
ATOM      3  N   UNL     1       7.237  -2.353   1.125  0.00  0.00    -0.302 N 
ATOM      4  H   UNL     1       7.771  -1.617   1.465  0.00  0.00    +0.171 HD
ATOM      5  C   UNL     1       7.675  -3.062   0.068  0.00  0.00    +0.168 A 
ATOM      6  S   UNL     1       9.169  -2.655  -0.660  0.00  0.00    -0.012 S 
ATOM      7  N   UNL     1       6.955  -4.087  -0.423  0.00  0.00    -0.256 N 
ATOM      8  C   UNL     1       5.778  -4.428   0.139  0.00  0.00    +0.268 A 
ATOM      9  O   UNL     1       5.132  -5.361  -0.307  0.00  0.00    -0.267 OA
ATOM     10  O   UNL     1       5.608  -1.948   2.783  0.00  0.00    -0.267 OA
ENDROOT
BRANCH   1  17
ATOM     11  C   UNL     1      -1.418  -2.154   1.694  0.00  0.00    +0.001 A 
ATOM     12  C   UNL     1      -0.785  -1.009   1.190  0.00  0.00    +0.002 A 
ATOM     13  C   UNL     1       0.513  -0.997   0.824  0.00  0.00    +0.026 A 
ATOM     14  C   UNL     1       1.306  -2.171   0.937  0.00  0.00    +0.043 A 
ATOM     15  N   UNL     1       2.573  -2.398   0.674  0.00  0.00    -0.376 N 
ATOM     16  C   UNL     1       2.842  -3.816   0.887  0.00  0.00    +0.128 C 
ATOM     17  C   UNL     1       3.983  -4.057   1.881  0.00  0.00    +0.121 C 
ATOM     18  N   UNL     1       3.983  -5.481   2.250  0.00  0.00    -0.307 NA
ATOM     19  C   UNL     1       2.799  -5.880   3.018  0.00  0.00    +0.086 C 
ATOM     20  C   UNL     1       1.536  -5.749   2.147  0.00  0.00    +0.048 C 
ATOM     21  C   UNL     1       1.575  -4.375   1.516  0.00  0.00    -0.035 C 
ATOM     22  C   UNL     1       0.663  -3.396   1.476  0.00  0.00    -0.001 A 
ATOM     23  C   UNL     1      -0.756  -3.323   1.847  0.00  0.00    +0.010 A 
ATOM     24  H   UNL     1       4.099  -6.066   1.435  0.00  0.00    +0.123 HD
ATOM     25  H   UNL     1       3.220  -1.735   0.386  0.00  0.00    +0.160 HD
ENDBRANCH   1  17
BRANCH   7  26
ATOM     26  C   UNL     1       7.435  -4.809  -1.525  0.00  0.00    +0.052 A 
ATOM     27  C   UNL     1       7.105  -4.411  -2.814  0.00  0.00    +0.029 A 
ATOM     28  C   UNL     1       7.580  -5.123  -3.898  0.00  0.00    +0.040 A 
ATOM     29  C   UNL     1       8.383  -6.234  -3.700  0.00  0.00    +0.124 A 
ATOM     30  C   UNL     1       8.712  -6.632  -2.415  0.00  0.00    +0.040 A 
ATOM     31  C   UNL     1       8.245  -5.919  -1.329  0.00  0.00    +0.029 A 
ATOM     32  F   UNL     1       8.846  -6.929  -4.762  0.00  0.00    -0.205 F 
ENDBRANCH   7  26
TORSDOF 2
