REMARK  Name = ZINC48289163
REMARK  6 active torsions:
REMARK  status: ('A' for Active; 'I' for Inactive)
REMARK    1  A    between atoms: C_3  and  N_24
REMARK    2  A    between atoms: C_6  and  C_7
REMARK    3  A    between atoms: C_7  and  N_8
REMARK    4  A    between atoms: C_9  and  C_11
REMARK    5  A    between atoms: C_12  and  S_16
REMARK    6  A    between atoms: S_16  and  N_19
REMARK                            x       y       z     vdW  Elec       q    Type
REMARK                         _______ _______ _______ _____ _____    ______ ____
ROOT
ATOM      1  N   UNL     1      -1.589  -1.267  -1.319  0.00  0.00    -0.307 N 
ATOM      2  C   UNL     1      -2.703  -1.992  -1.542  0.00  0.00    +0.253 C 
ATOM      3  O   UNL     1      -3.459  -2.244  -0.623  0.00  0.00    -0.270 OA
ATOM      4  H   UNL     1      -0.986  -1.066  -2.052  0.00  0.00    +0.149 HD
ENDROOT
BRANCH   2   5
ATOM      5  C   UNL     1      -3.003  -2.478  -2.892  0.00  0.00    +0.100 A 
ATOM      6  C   UNL     1      -4.085  -3.226  -3.332  0.00  0.00    +0.125 A 
ATOM      7  C   UNL     1      -4.093  -3.534  -4.671  0.00  0.00    +0.037 A 
ATOM      8  C   UNL     1      -3.074  -3.100  -5.453  0.00  0.00    +0.048 A 
ATOM      9  S   UNL     1      -2.076  -2.254  -4.399  0.00  0.00    -0.090 S 
BRANCH   6  10
ATOM     10  S   UNL     1      -5.367  -3.748  -2.242  0.00  0.00    +0.062 S 
ATOM     11  O   UNL     1      -5.764  -2.602  -1.503  0.00  0.00    -0.153 OA
ATOM     12  O   UNL     1      -6.281  -4.505  -3.024  0.00  0.00    -0.153 OA
BRANCH  10  13
ATOM     13  N   UNL     1      -4.689  -4.799  -1.157  0.00  0.00    -0.177 NA
ATOM     14  C   UNL     1      -4.580  -6.256  -1.328  0.00  0.00    +0.109 C 
ATOM     15  C   UNL     1      -3.906  -6.817  -0.058  0.00  0.00    +0.018 C 
ATOM     16  C   UNL     1      -4.184  -5.716   0.999  0.00  0.00    +0.018 C 
ATOM     17  C   UNL     1      -4.089  -4.429   0.138  0.00  0.00    +0.109 C 
ENDBRANCH  10  13
ENDBRANCH   6  10
ENDBRANCH   2   5
BRANCH   1  18
ATOM     18  C   UNL     1      -1.289  -0.781   0.030  0.00  0.00    +0.141 C 
BRANCH  18  24
ATOM     19  C   UNL     1      -0.008   1.364  -0.228  0.00  0.00    +0.010 A 
ATOM     20  C   UNL     1       1.199   2.041  -0.238  0.00  0.00    +0.042 A 
ATOM     21  C   UNL     1       2.374   1.332  -0.013  0.00  0.00    +0.099 A 
ATOM     22  N   UNL     1       2.342   0.027   0.208  0.00  0.00    -0.349 N 
ATOM     23  C   UNL     1       1.206  -0.644   0.224  0.00  0.00    +0.089 A 
ATOM     24  C   UNL     1       0.002  -0.004   0.009  0.00  0.00    -0.014 A 
ATOM     25  H   UNL     1       3.174  -0.448   0.363  0.00  0.00    +0.167 HD
BRANCH  21  26
ATOM     26  N   UNL     1       3.594   1.999  -0.022  0.00  0.00    -0.317 N 
ATOM     27  C   UNL     1       3.594   3.441  -0.119  0.00  0.00    +0.106 C 
ATOM     28  C   UNL     1       3.619   3.861  -1.610  0.00  0.00    +0.019 C 
ATOM     29  C   UNL     1       4.936   3.575  -2.199  0.00  0.00    +0.002 C 
ATOM     30  C   UNL     1       5.308   2.095  -2.217  0.00  0.00    +0.002 C 
ATOM     31  C   UNL     1       5.923   1.718  -0.892  0.00  0.00    +0.019 C 
ATOM     32  C   UNL     1       4.835   1.206   0.075  0.00  0.00    +0.106 C 
ENDBRANCH  21  26
ENDBRANCH  18  24
ENDBRANCH   1  18
TORSDOF 6
