REMARK  Name = ZINC14992208
REMARK  11 active torsions:
REMARK  status: ('A' for Active; 'I' for Inactive)
REMARK    1  A    between atoms: C_1  and  C_2
REMARK    2  A    between atoms: C_2  and  O_3
REMARK    3  A    between atoms: O_3  and  C_4
REMARK    4  A    between atoms: C_4  and  C_6
REMARK    5  A    between atoms: C_13  and  C_26
REMARK    6  A    between atoms: C_16  and  O_24
REMARK    7  A    between atoms: C_19  and  O_22
REMARK    8  A    between atoms: O_22  and  C_23
REMARK    9  A    between atoms: O_24  and  C_25
REMARK   10  A    between atoms: C_26  and  N_27
REMARK   11  A    between atoms: N_27  and  C_28
REMARK                            x       y       z     vdW  Elec       q    Type
REMARK                         _______ _______ _______ _____ _____    ______ ____
ROOT
ATOM      1  C   UNL     1       0.631   6.462  -0.611  0.00  0.00    +0.101 C 
ATOM      2  C   UNL     1       1.484   5.449  -1.380  0.00  0.00    +0.033 C 
ATOM      3  C   UNL     1       0.566   4.440  -2.074  0.00  0.00    +0.107 C 
ATOM      4  N   UNL     1      -0.256   3.752  -1.069  0.00  0.00    -0.315 N 
ATOM      5  C   UNL     1      -1.117   4.699  -0.350  0.00  0.00    +0.107 C 
ATOM      6  C   UNL     1      -0.250   5.716   0.395  0.00  0.00    +0.033 C 
ATOM      7  C   UNL     1      -1.005   2.739  -1.649  0.00  0.00    +0.123 A 
ATOM      8  C   UNL     1      -0.749   1.408  -1.293  0.00  0.00    -0.024 A 
ATOM      9  C   UNL     1      -1.481   0.403  -1.850  0.00  0.00    +0.018 A 
ATOM     10  C   UNL     1      -2.481   0.743  -2.782  0.00  0.00    +0.046 A 
ATOM     11  C   UNL     1      -3.274  -0.246  -3.395  0.00  0.00    +0.129 A 
ATOM     12  C   UNL     1      -4.242   0.125  -4.301  0.00  0.00    +0.050 A 
ATOM     13  C   UNL     1      -4.443   1.466  -4.616  0.00  0.00    +0.051 A 
ATOM     14  C   UNL     1      -3.689   2.446  -4.037  0.00  0.00    +0.146 A 
ATOM     15  C   UNL     1      -2.688   2.105  -3.105  0.00  0.00    +0.118 A 
ATOM     16  N   UNL     1      -1.938   3.050  -2.526  0.00  0.00    -0.228 NA
ENDROOT
BRANCH   1  17
ATOM     17  C   UNL     1       1.531   7.424   0.121  0.00  0.00    +0.310 C 
ATOM     18  O   UNL     1       2.731   7.312   0.038  0.00  0.00    -0.251 OA
BRANCH  17  19
ATOM     19  O   UNL     1       0.999   8.405   0.867  0.00  0.00    -0.465 OA
BRANCH  19  21
ATOM     20  C   UNL     1       1.140  10.340   2.339  0.00  0.00    +0.048 C 
ATOM     21  C   UNL     1       1.926   9.294   1.545  0.00  0.00    +0.229 C 
ENDBRANCH  19  21
ENDBRANCH  17  19
ENDBRANCH   1  17
BRANCH  14  22
ATOM     22  O   UNL     1      -3.903   3.750  -4.359  0.00  0.00    -0.493 OA
ATOM     23  C   UNL     1      -4.934   4.022  -5.310  0.00  0.00    +0.277 C 
ENDBRANCH  14  22
BRANCH  11  24
ATOM     24  O   UNL     1      -3.087  -1.558  -3.094  0.00  0.00    -0.494 OA
ATOM     25  C   UNL     1      -3.930  -2.503  -3.756  0.00  0.00    +0.277 C 
ENDBRANCH  11  24
BRANCH   8  26
ATOM     26  C   UNL     1       0.331   1.089  -0.291  0.00  0.00    -0.042 C 
BRANCH  26  27
ATOM     27  N   UNL     1      -0.161   1.369   1.065  0.00  0.00    +0.389 N 
ATOM     28  H   UNL     1      -0.356   2.447   1.168  0.00  0.00    -0.084 HD
ATOM     29  H   UNL     1      -1.091   0.810   1.240  0.00  0.00    -0.084 HD
BRANCH  27  30
ATOM     30  C   UNL     1       0.827   0.970   2.076  0.00  0.00    +0.016 C 
ATOM     31  C   UNL     1       0.601   1.771   3.360  0.00  0.00    -0.007 C 
ATOM     32  C   UNL     1      -0.878   2.034   3.577  0.00  0.00    +0.000 C 
ATOM     33  C   UNL     1      -1.687   0.783   3.864  0.00  0.00    +0.019 C 
ATOM     34  C   UNL     1      -1.731  -0.132   2.638  0.00  0.00    +0.104 C 
ATOM     35  N   UNL     1      -0.544  -1.002   2.657  0.00  0.00    -0.317 N 
ATOM     36  C   UNL     1       0.664  -0.502   2.393  0.00  0.00    +0.199 C 
ATOM     37  O   UNL     1       1.635  -1.229   2.406  0.00  0.00    -0.278 OA
ATOM     38  H   UNL     1      -0.649  -2.071   2.890  0.00  0.00    +0.149 HD
ENDBRANCH  27  30
ENDBRANCH  26  27
ENDBRANCH   8  26
TORSDOF 8
