REMARK  Name = ZINC22472526
REMARK  8 active torsions:
REMARK  status: ('A' for Active; 'I' for Inactive)
REMARK    1  A    between atoms: C_1  and  C_2
REMARK    2  A    between atoms: C_5  and  O_8
REMARK    3  A    between atoms: O_8  and  C_9
REMARK    4  A    between atoms: C_9  and  C_10
REMARK    5  A    between atoms: N_15  and  C_18
REMARK    6  A    between atoms: C_18  and  C_19
REMARK    7  A    between atoms: C_19  and  N_20
REMARK    8  A    between atoms: C_23  and  O_24
REMARK                            x       y       z     vdW  Elec       q    Type
REMARK                         _______ _______ _______ _____ _____    ______ ____
ROOT
ATOM      1  C   UNL     1      -8.636   0.785  -1.403  0.00  0.00    +0.253 C 
ATOM      2  O   UNL     1      -9.565   1.487  -1.063  0.00  0.00    -0.272 OA
ATOM      3  N   UNL     1      -7.479   0.817  -0.712  0.00  0.00    -0.296 N 
ATOM      4  C   UNL     1      -7.322   1.696   0.457  0.00  0.00    +0.123 C 
ATOM      5  C   UNL     1      -6.038   2.514   0.283  0.00  0.00    +0.103 C 
ATOM      6  N   UNL     1      -4.912   1.604   0.034  0.00  0.00    -0.298 NA
ATOM      7  C   UNL     1      -5.095   0.859  -1.219  0.00  0.00    +0.103 C 
ATOM      8  C   UNL     1      -6.341  -0.026  -1.106  0.00  0.00    +0.123 C 
ENDROOT
BRANCH   1   9
ATOM      9  C   UNL     1      -8.775  -0.123  -2.598  0.00  0.00    +0.324 C 
BRANCH   9  10
ATOM     10  O   UNL     1     -10.082   0.022  -3.156  0.00  0.00    -0.483 OA
BRANCH  10  15
ATOM     11  C   UNL     1     -11.289  -3.106  -7.682  0.00  0.00    +0.044 C 
ATOM     12  C   UNL     1     -10.966  -2.269  -6.471  0.00  0.00    -0.050 A 
ATOM     13  C   UNL     1     -11.917  -1.410  -5.952  0.00  0.00    +0.007 A 
ATOM     14  C   UNL     1     -11.624  -0.642  -4.842  0.00  0.00    +0.046 A 
ATOM     15  C   UNL     1     -10.373  -0.733  -4.248  0.00  0.00    +0.121 A 
ATOM     16  C   UNL     1      -9.418  -1.591  -4.775  0.00  0.00    +0.046 A 
ATOM     17  C   UNL     1      -9.719  -2.361  -5.881  0.00  0.00    +0.007 A 
ENDBRANCH  10  15
ENDBRANCH   9  10
ENDBRANCH   1   9
BRANCH   6  18
ATOM     18  C   UNL     1      -3.637   2.333   0.032  0.00  0.00    +0.105 C 
BRANCH  18  19
ATOM     19  C   UNL     1      -2.478   1.334   0.021  0.00  0.00    +0.128 C 
BRANCH  19  20
ATOM     20  N   UNL     1      -1.206   2.061   0.019  0.00  0.00    -0.382 N 
ATOM     21  C   UNL     1      -0.017   1.367   0.010  0.00  0.00    +0.053 A 
ATOM     22  C   UNL     1       0.002  -0.004   0.002  0.00  0.00    +0.113 A 
ATOM     23  C   UNL     1       1.228  -0.681  -0.013  0.00  0.00    +0.286 A 
ATOM     24  O   UNL     1       2.400  -0.026  -0.021  0.00  0.00    -0.425 OA
ATOM     25  C   UNL     1       2.460   1.323  -0.014  0.00  0.00    +0.141 A 
ATOM     26  C   UNL     1       1.275   2.075   0.001  0.00  0.00    +0.041 A 
ATOM     27  C   UNL     1       1.332   3.469   0.007  0.00  0.00    +0.013 A 
ATOM     28  C   UNL     1       2.556   4.101  -0.001  0.00  0.00    +0.001 A 
ATOM     29  C   UNL     1       3.727   3.357  -0.017  0.00  0.00    +0.004 A 
ATOM     30  C   UNL     1       3.684   1.979  -0.022  0.00  0.00    +0.047 A 
ATOM     31  H   UNL     1      -1.202   3.161   0.025  0.00  0.00    +0.160 HD
BRANCH  23  32
ATOM     32  O   UNL     1       1.231  -1.900  -0.020  0.00  0.00    -0.480 OA
ATOM     33  H   UNL     1       2.185  -2.448  -0.032  0.00  0.00    +0.295 HD
ENDBRANCH  23  32
ENDBRANCH  19  20
ENDBRANCH  18  19
ENDBRANCH   6  18
TORSDOF 7
