REMARK  Name = ZINC23410518
REMARK  6 active torsions:
REMARK  status: ('A' for Active; 'I' for Inactive)
REMARK    1  A    between atoms: C_3  and  S_23
REMARK    2  A    between atoms: C_6  and  C_7
REMARK    3  A    between atoms: C_10  and  C_12
REMARK    4  A    between atoms: C_13  and  C_14
REMARK    5  A    between atoms: C_13  and  C_16
REMARK    6  A    between atoms: S_23  and  N_26
REMARK                            x       y       z     vdW  Elec       q    Type
REMARK                         _______ _______ _______ _____ _____    ______ ____
ROOT
ATOM      1  C   UNL     1      -3.118   3.065   4.884  0.00  0.00    +0.136 A 
ATOM      2  C   UNL     1      -3.006   4.263   5.531  0.00  0.00    +0.050 A 
ATOM      3  C   UNL     1      -3.898   4.236   6.606  0.00  0.00    +0.050 A 
ATOM      4  C   UNL     1      -4.527   3.004   6.571  0.00  0.00    +0.130 A 
ATOM      5  O   UNL     1      -4.040   2.316   5.516  0.00  0.00    -0.455 OA
ENDROOT
BRANCH   1  11
ATOM      6  C   UNL     1      -2.562   1.401   3.117  0.00  0.00    +0.013 A 
ATOM      7  C   UNL     1      -1.846   1.029   1.998  0.00  0.00    +0.029 A 
ATOM      8  C   UNL     1      -0.927   1.900   1.439  0.00  0.00    +0.105 A 
ATOM      9  C   UNL     1      -0.714   3.147   2.002  0.00  0.00    +0.029 A 
ATOM     10  C   UNL     1      -1.426   3.534   3.118  0.00  0.00    +0.013 A 
ATOM     11  C   UNL     1      -2.356   2.660   3.687  0.00  0.00    +0.017 A 
BRANCH   8  12
ATOM     12  S   UNL     1      -0.017   1.417   0.010  0.00  0.00    +0.056 S 
ATOM     13  O   UNL     1       0.002  -0.004   0.002  0.00  0.00    -0.153 OA
ATOM     14  O   UNL     1       1.172   2.195   0.003  0.00  0.00    -0.153 OA
BRANCH  12  15
ATOM     15  N   UNL     1      -0.897   1.885  -1.312  0.00  0.00    -0.204 NA
ATOM     16  H   UNL     1      -0.361   1.601  -2.229  0.00  0.00    +0.144 HD
ATOM     17  H   UNL     1      -1.036   2.977  -1.292  0.00  0.00    +0.144 HD
ENDBRANCH  12  15
ENDBRANCH   8  12
ENDBRANCH   1  11
BRANCH   4  18
ATOM     18  C   UNL     1      -5.509   2.548   7.476  0.00  0.00    +0.065 C 
ATOM     19  C   UNL     1      -6.055   1.292   7.325  0.00  0.00    +0.062 C 
BRANCH  19  20
ATOM     20  C   UNL     1      -5.611   0.421   6.213  0.00  0.00    -0.007 A 
ATOM     21  C   UNL     1      -5.868   0.786   4.891  0.00  0.00    +0.010 A 
ATOM     22  C   UNL     1      -5.446  -0.026   3.860  0.00  0.00    +0.020 A 
ATOM     23  C   UNL     1      -4.781  -1.209   4.134  0.00  0.00    +0.041 A 
ATOM     24  C   UNL     1      -4.529  -1.581   5.444  0.00  0.00    +0.020 A 
ATOM     25  C   UNL     1      -4.940  -0.773   6.484  0.00  0.00    +0.010 A 
ATOM     26 CL   UNL     1      -4.260  -2.231   2.831  0.00  0.00    -0.084 Cl
ENDBRANCH  19  20
BRANCH  19  27
ATOM     27  C   UNL     1      -7.052   0.829   8.243  0.00  0.00    +0.100 C 
ATOM     28  N   UNL     1      -7.843   0.463   8.971  0.00  0.00    -0.191 NA
ENDBRANCH  19  27
ENDBRANCH   4  18
TORSDOF 6
