REMARK  Name = ZINC38707546
REMARK  10 active torsions:
REMARK  status: ('A' for Active; 'I' for Inactive)
REMARK    1  A    between atoms: C_1  and  C_2
REMARK    2  A    between atoms: C_2  and  C_3
REMARK    3  A    between atoms: C_2  and  C_4
REMARK    4  A    between atoms: C_4  and  C_5
REMARK    5  A    between atoms: C_5  and  N_6
REMARK    6  A    between atoms: C_10  and  N_20
REMARK    7  A    between atoms: C_15  and  C_18
REMARK    8  A    between atoms: C_15  and  C_19
REMARK    9  A    between atoms: C_21  and  C_23
REMARK   10  A    between atoms: C_23  and  N_24
REMARK                            x       y       z     vdW  Elec       q    Type
REMARK                         _______ _______ _______ _____ _____    ______ ____
ROOT
ATOM      1  N   UNL     1       0.962  -0.547   3.775  0.00  0.00    -0.268 N 
ATOM      2  C   UNL     1       0.790  -1.813   4.355  0.00  0.00    +0.078 A 
ATOM      3  C   UNL     1       0.552  -2.925   3.563  0.00  0.00    +0.029 A 
ATOM      4  C   UNL     1       0.381  -4.165   4.148  0.00  0.00    +0.025 A 
ATOM      5  C   UNL     1       0.446  -4.298   5.528  0.00  0.00    +0.037 A 
ATOM      6  C   UNL     1       0.685  -3.187   6.325  0.00  0.00    +0.070 A 
ATOM      7  C   UNL     1       0.860  -1.945   5.741  0.00  0.00    +0.144 A 
ATOM      8  O   UNL     1       1.108  -0.852   6.510  0.00  0.00    -0.489 OA
ATOM      9  C   UNL     1       2.446  -0.359   6.530  0.00  0.00    +0.244 C 
ATOM     10  C   UNL     1       3.028  -0.338   5.118  0.00  0.00    +0.076 C 
ATOM     11  C   UNL     1       2.017   0.212   4.145  0.00  0.00    +0.229 C 
ATOM     12  O   UNL     1       2.148   1.333   3.700  0.00  0.00    -0.275 OA
ATOM     13  C   UNL     1       3.404  -1.761   4.703  0.00  0.00    +0.024 C 
ATOM     14  C   UNL     1       4.280   0.541   5.099  0.00  0.00    +0.024 C 
ENDROOT
BRANCH   5  15
ATOM     15  N   UNL     1       0.269  -5.556   6.118  0.00  0.00    -0.284 N 
ATOM     16  C   UNL     1      -0.318  -5.657   7.327  0.00  0.00    +0.237 C 
ATOM     17  O   UNL     1      -0.776  -4.670   7.863  0.00  0.00    -0.274 OA
ATOM     18  H   UNL     1       0.568  -6.355   5.656  0.00  0.00    +0.155 HD
BRANCH  16  19
ATOM     19  C   UNL     1      -0.405  -6.996   8.014  0.00  0.00    +0.224 C 
BRANCH  19  20
ATOM     20  N   UNL     1      -1.081  -6.841   9.304  0.00  0.00    -0.265 N 
ATOM     21  C   UNL     1      -0.471  -6.558  10.526  0.00  0.00    +0.091 A 
ATOM     22  C   UNL     1       0.845  -6.347  10.907  0.00  0.00    +0.030 A 
ATOM     23  C   UNL     1       1.143  -6.080  12.229  0.00  0.00    +0.002 A 
ATOM     24  C   UNL     1       0.132  -6.024  13.172  0.00  0.00    +0.004 A 
ATOM     25  C   UNL     1      -1.182  -6.232  12.800  0.00  0.00    +0.048 A 
ATOM     26  C   UNL     1      -1.491  -6.500  11.476  0.00  0.00    +0.157 A 
ATOM     27  O   UNL     1      -2.658  -6.742  10.829  0.00  0.00    -0.407 OA
ATOM     28  C   UNL     1      -2.407  -6.940   9.526  0.00  0.00    +0.422 A 
ATOM     29  O   UNL     1      -3.245  -7.176   8.677  0.00  0.00    -0.223 OA
ENDBRANCH  19  20
ENDBRANCH  16  19
ENDBRANCH   5  15
BRANCH   1  30
ATOM     30  C   UNL     1       0.012  -0.056   2.774  0.00  0.00    +0.114 C 
BRANCH  30  31
ATOM     31  C   UNL     1       0.476  -0.480   1.379  0.00  0.00    +0.022 C 
BRANCH  31  33
ATOM     32  C   UNL     1      -0.497   1.563   0.319  0.00  0.00    +0.007 C 
ATOM     33  C   UNL     1      -0.516   0.033   0.334  0.00  0.00    -0.016 C 
ATOM     34  C   UNL     1      -0.121  -0.495  -1.047  0.00  0.00    +0.007 C 
ENDBRANCH  31  33
ENDBRANCH  30  31
ENDBRANCH   1  30
TORSDOF 6
