REMARK  Name = ZINC02861987
REMARK  11 active torsions:
REMARK  status: ('A' for Active; 'I' for Inactive)
REMARK    1  A    between atoms: C_1  and  C_2
REMARK    2  A    between atoms: C_5  and  N_8
REMARK    3  A    between atoms: C_9  and  C_11
REMARK    4  A    between atoms: C_12  and  C_40
REMARK    5  A    between atoms: C_16  and  C_18
REMARK    6  A    between atoms: C_21  and  C_23
REMARK    7  A    between atoms: C_27  and  C_30
REMARK    8  A    between atoms: C_33  and  O_38
REMARK    9  A    between atoms: C_34  and  O_36
REMARK   10  A    between atoms: O_36  and  C_37
REMARK   11  A    between atoms: O_38  and  C_39
REMARK                            x       y       z     vdW  Elec       q    Type
REMARK                         _______ _______ _______ _____ _____    ______ ____
ROOT
ATOM      1  C   UNL     1       2.275  -4.091  -0.160  0.00  0.00    +0.046 C 
ATOM      2  C   UNL     1       3.410  -4.808  -0.172  0.00  0.00    +0.014 C 
ATOM      3  N   UNL     1       3.372  -6.168  -0.023  0.00  0.00    -0.321 N 
ATOM      4  C   UNL     1       2.277  -6.778   0.527  0.00  0.00    +0.016 C 
ATOM      5  C   UNL     1       1.087  -6.142   0.569  0.00  0.00    +0.027 C 
ATOM      6  C   UNL     1       0.938  -4.750   0.013  0.00  0.00    +0.126 C 
ATOM      7  C   UNL     1      -0.045  -6.757   1.131  0.00  0.00    +0.162 C 
ATOM      8  O   UNL     1      -1.097  -6.150   1.169  0.00  0.00    -0.292 OA
ATOM      9  C   UNL     1       0.023  -8.153   1.688  0.00  0.00    +0.088 C 
ATOM     10  C   UNL     1       1.115  -8.932   0.948  0.00  0.00    +0.032 C 
ATOM     11  C   UNL     1       2.434  -8.170   1.087  0.00  0.00    +0.059 C 
ATOM     12  C   UNL     1       4.734  -4.112  -0.351  0.00  0.00    +0.061 C 
ATOM     13  H   UNL     1       4.226  -6.780  -0.347  0.00  0.00    +0.152 HD
ENDROOT
BRANCH   6  14
ATOM     14  C   UNL     1       0.098  -3.926   0.954  0.00  0.00    +0.117 A 
ATOM     15  C   UNL     1      -1.078  -3.345   0.655  0.00  0.00    +0.046 A 
ATOM     16  C   UNL     1      -1.514  -2.679   1.824  0.00  0.00    +0.044 A 
ATOM     17  C   UNL     1      -0.576  -2.887   2.764  0.00  0.00    +0.102 A 
ATOM     18  O   UNL     1       0.399  -3.643   2.232  0.00  0.00    -0.464 OA
ATOM     19  C   UNL     1      -0.611  -2.360   4.176  0.00  0.00    +0.086 C 
ENDBRANCH   6  14
BRANCH  10  20
ATOM     20  C   UNL     1       1.258 -10.307   1.548  0.00  0.00    -0.040 A 
ATOM     21  C   UNL     1       1.582 -10.445   2.885  0.00  0.00    +0.008 A 
ATOM     22  C   UNL     1       1.714 -11.704   3.441  0.00  0.00    +0.049 A 
ATOM     23  C   UNL     1       1.522 -12.831   2.658  0.00  0.00    +0.161 A 
ATOM     24  C   UNL     1       1.195 -12.692   1.313  0.00  0.00    +0.162 A 
ATOM     25  C   UNL     1       1.059 -11.427   0.763  0.00  0.00    +0.053 A 
BRANCH  24  26
ATOM     26  O   UNL     1       1.005 -13.795   0.540  0.00  0.00    -0.491 OA
ATOM     27  C   UNL     1       0.672 -13.576  -0.832  0.00  0.00    +0.277 C 
ENDBRANCH  24  26
BRANCH  23  28
ATOM     28  O   UNL     1       1.652 -14.070   3.204  0.00  0.00    -0.491 OA
ATOM     29  C   UNL     1       1.989 -14.136   4.591  0.00  0.00    +0.277 C 
ENDBRANCH  23  28
ENDBRANCH  10  20
BRANCH   1  31
ATOM     30  N   UNL     1       2.648  -1.908   0.751  0.00  0.00    -0.282 N 
ATOM     31  C   UNL     1       2.341  -2.683  -0.308  0.00  0.00    +0.247 C 
ATOM     32  O   UNL     1       2.121  -2.174  -1.392  0.00  0.00    -0.270 OA
ATOM     33  H   UNL     1       2.983  -2.370   1.692  0.00  0.00    +0.155 HD
BRANCH  30  38
ATOM     34  C   UNL     1       2.209   3.733   0.359  0.00  0.00    +0.044 C 
ATOM     35  C   UNL     1       2.325   2.235   0.464  0.00  0.00    -0.050 A 
ATOM     36  C   UNL     1       2.082   1.606   1.671  0.00  0.00    +0.005 A 
ATOM     37  C   UNL     1       2.187   0.232   1.770  0.00  0.00    +0.023 A 
ATOM     38  C   UNL     1       2.539  -0.517   0.654  0.00  0.00    +0.034 A 
ATOM     39  C   UNL     1       2.783   0.117  -0.557  0.00  0.00    +0.023 A 
ATOM     40  C   UNL     1       2.676   1.491  -0.648  0.00  0.00    +0.005 A 
ENDBRANCH  30  38
ENDBRANCH   1  31
TORSDOF 6
