REMARK  Name = ZINC39662438
REMARK  9 active torsions:
REMARK  status: ('A' for Active; 'I' for Inactive)
REMARK    1  A    between atoms: C_1  and  C_2
REMARK    2  A    between atoms: C_3  and  C_12
REMARK    3  A    between atoms: C_7  and  O_8
REMARK    4  A    between atoms: O_8  and  C_9
REMARK    5  A    between atoms: C_9  and  C_11
REMARK    6  A    between atoms: C_16  and  C_25
REMARK    7  A    between atoms: N_27  and  C_28
REMARK    8  A    between atoms: C_28  and  C_30
REMARK    9  A    between atoms: C_28  and  C_32
REMARK                            x       y       z     vdW  Elec       q    Type
REMARK                         _______ _______ _______ _____ _____    ______ ____
ROOT
ATOM      1  C   UNL     1      -0.172  -0.062  -2.710  0.00  0.00    +0.247 C 
ATOM      2  O   UNL     1      -0.098   1.144  -2.845  0.00  0.00    -0.270 OA
ATOM      3  N   UNL     1      -0.398  -0.847  -3.782  0.00  0.00    -0.296 N 
ATOM      4  C   UNL     1      -0.643  -2.308  -3.801  0.00  0.00    +0.121 C 
ATOM      5  C   UNL     1      -1.736  -2.507  -4.875  0.00  0.00    +0.100 C 
ATOM      6  C   UNL     1      -1.609  -1.281  -5.796  0.00  0.00    -0.004 C 
ATOM      7  C   UNL     1      -0.465  -0.443  -5.207  0.00  0.00    +0.115 C 
ATOM      8  C   UNL     1      -2.904  -0.475  -5.786  0.00  0.00    -0.010 C 
ATOM      9  C   UNL     1      -2.773   0.706  -6.752  0.00  0.00    -0.082 C 
ATOM     10  N   UNL     1      -2.495   0.206  -8.103  0.00  0.00    +0.379 N 
ATOM     11  C   UNL     1      -1.202  -0.488  -8.124  0.00  0.00    -0.082 C 
ATOM     12  C   UNL     1      -1.266  -1.720  -7.216  0.00  0.00    -0.010 C 
ATOM     13  H   UNL     1      -3.223  -0.435  -8.380  0.00  0.00    -0.086 HD
ATOM     14  H   UNL     1      -2.469   0.981  -8.748  0.00  0.00    -0.086 HD
ENDROOT
BRANCH   1  17
ATOM     15  C   UNL     1      -1.192   1.324  -0.384  0.00  0.00    +0.048 C 
ATOM     16  C   UNL     1      -0.500  -0.008  -0.242  0.00  0.00    +0.004 A 
ATOM     17  C   UNL     1      -0.012  -0.667  -1.371  0.00  0.00    +0.043 A 
ATOM     18  C   UNL     1       0.628  -1.899  -1.231  0.00  0.00    +0.013 A 
ATOM     19  C   UNL     1       0.774  -2.462   0.021  0.00  0.00    +0.004 A 
ATOM     20  C   UNL     1       0.290  -1.808   1.138  0.00  0.00    +0.047 A 
ATOM     21  C   UNL     1      -0.343  -0.579   1.010  0.00  0.00    +0.135 A 
BRANCH  21  22
ATOM     22  O   UNL     1      -0.813   0.063   2.112  0.00  0.00    -0.426 OA
BRANCH  22  23
ATOM     23  C   UNL     1      -0.108   1.104   2.584  0.00  0.00    +0.309 C 
ATOM     24  O   UNL     1       0.956   1.387   2.088  0.00  0.00    -0.251 OA
ATOM     25  C   UNL     1      -0.646   1.919   3.732  0.00  0.00    +0.136 C 
ENDBRANCH  22  23
ENDBRANCH  21  22
ENDBRANCH   1  17
BRANCH   5  26
ATOM     26  C   UNL     1      -1.487  -3.775  -5.650  0.00  0.00    +0.219 C 
ATOM     27  O   UNL     1      -0.364  -4.225  -5.732  0.00  0.00    -0.275 OA
ATOM     28  N   UNL     1      -2.513  -4.410  -6.251  0.00  0.00    -0.296 N 
ATOM     29  H   UNL     1      -3.411  -4.051  -6.185  0.00  0.00    +0.150 HD
BRANCH  28  30
ATOM     30  C   UNL     1      -2.271  -5.644  -7.003  0.00  0.00    +0.207 C 
BRANCH  30  31
ATOM     31  C   UNL     1      -3.350  -5.819  -8.041  0.00  0.00    -0.013 A 
ATOM     32  C   UNL     1      -4.661  -5.506  -7.734  0.00  0.00    +0.006 A 
ATOM     33  C   UNL     1      -5.650  -5.667  -8.686  0.00  0.00    +0.000 A 
ATOM     34  C   UNL     1      -5.329  -6.140  -9.944  0.00  0.00    +0.000 A 
ATOM     35  C   UNL     1      -4.017  -6.452 -10.251  0.00  0.00    +0.000 A 
ATOM     36  C   UNL     1      -3.027  -6.287  -9.301  0.00  0.00    +0.006 A 
ENDBRANCH  30  31
BRANCH  30  37
ATOM     37  C   UNL     1      -2.285  -6.792  -6.082  0.00  0.00    +0.090 C 
ATOM     38  N   UNL     1      -2.296  -7.677  -5.371  0.00  0.00    -0.194 NA
ENDBRANCH  30  37
ENDBRANCH  28  30
ENDBRANCH   5  26
TORSDOF 7
