REMARK  Name = ZINC12481544
REMARK  13 active torsions:
REMARK  status: ('A' for Active; 'I' for Inactive)
REMARK    1  A    between atoms: C_1  and  C_2
REMARK    2  A    between atoms: C_7  and  N_8
REMARK    3  A    between atoms: C_13  and  N_64
REMARK    4  A    between atoms: C_16  and  C_18
REMARK    5  A    between atoms: C_16  and  C_19
REMARK    6  A    between atoms: C_20  and  C_21
REMARK    7  A    between atoms: C_20  and  N_64
REMARK    8  A    between atoms: C_24  and  O_31
REMARK    9  A    between atoms: C_25  and  O_29
REMARK   10  A    between atoms: C_26  and  O_27
REMARK   11  A    between atoms: O_27  and  C_28
REMARK   12  A    between atoms: O_29  and  C_30
REMARK   13  A    between atoms: O_31  and  C_32
REMARK                            x       y       z     vdW  Elec       q    Type
REMARK                         _______ _______ _______ _____ _____    ______ ____
ROOT
ATOM      1  N   UNL     1       1.354   1.413   2.329  0.00  0.00    -0.236 N 
ATOM      2  C   UNL     1       2.189   1.408   3.385  0.00  0.00    +0.047 A 
ATOM      3  C   UNL     1       3.423   1.061   2.937  0.00  0.00    -0.020 A 
ATOM      4  C   UNL     1       3.339   0.854   1.561  0.00  0.00    +0.137 A 
ATOM      5  N   UNL     1       2.099   1.064   1.192  0.00  0.00    -0.174 NA
ATOM      6  C   UNL     1       4.640   0.942   3.820  0.00  0.00    -0.037 C 
ATOM      7  C   UNL     1       4.346   1.652   5.147  0.00  0.00    -0.005 C 
ATOM      8  C   UNL     1       3.005   1.166   5.701  0.00  0.00    -0.031 C 
ATOM      9  C   UNL     1       1.865   1.704   4.827  0.00  0.00    +0.062 C 
ATOM     10  C   UNL     1       2.974  -0.363   5.695  0.00  0.00    +0.011 C 
ATOM     11  C   UNL     1       2.831   1.673   7.134  0.00  0.00    +0.011 C 
ENDROOT
BRANCH   1  18
ATOM     12  C   UNL     1       0.352   3.290   0.439  0.00  0.00    +0.046 C 
ATOM     13  C   UNL     1      -0.543   2.628   1.454  0.00  0.00    -0.025 A 
ATOM     14  C   UNL     1      -1.891   2.930   1.490  0.00  0.00    +0.005 A 
ATOM     15  C   UNL     1      -2.714   2.319   2.418  0.00  0.00    +0.000 A 
ATOM     16  C   UNL     1      -2.189   1.412   3.320  0.00  0.00    +0.002 A 
ATOM     17  C   UNL     1      -0.842   1.109   3.293  0.00  0.00    +0.028 A 
ATOM     18  C   UNL     1      -0.014   1.717   2.358  0.00  0.00    +0.069 A 
ENDBRANCH   1  18
BRANCH   6  19
ATOM     19  N   UNL     1       5.795   1.585   3.164  0.00  0.00    +0.386 N 
ATOM     20  H   UNL     1       6.469   1.880   3.880  0.00  0.00    -0.085 HD
ATOM     21  H   UNL     1       5.472   2.405   2.638  0.00  0.00    -0.085 HD
BRANCH  19  22
ATOM     22  C   UNL     1       6.450   0.640   2.240  0.00  0.00    -0.042 C 
BRANCH  22  23
ATOM     23  C   UNL     1       7.623   1.323   1.586  0.00  0.00    -0.019 A 
ATOM     24  C   UNL     1       7.501   1.832   0.306  0.00  0.00    +0.009 A 
ATOM     25  C   UNL     1       8.574   2.459  -0.298  0.00  0.00    +0.050 A 
ATOM     26  C   UNL     1       9.779   2.581   0.379  0.00  0.00    +0.165 A 
ATOM     27  C   UNL     1       9.906   2.071   1.665  0.00  0.00    +0.204 A 
ATOM     28  C   UNL     1       8.822   1.446   2.271  0.00  0.00    +0.166 A 
BRANCH  28  29
ATOM     29  O   UNL     1       8.940   0.951   3.532  0.00  0.00    -0.491 OA
ATOM     30  C   UNL     1       9.381  -0.402   3.660  0.00  0.00    +0.277 C 
ENDBRANCH  28  29
BRANCH  27  31
ATOM     31  O   UNL     1      11.087   2.188   2.332  0.00  0.00    -0.488 OA
ATOM     32  C   UNL     1      11.268   3.360   3.130  0.00  0.00    +0.277 C 
ENDBRANCH  27  31
BRANCH  26  33
ATOM     33  O   UNL     1      10.835   3.197  -0.217  0.00  0.00    -0.491 OA
ATOM     34  C   UNL     1      10.633   3.697  -1.540  0.00  0.00    +0.277 C 
ENDBRANCH  26  33
ENDBRANCH  22  23
ENDBRANCH  19  22
ENDBRANCH   6  19
TORSDOF 7
