REMARK  Name = ZINC13336233
REMARK  9 active torsions:
REMARK  status: ('A' for Active; 'I' for Inactive)
REMARK    1  A    between atoms: C_1  and  C_2
REMARK    2  A    between atoms: C_2  and  C_4
REMARK    3  A    between atoms: C_2  and  N_6
REMARK    4  A    between atoms: C_16  and  S_17
REMARK    5  A    between atoms: S_17  and  C_18
REMARK    6  A    between atoms: C_18  and  C_19
REMARK    7  A    between atoms: N_21  and  C_22
REMARK    8  A    between atoms: N_21  and  C_23
REMARK    9  A    between atoms: C_23  and  C_24
REMARK                            x       y       z     vdW  Elec       q    Type
REMARK                         _______ _______ _______ _____ _____    ______ ____
ROOT
ATOM      1  S   UNL     1       3.478  -3.891  -4.071  0.00  0.00    -0.078 S 
ENDROOT
BRANCH   1  12
ATOM      2  N   UNL     1       3.813  -4.987  -6.511  0.00  0.00    -0.273 N 
ATOM      3  C   UNL     1       4.269  -5.043  -7.784  0.00  0.00    +0.263 A 
ATOM      4  O   UNL     1       4.014  -5.990  -8.505  0.00  0.00    -0.267 OA
ATOM      5  C   UNL     1       5.088  -3.920  -8.262  0.00  0.00    +0.065 A 
ATOM      6  C   UNL     1       5.608  -3.886  -9.554  0.00  0.00    +0.015 A 
ATOM      7  C   UNL     1       6.364  -2.817  -9.948  0.00  0.00    +0.001 A 
ATOM      8  C   UNL     1       6.617  -1.766  -9.075  0.00  0.00    +0.002 A 
ATOM      9  C   UNL     1       6.120  -1.774  -7.802  0.00  0.00    +0.028 A 
ATOM     10  C   UNL     1       5.343  -2.854  -7.370  0.00  0.00    +0.079 A 
ATOM     11  N   UNL     1       4.833  -2.902  -6.123  0.00  0.00    -0.223 NA
ATOM     12  C   UNL     1       4.105  -3.914  -5.718  0.00  0.00    +0.173 A 
BRANCH   2  14
ATOM     13  C   UNL     1       3.798  -7.384  -6.028  0.00  0.00    +0.043 C 
ATOM     14  C   UNL     1       2.997  -6.082  -5.981  0.00  0.00    +0.202 C 
BRANCH  14  15
ATOM     15  C   UNL     1       1.751  -6.229  -6.816  0.00  0.00    +0.378 C 
ATOM     16  O   UNL     1       1.564  -5.494  -7.757  0.00  0.00    -0.244 OA
ATOM     17  O   UNL     1       0.849  -7.176  -6.515  0.00  0.00    -0.244 OA
ENDBRANCH  14  15
ENDBRANCH   2  14
ENDBRANCH   1  12
BRANCH   1  18
ATOM     18  C   UNL     1       4.150  -2.310  -3.501  0.00  0.00    +0.173 C 
BRANCH  18  19
ATOM     19  C   UNL     1       3.730  -2.072  -2.073  0.00  0.00    +0.226 C 
ATOM     20  O   UNL     1       3.045  -2.890  -1.498  0.00  0.00    -0.275 OA
ATOM     21  N   UNL     1       4.117  -0.949  -1.436  0.00  0.00    -0.300 N 
ATOM     22  C   UNL     1       4.945   0.040  -2.131  0.00  0.00    +0.132 C 
BRANCH  21  23
ATOM     23  C   UNL     1       3.709  -0.717  -0.048  0.00  0.00    +0.142 C 
BRANCH  23  24
ATOM     24  C   UNL     1       2.397   0.024  -0.027  0.00  0.00    -0.026 A 
ATOM     25  C   UNL     1       1.207  -0.680  -0.016  0.00  0.00    +0.009 A 
ATOM     26  C   UNL     1       0.002  -0.004   0.002  0.00  0.00    +0.050 A 
ATOM     27  C   UNL     1      -0.017   1.383   0.010  0.00  0.00    +0.162 A 
ATOM     28  C   UNL     1       1.179   2.090   0.002  0.00  0.00    +0.162 A 
ATOM     29  C   UNL     1       2.385   1.406  -0.018  0.00  0.00    +0.054 A 
ATOM     30  O   UNL     1       1.184   3.451   0.018  0.00  0.00    -0.485 OA
ATOM     31  C   UNL     1      -0.040   4.103  -0.340  0.00  0.00    +0.270 C 
ATOM     32  C   UNL     1      -1.189   3.413   0.408  0.00  0.00    +0.270 C 
ATOM     33  O   UNL     1      -1.212   2.035   0.019  0.00  0.00    -0.485 OA
ENDBRANCH  23  24
ENDBRANCH  21  23
ENDBRANCH  18  19
ENDBRANCH   1  18
TORSDOF 7
