REMARK  Name = ZINC12954254
REMARK  12 active torsions:
REMARK  status: ('A' for Active; 'I' for Inactive)
REMARK    1  A    between atoms: C_1  and  C_2
REMARK    2  A    between atoms: C_5  and  C_35
REMARK    3  A    between atoms: C_6  and  C_8
REMARK    4  A    between atoms: C_8  and  S_9
REMARK    5  A    between atoms: S_9  and  C_10
REMARK    6  A    between atoms: C_14  and  O_33
REMARK    7  A    between atoms: C_15  and  O_31
REMARK    8  A    between atoms: N_19  and  C_20
REMARK    9  A    between atoms: C_20  and  C_21
REMARK   10  A    between atoms: C_25  and  C_27
REMARK   11  A    between atoms: O_31  and  C_32
REMARK   12  A    between atoms: O_33  and  C_34
REMARK                            x       y       z     vdW  Elec       q    Type
REMARK                         _______ _______ _______ _____ _____    ______ ____
ROOT
ATOM      1  C   UNL     1       2.358   1.056  -4.162  0.00  0.00    +0.171 A 
ATOM      2  N   UNL     1       1.050   1.052  -4.166  0.00  0.00    -0.223 NA
ATOM      3  C   UNL     1       0.331   1.630  -5.161  0.00  0.00    +0.081 A 
ATOM      4  C   UNL     1      -1.065   1.614  -5.147  0.00  0.00    +0.078 A 
ATOM      5  C   UNL     1      -1.768   2.212  -6.176  0.00  0.00    +0.164 A 
ATOM      6  C   UNL     1      -1.095   2.833  -7.231  0.00  0.00    +0.162 A 
ATOM      7  C   UNL     1       0.285   2.858  -7.260  0.00  0.00    +0.063 A 
ATOM      8  C   UNL     1       1.006   2.259  -6.229  0.00  0.00    +0.044 A 
ATOM      9  C   UNL     1       2.480   2.259  -6.216  0.00  0.00    +0.116 A 
ATOM     10  N   UNL     1       3.106   1.642  -5.146  0.00  0.00    -0.302 N 
ATOM     11  H   UNL     1       2.802   3.277  -7.955  0.00  0.00    +0.157 HD
ATOM     12  N   UNL     1       3.238   2.814  -7.158  0.00  0.00    -0.384 N 
ATOM     13  H   UNL     1       4.261   2.775  -7.083  0.00  0.00    +0.157 HD
ENDROOT
BRANCH   6  14
ATOM     14  O   UNL     1      -1.803   3.416  -8.236  0.00  0.00    -0.491 OA
ATOM     15  C   UNL     1      -1.054   4.034  -9.284  0.00  0.00    +0.277 C 
ENDBRANCH   6  14
BRANCH   5  16
ATOM     16  O   UNL     1      -3.126   2.195  -6.161  0.00  0.00    -0.491 OA
ATOM     17  C   UNL     1      -3.755   1.544  -5.055  0.00  0.00    +0.277 C 
ENDBRANCH   5  16
BRANCH   1  18
ATOM     18  S   UNL     1       3.197   0.277  -2.821  0.00  0.00    -0.083 S 
BRANCH  18  19
ATOM     19  C   UNL     1       1.778  -0.296  -1.854  0.00  0.00    +0.112 C 
BRANCH  19  25
ATOM     20  C   UNL     1       3.195  -4.520   0.425  0.00  0.00    +0.044 C 
ATOM     21  C   UNL     1       2.945  -3.034   0.468  0.00  0.00    -0.050 A 
ATOM     22  C   UNL     1       3.159  -2.331   1.639  0.00  0.00    +0.003 A 
ATOM     23  C   UNL     1       2.929  -0.968   1.678  0.00  0.00    +0.004 A 
ATOM     24  C   UNL     1       2.486  -0.309   0.546  0.00  0.00    -0.046 A 
ATOM     25  C   UNL     1       2.268  -1.013  -0.622  0.00  0.00    -0.034 A 
ATOM     26  C   UNL     1       2.502  -2.375  -0.663  0.00  0.00    +0.008 A 
ATOM     27  C   UNL     1       2.236   1.177   0.589  0.00  0.00    +0.044 C 
ENDBRANCH  19  25
ENDBRANCH  18  19
ENDBRANCH   1  18
BRANCH  10  28
ATOM     28  C   UNL     1       4.568   1.613  -5.070  0.00  0.00    +0.160 C 
BRANCH  28  29
ATOM     29  C   UNL     1       5.082   0.378  -5.764  0.00  0.00    -0.027 A 
ATOM     30  C   UNL     1       5.258  -0.794  -5.051  0.00  0.00    +0.005 A 
ATOM     31  C   UNL     1       5.725  -1.928  -5.689  0.00  0.00    +0.001 A 
ATOM     32  C   UNL     1       6.026  -1.888  -7.037  0.00  0.00    +0.012 A 
ATOM     33  C   UNL     1       5.855  -0.716  -7.749  0.00  0.00    +0.055 A 
ATOM     34  C   UNL     1       5.383   0.417  -7.113  0.00  0.00    +0.017 A 
BRANCH  33  35
ATOM     35  C   UNL     1       6.184  -0.672  -9.220  0.00  0.00    +0.417 C 
ATOM     36  F   UNL     1       7.523  -0.305  -9.387  0.00  0.00    -0.166 F 
ATOM     37  F   UNL     1       5.973  -1.936  -9.782  0.00  0.00    -0.166 F 
ATOM     38  F   UNL     1       5.360   0.264  -9.854  0.00  0.00    -0.166 F 
ENDBRANCH  33  35
ENDBRANCH  28  29
ENDBRANCH  10  28
TORSDOF 8
