REMARK  Name = ZINC06875011
REMARK  15 active torsions:
REMARK  status: ('A' for Active; 'I' for Inactive)
REMARK    1  A    between atoms: C_1  and  C_2
REMARK    2  A    between atoms: C_2  and  N_3
REMARK    3  A    between atoms: N_3  and  C_4
REMARK    4  A    between atoms: C_4  and  C_5
REMARK    5  A    between atoms: C_5  and  N_6
REMARK    6  A    between atoms: C_7  and  C_15
REMARK    7  A    between atoms: C_10  and  C_14
REMARK    8  A    between atoms: C_18  and  C_21
REMARK    9  A    between atoms: C_21  and  C_22
REMARK   10  A    between atoms: C_21  and  C_23
REMARK   11  A    between atoms: C_21  and  C_24
REMARK   12  A    between atoms: N_27  and  C_28
REMARK   13  A    between atoms: C_28  and  C_29
REMARK   14  A    between atoms: C_28  and  C_30
REMARK   15  A    between atoms: C_28  and  C_31
REMARK                            x       y       z     vdW  Elec       q    Type
REMARK                         _______ _______ _______ _____ _____    ______ ____
ROOT
ATOM      1  N   UNL     1      -2.436  -2.333  -3.109  0.00  0.00    -0.283 N 
ATOM      2  C   UNL     1      -3.822  -2.836  -3.144  0.00  0.00    +0.165 C 
ATOM      3  S   UNL     1      -4.251  -2.593  -4.921  0.00  0.00    -0.121 S 
ATOM      4  C   UNL     1      -2.516  -2.484  -5.540  0.00  0.00    +0.131 C 
ATOM      5  C   UNL     1      -1.783  -2.151  -4.250  0.00  0.00    +0.229 C 
ATOM      6  O   UNL     1      -0.643  -1.739  -4.263  0.00  0.00    -0.274 OA
ATOM      7  C   UNL     1      -2.364  -1.359  -6.566  0.00  0.00    +0.029 C 
ENDROOT
BRANCH   2   8
ATOM      8  C   UNL     1      -4.718  -2.016  -2.252  0.00  0.00    -0.017 A 
ATOM      9  C   UNL     1      -4.803  -0.648  -2.428  0.00  0.00    +0.006 A 
ATOM     10  C   UNL     1      -5.625   0.104  -1.610  0.00  0.00    +0.004 A 
ATOM     11  C   UNL     1      -6.364  -0.512  -0.617  0.00  0.00    -0.042 A 
ATOM     12  C   UNL     1      -6.280  -1.881  -0.443  0.00  0.00    +0.004 A 
ATOM     13  C   UNL     1      -5.461  -2.634  -1.263  0.00  0.00    +0.006 A 
BRANCH  11  14
ATOM     14  C   UNL     1      -7.260   0.308   0.275  0.00  0.00    -0.013 C 
ATOM     15  C   UNL     1      -8.310   1.024  -0.577  0.00  0.00    +0.015 C 
ATOM     16  C   UNL     1      -7.957  -0.611   1.280  0.00  0.00    +0.015 C 
ATOM     17  C   UNL     1      -6.421   1.343   1.027  0.00  0.00    +0.015 C 
ENDBRANCH  11  14
ENDBRANCH   2   8
BRANCH   1  18
ATOM     18  C   UNL     1      -1.789  -2.030  -1.830  0.00  0.00    +0.128 C 
BRANCH  18  19
ATOM     19  C   UNL     1      -1.029  -3.264  -1.338  0.00  0.00    +0.128 C 
BRANCH  19  20
ATOM     20  N   UNL     1      -0.308  -2.934  -0.106  0.00  0.00    -0.284 N 
ATOM     21  C   UNL     1       0.953  -2.461  -0.170  0.00  0.00    +0.303 C 
ATOM     22  O   UNL     1       1.491  -2.309  -1.250  0.00  0.00    -0.253 OA
ATOM     23  N   UNL     1       1.617  -2.158   0.963  0.00  0.00    -0.294 N 
ATOM     24  H   UNL     1       1.188  -2.280   1.824  0.00  0.00    +0.151 HD
BRANCH  23  25
ATOM     25  C   UNL     1       2.987  -1.644   0.894  0.00  0.00    +0.028 C 
ATOM     26  C   UNL     1       3.003  -0.339   0.095  0.00  0.00    +0.031 C 
ATOM     27  C   UNL     1       3.506  -1.383   2.309  0.00  0.00    +0.031 C 
ATOM     28  C   UNL     1       3.884  -2.675   0.204  0.00  0.00    +0.031 C 
ENDBRANCH  23  25
BRANCH  20  30
ATOM     29  C   UNL     1      -0.673  -4.530   1.710  0.00  0.00    +0.024 C 
ATOM     30  C   UNL     1      -0.956  -3.118   1.194  0.00  0.00    +0.106 C 
ENDBRANCH  20  30
ENDBRANCH  19  20
ENDBRANCH  18  19
ENDBRANCH   1  18
TORSDOF 7
