REMARK  Name = ZINC57928491
REMARK  6 active torsions:
REMARK  status: ('A' for Active; 'I' for Inactive)
REMARK    1  A    between atoms: C_1  and  C_2
REMARK    2  A    between atoms: C_2  and  C_3
REMARK    3  A    between atoms: N_7  and  C_15
REMARK    4  A    between atoms: C_15  and  C_16
REMARK    5  A    between atoms: N_18  and  C_19
REMARK    6  A    between atoms: C_24  and  C_25
REMARK                            x       y       z     vdW  Elec       q    Type
REMARK                         _______ _______ _______ _____ _____    ______ ____
ROOT
ATOM      1  C   UNL     1      -1.441  -0.534   0.033  0.00  0.00    +0.157 C 
ATOM      2  C   UNL     1      -1.423  -2.038   0.141  0.00  0.00    +0.240 C 
ATOM      3  O   UNL     1      -1.464  -2.561   1.235  0.00  0.00    -0.273 OA
ATOM      4  N   UNL     1      -1.363  -2.806  -0.962  0.00  0.00    -0.259 N 
ATOM      5  C   UNL     1      -1.458  -2.239  -2.238  0.00  0.00    +0.058 A 
ATOM      6  C   UNL     1      -1.194  -2.996  -3.368  0.00  0.00    +0.025 A 
ATOM      7  C   UNL     1      -1.284  -2.418  -4.621  0.00  0.00    +0.002 A 
ATOM      8  C   UNL     1      -1.633  -1.087  -4.753  0.00  0.00    +0.002 A 
ATOM      9  C   UNL     1      -1.901  -0.323  -3.631  0.00  0.00    +0.025 A 
ATOM     10  C   UNL     1      -1.818  -0.897  -2.374  0.00  0.00    +0.049 A 
ATOM     11  N   UNL     1      -2.106  -0.150  -1.220  0.00  0.00    -0.331 N 
ATOM     12  H   UNL     1      -2.725   0.596  -1.249  0.00  0.00    +0.147 HD
ENDROOT
BRANCH   1  14
ATOM     13  C   UNL     1      -0.028   1.526   0.046  0.00  0.00    +0.006 C 
ATOM     14  C   UNL     1      -0.006  -0.004   0.034  0.00  0.00    +0.028 C 
ENDBRANCH   1  14
BRANCH   4  15
ATOM     15  C   UNL     1      -1.196  -4.255  -0.826  0.00  0.00    +0.209 C 
BRANCH  15  16
ATOM     16  C   UNL     1      -2.550  -4.911  -0.745  0.00  0.00    +0.235 C 
ATOM     17  O   UNL     1      -3.556  -4.235  -0.796  0.00  0.00    -0.274 OA
ATOM     18  N   UNL     1      -2.644  -6.250  -0.616  0.00  0.00    -0.284 N 
ATOM     19  H   UNL     1      -1.845  -6.798  -0.655  0.00  0.00    +0.155 HD
BRANCH  18  20
ATOM     20  C   UNL     1      -3.894  -6.848  -0.425  0.00  0.00    +0.036 A 
ATOM     21  C   UNL     1      -4.936  -6.121   0.136  0.00  0.00    +0.023 A 
ATOM     22  C   UNL     1      -6.169  -6.714   0.323  0.00  0.00    +0.002 A 
ATOM     23  C   UNL     1      -6.366  -8.033  -0.046  0.00  0.00    +0.000 A 
ATOM     24  C   UNL     1      -5.331  -8.760  -0.604  0.00  0.00    +0.005 A 
ATOM     25  C   UNL     1      -4.097  -8.170  -0.800  0.00  0.00    -0.029 A 
ATOM     26  C   UNL     1      -2.972  -8.961  -1.415  0.00  0.00    +0.045 C 
ENDBRANCH  18  20
ENDBRANCH  15  16
ENDBRANCH   4  15
TORSDOF 4
