REMARK  Name = ZINC11690302
REMARK  10 active torsions:
REMARK  status: ('A' for Active; 'I' for Inactive)
REMARK    1  A    between atoms: C_1  and  C_2
REMARK    2  A    between atoms: C_5  and  N_9
REMARK    3  A    between atoms: C_6  and  C_8
REMARK    4  A    between atoms: C_12  and  C_23
REMARK    5  A    between atoms: C_16  and  C_17
REMARK    6  A    between atoms: C_16  and  C_19
REMARK    7  A    between atoms: N_21  and  C_22
REMARK    8  A    between atoms: C_23  and  C_24
REMARK    9  A    between atoms: C_27  and  O_30
REMARK   10  A    between atoms: O_30  and  C_31
REMARK                            x       y       z     vdW  Elec       q    Type
REMARK                         _______ _______ _______ _____ _____    ______ ____
ROOT
ATOM      1  N   UNL     1       1.319  -0.216  -0.479  0.00  0.00    -0.232 N 
ATOM      2  C   UNL     1       2.311   0.654  -0.557  0.00  0.00    +0.238 C 
ATOM      3  O   UNL     1       3.435   0.325  -0.870  0.00  0.00    -0.274 OA
ATOM      4  C   UNL     1       1.953   2.095  -0.229  0.00  0.00    +0.143 C 
ATOM      5  S   UNL     1       0.165   1.911   0.148  0.00  0.00    -0.095 S 
ATOM      6  C   UNL     1       0.043   0.149  -0.125  0.00  0.00    +0.098 C 
ATOM      7  C   UNL     1      -1.085  -0.664  -0.007  0.00  0.00    +0.141 C 
ENDROOT
BRANCH   1  12
ATOM      8  C   UNL     1       2.375  -5.667  -1.653  0.00  0.00    +0.044 C 
ATOM      9  C   UNL     1       2.094  -4.220  -1.341  0.00  0.00    -0.050 A 
ATOM     10  C   UNL     1       1.583  -3.389  -2.322  0.00  0.00    +0.005 A 
ATOM     11  C   UNL     1       1.325  -2.062  -2.039  0.00  0.00    +0.024 A 
ATOM     12  C   UNL     1       1.579  -1.562  -0.768  0.00  0.00    +0.045 A 
ATOM     13  C   UNL     1       2.097  -2.397   0.212  0.00  0.00    -0.028 A 
ATOM     14  C   UNL     1       2.348  -3.725  -0.075  0.00  0.00    +0.008 A 
ATOM     15  C   UNL     1       2.379  -1.857   1.591  0.00  0.00    +0.046 C 
ENDBRANCH   1  12
BRANCH   7  16
ATOM     16  C   UNL     1      -0.952  -2.117  -0.112  0.00  0.00    +0.257 C 
ATOM     17  O   UNL     1      -1.029  -2.659  -1.200  0.00  0.00    -0.269 OA
ATOM     18  N   UNL     1      -0.744  -2.857   0.995  0.00  0.00    -0.314 N 
ATOM     19  C   UNL     1      -0.520  -4.300   0.881  0.00  0.00    +0.128 C 
ATOM     20  H   UNL     1      -0.743  -2.433   1.868  0.00  0.00    +0.149 HD
ENDBRANCH   7  16
BRANCH   7  21
ATOM     21  C   UNL     1      -2.371  -0.077   0.216  0.00  0.00    +0.107 C 
ATOM     22  N   UNL     1      -3.392   0.389   0.394  0.00  0.00    -0.191 NA
ENDBRANCH   7  21
BRANCH   4  23
ATOM     23  C   UNL     1       2.728   2.595   0.992  0.00  0.00    +0.059 C 
BRANCH  23  24
ATOM     24  C   UNL     1       2.296   4.001   1.320  0.00  0.00    -0.046 A 
ATOM     25  C   UNL     1       2.956   5.076   0.755  0.00  0.00    +0.007 A 
ATOM     26  C   UNL     1       2.558   6.366   1.050  0.00  0.00    +0.046 A 
ATOM     27  C   UNL     1       1.502   6.582   1.923  0.00  0.00    +0.120 A 
ATOM     28  C   UNL     1       0.844   5.502   2.493  0.00  0.00    +0.046 A 
ATOM     29  C   UNL     1       1.242   4.214   2.190  0.00  0.00    +0.007 A 
BRANCH  27  30
ATOM     30  O   UNL     1       1.111   7.850   2.218  0.00  0.00    -0.495 OA
ATOM     31  C   UNL     1       1.834   8.913   1.595  0.00  0.00    +0.277 C 
ENDBRANCH  27  30
ENDBRANCH  23  24
ENDBRANCH   4  23
TORSDOF 6
