REMARK  Name = ZINC04913962
REMARK  3 active torsions:
REMARK  status: ('A' for Active; 'I' for Inactive)
REMARK    1  A    between atoms: C_4  and  C_7
REMARK    2  A    between atoms: N_11  and  N_12
REMARK    3  A    between atoms: C_13  and  C_15
REMARK                            x       y       z     vdW  Elec       q    Type
REMARK                         _______ _______ _______ _____ _____    ______ ____
ROOT
ATOM      1  C   UNL     1      -0.765   5.397   0.227  0.00  0.00    +0.209 C 
ATOM      2  C   UNL     1      -0.704   5.990   1.642  0.00  0.00    +0.107 C 
ATOM      3  C   UNL     1      -0.424   7.476   1.493  0.00  0.00    +0.074 C 
ATOM      4  N   UNL     1       0.387   8.102   2.291  0.00  0.00    -0.184 NA
ATOM      5  C   UNL     1      -1.123   8.171   0.390  0.00  0.00    +0.040 A 
ATOM      6  C   UNL     1      -1.131   9.562   0.318  0.00  0.00    +0.013 A 
ATOM      7  C   UNL     1      -1.788  10.188  -0.723  0.00  0.00    +0.001 A 
ATOM      8  C   UNL     1      -2.433   9.435  -1.689  0.00  0.00    +0.004 A 
ATOM      9  C   UNL     1      -2.433   8.055  -1.624  0.00  0.00    +0.046 A 
ATOM     10  C   UNL     1      -1.780   7.408  -0.585  0.00  0.00    +0.130 A 
ATOM     11  O   UNL     1      -1.790   6.055  -0.518  0.00  0.00    -0.483 OA
ENDROOT
BRANCH   1  15
ATOM     12  C   UNL     1      -1.637   1.222   0.471  0.00  0.00    +0.000 A 
ATOM     13  C   UNL     1      -2.666   2.145   0.480  0.00  0.00    +0.000 A 
ATOM     14  C   UNL     1      -2.384   3.496   0.405  0.00  0.00    +0.007 A 
ATOM     15  C   UNL     1      -1.073   3.924   0.313  0.00  0.00    -0.007 A 
ATOM     16  C   UNL     1      -0.044   3.001   0.298  0.00  0.00    +0.007 A 
ATOM     17  C   UNL     1      -0.326   1.650   0.377  0.00  0.00    +0.000 A 
ENDBRANCH   1  15
BRANCH   4  18
ATOM     18  N   UNL     1       0.955   9.320   1.897  0.00  0.00    -0.203 N 
ATOM     19  C   UNL     1       1.689  10.036   2.772  0.00  0.00    +0.263 C 
ATOM     20  O   UNL     1       1.859   9.623   3.903  0.00  0.00    -0.268 OA
ATOM     21  H   UNL     1       0.819   9.649   0.994  0.00  0.00    +0.178 HD
BRANCH  19  22
ATOM     22  C   UNL     1       2.287  11.319   2.357  0.00  0.00    +0.042 A 
ATOM     23  C   UNL     1       2.098  11.792   1.056  0.00  0.00    +0.017 A 
ATOM     24  C   UNL     1       2.653  12.993   0.671  0.00  0.00    +0.050 A 
ATOM     25  C   UNL     1       3.411  13.732   1.571  0.00  0.00    +0.166 A 
ATOM     26  C   UNL     1       3.608  13.263   2.870  0.00  0.00    +0.167 A 
ATOM     27  C   UNL     1       3.049  12.062   3.262  0.00  0.00    +0.062 A 
ATOM     28  O   UNL     1       4.378  14.165   3.546  0.00  0.00    -0.453 OA
ATOM     29  C   UNL     1       4.309  15.381   2.778  0.00  0.00    +0.466 C 
ATOM     30  O   UNL     1       4.058  14.925   1.436  0.00  0.00    -0.453 OA
ENDBRANCH  19  22
ENDBRANCH   4  18
TORSDOF 3
