REMARK  Name = ZINC59247982
REMARK  6 active torsions:
REMARK  status: ('A' for Active; 'I' for Inactive)
REMARK    1  A    between atoms: C_1  and  C_2
REMARK    2  A    between atoms: C_5  and  N_9
REMARK    3  A    between atoms: C_6  and  C_8
REMARK    4  A    between atoms: N_12  and  N_13
REMARK    5  A    between atoms: C_14  and  C_15
REMARK    6  A    between atoms: C_18  and  N_20
REMARK                            x       y       z     vdW  Elec       q    Type
REMARK                         _______ _______ _______ _____ _____    ______ ____
ROOT
ATOM      1  N   UNL     1       0.055  -4.170  -0.021  0.00  0.00    -0.268 N 
ATOM      2  C   UNL     1      -0.043  -4.838  -1.187  0.00  0.00    +0.323 C 
ATOM      3  O   UNL     1      -0.057  -4.228  -2.239  0.00  0.00    -0.251 OA
ATOM      4  N   UNL     1      -0.126  -6.184  -1.187  0.00  0.00    -0.190 N 
ATOM      5  H   UNL     1       0.133  -4.658   0.814  0.00  0.00    +0.156 HD
ATOM      6  H   UNL     1      -0.197  -6.665  -2.026  0.00  0.00    +0.179 HD
ENDROOT
BRANCH   1  11
ATOM      7  C   UNL     1       0.018   1.503   0.006  0.00  0.00    +0.044 C 
ATOM      8  C   UNL     1       0.028  -0.004  -0.001  0.00  0.00    -0.050 A 
ATOM      9  C   UNL     1       0.626  -0.685  -1.046  0.00  0.00    +0.005 A 
ATOM     10  C   UNL     1       0.637  -2.066  -1.055  0.00  0.00    +0.024 A 
ATOM     11  C   UNL     1       0.047  -2.770  -0.014  0.00  0.00    +0.038 A 
ATOM     12  C   UNL     1      -0.553  -2.083   1.033  0.00  0.00    -0.029 A 
ATOM     13  C   UNL     1      -0.556  -0.702   1.039  0.00  0.00    +0.008 A 
ATOM     14  C   UNL     1      -1.195  -2.844   2.165  0.00  0.00    +0.045 C 
ENDBRANCH   1  11
BRANCH   4  15
ATOM     15  N   UNL     1      -0.110  -6.887   0.025  0.00  0.00    -0.183 NA
ATOM     16  C   UNL     1      -0.190  -8.186   0.025  0.00  0.00    +0.176 C 
BRANCH  16  17
ATOM     17  C   UNL     1      -0.173  -8.921   1.290  0.00  0.00    +0.151 A 
ATOM     18  C   UNL     1      -0.244 -10.277   1.430  0.00  0.00    +0.068 A 
ATOM     19  C   UNL     1      -0.195 -10.547   2.808  0.00  0.00    +0.079 A 
ATOM     20  C   UNL     1      -0.096  -9.351   3.445  0.00  0.00    +0.204 A 
ATOM     21  O   UNL     1      -0.078  -8.374   2.522  0.00  0.00    -0.439 OA
ATOM     22 BR   UNL     1      -0.255 -12.253   3.622  0.00  0.00    -0.045 Br
BRANCH  20  23
ATOM     23  N   UNL     1      -0.021  -9.168   4.819  0.00  0.00    -0.296 N 
ATOM     24  C   UNL     1       1.279  -9.026   5.494  0.00  0.00    +0.136 C 
ATOM     25  C   UNL     1       1.228  -7.778   6.383  0.00  0.00    +0.179 C 
ATOM     26  O   UNL     1       0.078  -7.849   7.229  0.00  0.00    -0.377 OA
ATOM     27  C   UNL     1      -1.166  -7.858   6.525  0.00  0.00    +0.179 C 
ATOM     28  C   UNL     1      -1.239  -9.105   5.643  0.00  0.00    +0.136 C 
ENDBRANCH  20  23
ENDBRANCH  16  17
ENDBRANCH   4  15
TORSDOF 4
