REMARK  Name = ZINC39529885
REMARK  8 active torsions:
REMARK  status: ('A' for Active; 'I' for Inactive)
REMARK    1  A    between atoms: C_4  and  C_7
REMARK    2  A    between atoms: C_7  and  C_8
REMARK    3  A    between atoms: C_11  and  N_21
REMARK    4  A    between atoms: C_12  and  C_14
REMARK    5  A    between atoms: C_19  and  O_20
REMARK    6  A    between atoms: C_25  and  S_28
REMARK    7  A    between atoms: S_28  and  O_31
REMARK    8  A    between atoms: O_31  and  C_32
REMARK                            x       y       z     vdW  Elec       q    Type
REMARK                         _______ _______ _______ _____ _____    ______ ____
ROOT
ATOM      1  C   UNL     1       4.164  -0.959   1.377  0.00  0.00    -0.042 A 
ATOM      2  C   UNL     1       4.953  -0.025   2.025  0.00  0.00    +0.006 A 
ATOM      3  C   UNL     1       5.374  -0.246   3.322  0.00  0.00    +0.024 A 
ATOM      4  C   UNL     1       5.007  -1.410   3.983  0.00  0.00    +0.038 A 
ATOM      5  C   UNL     1       4.209  -2.357   3.329  0.00  0.00    +0.007 A 
ATOM      6  C   UNL     1       3.787  -2.119   2.023  0.00  0.00    +0.014 A 
ENDROOT
BRANCH   4   7
ATOM      7  N   UNL     1       5.431  -1.636   5.293  0.00  0.00    -0.331 N 
ATOM      8  C   UNL     1       6.701  -2.326   5.568  0.00  0.00    +0.086 C 
ATOM      9  C   UNL     1       7.505  -1.485   6.564  0.00  0.00    -0.061 C 
ATOM     10  N   UNL     1       6.687  -1.223   7.755  0.00  0.00    +0.398 N 
ATOM     11  C   UNL     1       5.525  -0.402   7.392  0.00  0.00    +0.133 C 
ATOM     12  C   UNL     1       4.625  -1.185   6.437  0.00  0.00    +0.115 C 
ATOM     13  H   UNL     1       6.371  -2.099   8.143  0.00  0.00    -0.083 HD
ATOM     14  H   UNL     1       7.242  -0.734   8.441  0.00  0.00    -0.083 HD
BRANCH  11  15
ATOM     15  S   UNL     1       4.595   0.025   8.890  0.00  0.00    +0.109 S 
ATOM     16  O   UNL     1       3.573   0.962   8.582  0.00  0.00    -0.138 OA
ATOM     17  O   UNL     1       4.300  -1.149   9.634  0.00  0.00    -0.138 OA
BRANCH  15  18
ATOM     18  O   UNL     1       5.581   0.796   9.757  0.00  0.00    -0.347 OA
BRANCH  18  19
ATOM     19  C   UNL     1       5.811   2.067   9.334  0.00  0.00    +0.156 A 
ATOM     20  C   UNL     1       6.832   2.324   8.430  0.00  0.00    +0.048 A 
ATOM     21  C   UNL     1       7.064   3.616   8.002  0.00  0.00    +0.004 A 
ATOM     22  C   UNL     1       6.281   4.654   8.473  0.00  0.00    +0.000 A 
ATOM     23  C   UNL     1       5.263   4.400   9.374  0.00  0.00    +0.004 A 
ATOM     24  C   UNL     1       5.023   3.108   9.801  0.00  0.00    +0.048 A 
ENDBRANCH  18  19
ENDBRANCH  15  18
ENDBRANCH  11  15
ENDBRANCH   4   7
BRANCH   5  25
ATOM     25  C   UNL     1       3.812  -3.604   4.026  0.00  0.00    +0.025 A 
ATOM     26  C   UNL     1       4.270  -4.838   3.568  0.00  0.00    +0.012 A 
ATOM     27  C   UNL     1       3.897  -5.995   4.220  0.00  0.00    +0.001 A 
ATOM     28  C   UNL     1       3.070  -5.936   5.327  0.00  0.00    +0.004 A 
ATOM     29  C   UNL     1       2.610  -4.718   5.790  0.00  0.00    +0.046 A 
ATOM     30  C   UNL     1       2.981  -3.547   5.148  0.00  0.00    +0.125 A 
BRANCH  30  31
ATOM     31  O   UNL     1       2.534  -2.348   5.606  0.00  0.00    -0.506 OA
ATOM     32  H   UNL     1       1.694  -2.067   5.216  0.00  0.00    +0.292 HD
ENDBRANCH  30  31
ENDBRANCH   5  25
BRANCH   1  33
ATOM     33  C   UNL     1       3.711  -0.707  -0.038  0.00  0.00    +0.070 C 
BRANCH  33  37
ATOM     34  C   UNL     1      -0.017   1.378   0.010  0.00  0.00    +0.000 A 
ATOM     35  C   UNL     1       1.171   2.086   0.002  0.00  0.00    +0.000 A 
ATOM     36  C   UNL     1       2.377   1.411  -0.013  0.00  0.00    +0.004 A 
ATOM     37  C   UNL     1       2.396   0.029  -0.020  0.00  0.00    -0.043 A 
ATOM     38  C   UNL     1       1.208  -0.679  -0.012  0.00  0.00    +0.004 A 
ATOM     39  C   UNL     1       0.002  -0.004   0.002  0.00  0.00    +0.000 A 
ENDBRANCH  33  37
ENDBRANCH   1  33
TORSDOF 8
