REMARK  Name = ZINC10066428
REMARK  10 active torsions:
REMARK  status: ('A' for Active; 'I' for Inactive)
REMARK    1  A    between atoms: C_1  and  C_2
REMARK    2  A    between atoms: C_2  and  N_63
REMARK    3  A    between atoms: C_3  and  C_4
REMARK    4  A    between atoms: C_3  and  N_63
REMARK    5  A    between atoms: C_5  and  C_6
REMARK    6  A    between atoms: C_5  and  N_63
REMARK    7  A    between atoms: C_6  and  N_7
REMARK    8  A    between atoms: C_13  and  O_17
REMARK    9  A    between atoms: O_17  and  C_18
REMARK   10  A    between atoms: C_19  and  C_21
REMARK                            x       y       z     vdW  Elec       q    Type
REMARK                         _______ _______ _______ _____ _____    ______ ____
ROOT
ATOM      1  N   UNL     1      -3.705   7.578  -0.025  0.00  0.00    -0.248 N 
ATOM      2  C   UNL     1      -4.867   8.325  -0.111  0.00  0.00    +0.168 A 
ATOM      3  N   UNL     1      -6.108   7.909  -0.206  0.00  0.00    -0.224 NA
ATOM      4  C   UNL     1      -7.156   8.760  -0.284  0.00  0.00    +0.081 A 
ATOM      5  C   UNL     1      -8.530   8.444  -0.388  0.00  0.00    +0.032 A 
ATOM      6  C   UNL     1      -9.475   9.434  -0.459  0.00  0.00    +0.048 A 
ATOM      7  C   UNL     1      -9.120  10.779  -0.430  0.00  0.00    +0.121 A 
ATOM      8  C   UNL     1      -7.780  11.124  -0.328  0.00  0.00    +0.063 A 
ATOM      9  C   UNL     1      -6.830  10.135  -0.257  0.00  0.00    +0.044 A 
ATOM     10  S   UNL     1      -5.060  10.102  -0.115  0.00  0.00    -0.052 S 
ATOM     11  C   UNL     1      -2.511   8.197   0.067  0.00  0.00    +0.259 C 
ATOM     12  O   UNL     1      -2.460   9.407   0.177  0.00  0.00    -0.269 OA
ENDROOT
BRANCH  11  13
ATOM     13  C   UNL     1      -1.270   7.408   0.035  0.00  0.00    +0.122 A 
ATOM     14  C   UNL     1      -1.008   6.539  -1.017  0.00  0.00    +0.032 A 
ATOM     15  C   UNL     1       0.193   5.805  -1.005  0.00  0.00    +0.026 A 
ATOM     16  C   UNL     1       0.510   4.876  -2.093  0.00  0.00    -0.007 A 
ATOM     17  C   UNL     1      -0.359   4.689  -3.171  0.00  0.00    +0.009 A 
ATOM     18  C   UNL     1      -0.022   3.818  -4.167  0.00  0.00    +0.001 A 
ATOM     19  C   UNL     1       1.172   3.106  -4.117  0.00  0.00    +0.001 A 
ATOM     20  C   UNL     1       2.041   3.266  -3.080  0.00  0.00    +0.008 A 
ATOM     21  C   UNL     1       1.728   4.158  -2.042  0.00  0.00    -0.017 A 
ATOM     22  C   UNL     1       2.601   4.350  -0.953  0.00  0.00    +0.012 A 
ATOM     23  C   UNL     1       2.295   5.213   0.048  0.00  0.00    +0.047 A 
ATOM     24  C   UNL     1       1.105   5.950   0.050  0.00  0.00    +0.140 A 
ATOM     25  O   UNL     1       0.847   6.796   1.070  0.00  0.00    -0.422 OA
ATOM     26  C   UNL     1      -0.282   7.523   1.112  0.00  0.00    +0.350 A 
ATOM     27  O   UNL     1      -0.486   8.276   2.046  0.00  0.00    -0.244 OA
ENDBRANCH  11  13
BRANCH   7  28
ATOM     28  O   UNL     1     -10.075  11.744  -0.500  0.00  0.00    -0.495 OA
ATOM     29  C   UNL     1     -11.432  11.308  -0.604  0.00  0.00    +0.277 C 
ENDBRANCH   7  28
BRANCH   1  30
ATOM     30  C   UNL     1      -3.773   6.114  -0.032  0.00  0.00    +0.097 C 
BRANCH  30  31
ATOM     31  C   UNL     1      -4.030   5.608   1.388  0.00  0.00    -0.059 C 
BRANCH  31  32
ATOM     32  N   UNL     1      -4.234   4.145   1.340  0.00  0.00    +0.380 N 
ATOM     33  H   UNL     1      -4.833   3.918   0.538  0.00  0.00    -0.082 HD
BRANCH  32  35
ATOM     34  C   UNL     1      -3.191   1.975   0.908  0.00  0.00    -0.017 C 
ATOM     35  C   UNL     1      -2.935   3.459   1.178  0.00  0.00    -0.082 C 
ENDBRANCH  32  35
BRANCH  32  36
ATOM     36  C   UNL     1      -4.897   3.687   2.579  0.00  0.00    -0.082 C 
ATOM     37  C   UNL     1      -6.382   4.044   2.502  0.00  0.00    -0.017 C 
ENDBRANCH  32  36
ENDBRANCH  31  32
ENDBRANCH  30  31
ENDBRANCH   1  30
TORSDOF 7
