REMARK  Name = ZINC13786141
REMARK  5 active torsions:
REMARK  status: ('A' for Active; 'I' for Inactive)
REMARK    1  A    between atoms: C_4  and  O_25
REMARK    2  A    between atoms: C_5  and  C_7
REMARK    3  A    between atoms: N_9  and  N_10
REMARK    4  A    between atoms: C_14  and  C_15
REMARK    5  A    between atoms: C_19  and  O_21
REMARK                            x       y       z     vdW  Elec       q    Type
REMARK                         _______ _______ _______ _____ _____    ______ ____
ROOT
ATOM      1  N   UNL     1      -1.629  -2.559  -0.238  0.00  0.00    -0.169 N 
ATOM      2  C   UNL     1      -1.342  -1.274  -0.122  0.00  0.00    +0.275 C 
ATOM      3  O   UNL     1      -0.193  -0.879  -0.046  0.00  0.00    -0.267 OA
ATOM      4  C   UNL     1      -2.488  -0.340  -0.090  0.00  0.00    +0.079 C 
ATOM      5  C   UNL     1      -2.499   1.012   0.019  0.00  0.00    +0.028 C 
ATOM      6  S   UNL     1      -3.855  -1.484  -0.228  0.00  0.00    -0.059 S 
ATOM      7  C   UNL     1      -2.904  -2.992  -0.322  0.00  0.00    +0.138 C 
ATOM      8  S   UNL     1      -3.473  -4.599  -0.473  0.00  0.00    -0.026 S 
ENDROOT
BRANCH   5   9
ATOM      9  C   UNL     1      -1.239   1.766  -0.056  0.00  0.00    -0.020 A 
ATOM     10  C   UNL     1      -1.033   2.874   0.773  0.00  0.00    +0.008 A 
ATOM     11  C   UNL     1       0.152   3.575   0.702  0.00  0.00    +0.004 A 
ATOM     12  C   UNL     1       1.138   3.189  -0.189  0.00  0.00    +0.045 A 
ATOM     13  C   UNL     1       0.941   2.094  -1.020  0.00  0.00    +0.117 A 
ATOM     14  C   UNL     1      -0.244   1.382  -0.960  0.00  0.00    +0.053 A 
BRANCH  13  15
ATOM     15  O   UNL     1       1.914   1.721  -1.893  0.00  0.00    -0.507 OA
ATOM     16  H   UNL     1       2.544   1.083  -1.531  0.00  0.00    +0.292 HD
ENDBRANCH  13  15
ENDBRANCH   5   9
BRANCH   1  19
ATOM     17  C   UNL     1      -0.328  -4.258   0.805  0.00  0.00    +0.264 C 
ATOM     18  O   UNL     1      -1.002  -4.137   1.810  0.00  0.00    -0.269 OA
ATOM     19  N   UNL     1      -0.586  -3.493  -0.275  0.00  0.00    -0.222 N 
ATOM     20  H   UNL     1      -0.049  -3.590  -1.077  0.00  0.00    +0.174 HD
BRANCH  17  25
ATOM     21  C   UNL     1       2.571  -6.305  -0.416  0.00  0.00    +0.001 A 
ATOM     22  C   UNL     1       2.836  -7.091   0.694  0.00  0.00    +0.004 A 
ATOM     23  C   UNL     1       2.077  -6.961   1.840  0.00  0.00    +0.046 A 
ATOM     24  C   UNL     1       1.042  -6.039   1.887  0.00  0.00    +0.129 A 
ATOM     25  C   UNL     1       0.771  -5.242   0.767  0.00  0.00    +0.079 A 
ATOM     26  C   UNL     1       1.543  -5.388  -0.388  0.00  0.00    +0.017 A 
BRANCH  24  27
ATOM     27  O   UNL     1       0.295  -5.910   3.012  0.00  0.00    -0.506 OA
ATOM     28  H   UNL     1      -0.481  -6.486   3.038  0.00  0.00    +0.292 HD
ENDBRANCH  24  27
ENDBRANCH  17  25
ENDBRANCH   1  19
TORSDOF 5
