REMARK  Name = ZINC22937820
REMARK  3 active torsions:
REMARK  status: ('A' for Active; 'I' for Inactive)
REMARK    1  A    between atoms: C_4  and  C_7
REMARK    2  A    between atoms: C_11  and  C_14
REMARK    3  A    between atoms: C_17  and  C_21
REMARK                            x       y       z     vdW  Elec       q    Type
REMARK                         _______ _______ _______ _____ _____    ______ ____
ROOT
ATOM      1  C   UNL     1      -0.013   1.086   0.008  0.00  0.00    -0.011 C 
ATOM      2  C   UNL     1       1.425   1.643  -0.003  0.00  0.00    +0.146 C 
ATOM      3  O   UNL     1       1.556   2.417   1.205  0.00  0.00    -0.392 OA
ATOM      4  C   UNL     1       0.586   1.870   2.123  0.00  0.00    +0.108 C 
ATOM      5  N   UNL     1      -0.601   1.588   1.275  0.00  0.00    +0.405 N 
ATOM      6  H   UNL     1      -1.193   2.493   1.071  0.00  0.00    -0.081 HD
ATOM      7  H   UNL     1      -1.252   0.815   1.709  0.00  0.00    -0.081 HD
ENDROOT
BRANCH   1  11
ATOM      8  C   UNL     1      -2.206   2.560  -3.348  0.00  0.00    +0.000 A 
ATOM      9  C   UNL     1      -1.717   1.267  -3.356  0.00  0.00    +0.000 A 
ATOM     10  C   UNL     1      -1.008   0.790  -2.270  0.00  0.00    +0.002 A 
ATOM     11  C   UNL     1      -0.786   1.606  -1.176  0.00  0.00    -0.059 A 
ATOM     12  C   UNL     1      -1.280   2.897  -1.166  0.00  0.00    +0.002 A 
ATOM     13  C   UNL     1      -1.986   3.376  -2.254  0.00  0.00    +0.000 A 
ENDBRANCH   1  11
BRANCH   4  14
ATOM     14  C   UNL     1       0.238   2.892   3.208  0.00  0.00    +0.198 C 
ATOM     15  N   UNL     1       1.446   3.235   3.992  0.00  0.00    -0.282 NA
ATOM     16  C   UNL     1       0.983   3.420   5.386  0.00  0.00    +0.112 C 
ATOM     17  C   UNL     1      -0.534   3.137   5.337  0.00  0.00    +0.185 C 
ATOM     18  O   UNL     1      -0.691   2.320   4.153  0.00  0.00    -0.359 OA
ATOM     19  H   UNL     1       2.176   2.416   3.919  0.00  0.00    +0.125 HD
BRANCH  16  20
ATOM     20  C   UNL     1       1.241   4.833   5.842  0.00  0.00    -0.028 A 
ATOM     21  C   UNL     1       1.035   5.888   4.973  0.00  0.00    +0.005 A 
ATOM     22  C   UNL     1       1.268   7.185   5.393  0.00  0.00    +0.000 A 
ATOM     23  C   UNL     1       1.716   7.426   6.678  0.00  0.00    +0.000 A 
ATOM     24  C   UNL     1       1.926   6.370   7.546  0.00  0.00    +0.000 A 
ATOM     25  C   UNL     1       1.689   5.074   7.128  0.00  0.00    +0.005 A 
ENDBRANCH  16  20
ENDBRANCH   4  14
TORSDOF 3
