REMARK  Name = ZINC66678720
REMARK  6 active torsions:
REMARK  status: ('A' for Active; 'I' for Inactive)
REMARK    1  A    between atoms: C_1  and  N_2
REMARK    2  A    between atoms: N_2  and  C_3
REMARK    3  A    between atoms: C_3  and  C_4
REMARK    4  A    between atoms: C_9  and  O_10
REMARK    5  A    between atoms: N_13  and  C_14
REMARK    6  A    between atoms: C_18  and  C_20
REMARK                            x       y       z     vdW  Elec       q    Type
REMARK                         _______ _______ _______ _____ _____    ______ ____
ROOT
ATOM      1  C   UNL     1       0.008   1.433   0.027  0.00  0.00    +0.134 C 
ATOM      2  N   UNL     1      -0.162  -0.022  -0.002  0.00  0.00    -0.284 N 
ATOM      3  C   UNL     1      -0.169  -0.676  -1.181  0.00  0.00    +0.306 C 
ATOM      4  O   UNL     1      -0.310  -1.883  -1.205  0.00  0.00    -0.252 OA
ATOM      5  N   UNL     1      -0.020   0.009  -2.332  0.00  0.00    -0.269 N 
ATOM      6  H   UNL     1       0.015   0.978  -2.319  0.00  0.00    +0.156 HD
ENDROOT
BRANCH   5   7
ATOM      7  C   UNL     1       0.083  -0.679  -3.547  0.00  0.00    +0.035 A 
ATOM      8  C   UNL     1      -0.432  -0.119  -4.709  0.00  0.00    +0.023 A 
ATOM      9  C   UNL     1      -0.332  -0.795  -5.910  0.00  0.00    +0.002 A 
ATOM     10  C   UNL     1       0.280  -2.031  -5.962  0.00  0.00    +0.010 A 
ATOM     11  C   UNL     1       0.800  -2.601  -4.801  0.00  0.00    +0.004 A 
ATOM     12  C   UNL     1       0.705  -1.918  -3.592  0.00  0.00    +0.033 A 
BRANCH  11  13
ATOM     13  C   UNL     1       1.458  -3.930  -4.855  0.00  0.00    +0.091 A 
ATOM     14  C   UNL     1       1.562  -4.615  -6.088  0.00  0.00    +0.035 A 
ATOM     15  C   UNL     1       2.173  -5.834  -6.100  0.00  0.00    +0.073 A 
ATOM     16  C   UNL     1       2.666  -6.338  -4.876  0.00  0.00    +0.265 A 
ATOM     17  O   UNL     1       3.221  -7.424  -4.837  0.00  0.00    -0.266 OA
ATOM     18  N   UNL     1       2.520  -5.611  -3.752  0.00  0.00    -0.243 N 
ATOM     19  H   UNL     1       2.861  -5.962  -2.915  0.00  0.00    +0.192 HD
ATOM     20  N   UNL     1       1.946  -4.462  -3.760  0.00  0.00    -0.171 NA
ENDBRANCH  11  13
ENDBRANCH   5   7
BRANCH   2  21
ATOM     21  C   UNL     1      -0.323  -0.766   1.249  0.00  0.00    +0.147 C 
BRANCH  21  22
ATOM     22  C   UNL     1      -1.787  -0.855   1.595  0.00  0.00    +0.011 A 
ATOM     23  C   UNL     1      -2.331   0.006   2.530  0.00  0.00    +0.009 A 
ATOM     24  C   UNL     1      -3.673  -0.075   2.848  0.00  0.00    +0.001 A 
ATOM     25  C   UNL     1      -4.476  -1.018   2.232  0.00  0.00    +0.004 A 
ATOM     26  C   UNL     1      -3.938  -1.880   1.297  0.00  0.00    +0.046 A 
ATOM     27  C   UNL     1      -2.592  -1.797   0.972  0.00  0.00    +0.122 A 
BRANCH  27  28
ATOM     28  O   UNL     1      -2.061  -2.641   0.048  0.00  0.00    -0.506 OA
ATOM     29  H   UNL     1      -1.721  -3.467   0.419  0.00  0.00    +0.292 HD
ENDBRANCH  27  28
ENDBRANCH  21  22
ENDBRANCH   2  21
TORSDOF 5
