REMARK  Name = ZINC08746047
REMARK  5 active torsions:
REMARK  status: ('A' for Active; 'I' for Inactive)
REMARK    1  A    between atoms: C_3  and  C_6
REMARK    2  A    between atoms: C_16  and  C_18
REMARK    3  A    between atoms: C_23  and  C_25
REMARK    4  A    between atoms: C_25  and  S_26
REMARK    5  A    between atoms: S_26  and  C_27
REMARK                            x       y       z     vdW  Elec       q    Type
REMARK                         _______ _______ _______ _____ _____    ______ ____
ROOT
ATOM      1  C   UNL     1      -1.164   2.289   0.020  0.00  0.00    +0.020 C 
ATOM      2  C   UNL     1      -0.969   3.629   0.027  0.00  0.00    -0.023 C 
ATOM      3  C   UNL     1       0.429   4.171   0.022  0.00  0.00    +0.037 C 
ATOM      4  C   UNL     1       0.514   5.674   0.190  0.00  0.00    +0.005 C 
ATOM      5  C   UNL     1      -0.664   6.422  -0.431  0.00  0.00    +0.012 C 
ATOM      6  C   UNL     1      -1.939   5.991   0.296  0.00  0.00    +0.067 C 
ATOM      7  C   UNL     1      -2.083   4.494   0.031  0.00  0.00    +0.068 C 
ATOM      8  N   UNL     1      -3.330   4.244  -0.185  0.00  0.00    -0.181 NA
ATOM      9  N   UNL     1      -4.114   5.394  -0.333  0.00  0.00    -0.184 N 
ATOM     10  C   UNL     1      -3.202   6.559  -0.375  0.00  0.00    +0.146 C 
ATOM     11  C   UNL     1      -5.458   5.435  -0.412  0.00  0.00    +0.246 C 
ATOM     12  O   UNL     1      -6.027   6.499  -0.540  0.00  0.00    -0.273 OA
ENDROOT
BRANCH   1  15
ATOM     13  C   UNL     1       1.220  -0.639  -0.013  0.00  0.00    +0.008 A 
ATOM     14  C   UNL     1       0.002  -0.004   0.002  0.00  0.00    +0.015 A 
ATOM     15  C   UNL     1      -0.017   1.383   0.010  0.00  0.00    +0.012 A 
ATOM     16  S   UNL     1       1.726   1.772  -0.005  0.00  0.00    -0.097 S 
ATOM     17  C   UNL     1       2.359   0.103  -0.020  0.00  0.00    +0.046 A 
ENDBRANCH   1  15
BRANCH  10  18
ATOM     18  C   UNL     1      -3.756   7.719   0.411  0.00  0.00    +0.013 A 
ATOM     19  C   UNL     1      -3.613   9.048   0.185  0.00  0.00    +0.013 A 
ATOM     20  C   UNL     1      -4.221   9.943   1.046  0.00  0.00    +0.008 A 
ATOM     21  C   UNL     1      -4.932   9.465   2.096  0.00  0.00    +0.045 A 
ATOM     22  S   UNL     1      -4.763   7.701   1.884  0.00  0.00    -0.100 S 
ENDBRANCH  10  18
BRANCH  11  23
ATOM     23  C   UNL     1      -6.256   4.158  -0.342  0.00  0.00    +0.175 C 
BRANCH  23  24
ATOM     24  S   UNL     1      -8.024   4.542  -0.476  0.00  0.00    -0.075 S 
BRANCH  24  25
ATOM     25  C   UNL     1      -8.811   2.969  -0.378  0.00  0.00    +0.210 A 
ATOM     26  N   UNL     1     -10.131   2.755  -0.427  0.00  0.00    -0.188 NA
ATOM     27  C   UNL     1     -10.374   1.465  -0.329  0.00  0.00    +0.209 A 
ATOM     28  N   UNL     1      -9.192   0.826  -0.205  0.00  0.00    -0.246 N 
ATOM     29  H   UNL     1      -9.056  -0.129  -0.110  0.00  0.00    +0.192 HD
ATOM     30  N   UNL     1      -8.198   1.818  -0.239  0.00  0.00    -0.144 NA
ATOM     31  N   UNL     1     -11.622   0.870  -0.345  0.00  0.00    -0.328 N 
ATOM     32  H   UNL     1     -11.701  -0.094  -0.262  0.00  0.00    +0.145 HD
ATOM     33  H   UNL     1     -12.418   1.415  -0.439  0.00  0.00    +0.145 HD
ENDBRANCH  24  25
ENDBRANCH  23  24
ENDBRANCH  11  23
TORSDOF 5
