REMARK  Name = ZINC12170534
REMARK  9 active torsions:
REMARK  status: ('A' for Active; 'I' for Inactive)
REMARK    1  A    between atoms: N_13  and  C_16
REMARK    2  A    between atoms: C_16  and  C_17
REMARK    3  A    between atoms: C_22  and  C_23
REMARK    4  A    between atoms: C_22  and  N_63
REMARK    5  A    between atoms: C_23  and  C_25
REMARK    6  A    between atoms: C_23  and  O_36
REMARK    7  A    between atoms: C_25  and  O_26
REMARK    8  A    between atoms: O_26  and  C_27
REMARK    9  A    between atoms: C_30  and  N_33
REMARK                            x       y       z     vdW  Elec       q    Type
REMARK                         _______ _______ _______ _____ _____    ______ ____
ROOT
ATOM      1  C   UNL     1      -2.629   3.513   2.753  0.00  0.00    +0.003 C 
ATOM      2  C   UNL     1      -1.143   3.883   2.723  0.00  0.00    -0.014 C 
ATOM      3  C   UNL     1      -0.541   3.449   1.384  0.00  0.00    -0.078 C 
ATOM      4  C   UNL     1      -2.126   1.626   1.197  0.00  0.00    -0.078 C 
ATOM      5  C   UNL     1      -2.775   2.005   2.530  0.00  0.00    -0.014 C 
ATOM      6  N   UNL     1      -0.693   1.986   1.242  0.00  0.00    +0.381 N 
ATOM      7  H   UNL     1      -0.259   1.526   2.051  0.00  0.00    -0.082 HD
ENDROOT
BRANCH   1   8
ATOM      8  C   UNL     1      -3.222   3.889   4.112  0.00  0.00    +0.120 C 
BRANCH   8  21
ATOM      9  C   UNL     1      -8.453   0.705   4.841  0.00  0.00    +0.001 A 
ATOM     10  C   UNL     1      -9.328   1.679   4.454  0.00  0.00    +0.008 A 
ATOM     11  C   UNL     1      -8.848   2.940   4.060  0.00  0.00    -0.016 A 
ATOM     12  C   UNL     1      -9.708   3.975   3.654  0.00  0.00    +0.008 A 
ATOM     13  C   UNL     1      -9.194   5.184   3.281  0.00  0.00    +0.001 A 
ATOM     14  C   UNL     1      -7.826   5.428   3.290  0.00  0.00    +0.014 A 
ATOM     15  C   UNL     1      -6.944   4.433   3.684  0.00  0.00    +0.046 A 
ATOM     16  C   UNL     1      -7.457   3.175   4.073  0.00  0.00    +0.006 A 
ATOM     17  C   UNL     1      -6.566   2.155   4.477  0.00  0.00    +0.046 A 
ATOM     18  C   UNL     1      -7.080   0.924   4.859  0.00  0.00    +0.014 A 
ATOM     19  C   UNL     1      -5.123   2.437   4.477  0.00  0.00    +0.254 C 
ATOM     20  O   UNL     1      -4.338   1.574   4.821  0.00  0.00    -0.270 OA
ATOM     21  N   UNL     1      -4.666   3.646   4.099  0.00  0.00    -0.234 N 
ATOM     22  C   UNL     1      -5.488   4.640   3.713  0.00  0.00    +0.254 C 
ATOM     23  O   UNL     1      -5.024   5.716   3.386  0.00  0.00    -0.270 OA
ENDBRANCH   8  21
ENDBRANCH   1   8
BRANCH   6  24
ATOM     24  C   UNL     1      -0.019   1.526   0.010  0.00  0.00    -0.044 C 
BRANCH  24  25
ATOM     25  C   UNL     1       0.002  -0.004   0.002  0.00  0.00    +0.135 C 
BRANCH  25  26
ATOM     26  O   UNL     1       0.693  -0.477   1.160  0.00  0.00    -0.390 OA
ATOM     27  H   UNL     1       1.611  -0.180   1.219  0.00  0.00    +0.210 HD
ENDBRANCH  25  26
BRANCH  25  28
ATOM     28  C   UNL     1       0.718  -0.497  -1.257  0.00  0.00    +0.258 C 
BRANCH  28  29
ATOM     29  O   UNL     1       0.636  -1.923  -1.324  0.00  0.00    -0.489 OA
BRANCH  29  30
ATOM     30  C   UNL     1       1.226  -2.525  -2.389  0.00  0.00    +0.121 A 
ATOM     31  C   UNL     1       1.866  -1.760  -3.354  0.00  0.00    +0.048 A 
ATOM     32  C   UNL     1       2.470  -2.375  -4.433  0.00  0.00    +0.036 A 
ATOM     33  C   UNL     1       2.427  -3.752  -4.559  0.00  0.00    +0.126 A 
ATOM     34  C   UNL     1       1.786  -4.516  -3.602  0.00  0.00    +0.036 A 
ATOM     35  C   UNL     1       1.185  -3.906  -2.518  0.00  0.00    +0.048 A 
BRANCH  33  36
ATOM     36  N   UNL     1       3.070  -4.408  -5.719  0.00  0.00    +0.056 N 
ATOM     37  O   UNL     1       3.034  -5.620  -5.831  0.00  0.00    -0.126 OA
ATOM     38  O   UNL     1       3.636  -3.735  -6.563  0.00  0.00    -0.126 OA
ENDBRANCH  33  36
ENDBRANCH  29  30
ENDBRANCH  28  29
ENDBRANCH  25  28
ENDBRANCH  24  25
ENDBRANCH   6  24
TORSDOF 9
