REMARK  Name = ZINC15675606
REMARK  5 active torsions:
REMARK  status: ('A' for Active; 'I' for Inactive)
REMARK    1  A    between atoms: C_1  and  C_2
REMARK    2  A    between atoms: C_6  and  C_8
REMARK    3  A    between atoms: C_10  and  C_13
REMARK    4  A    between atoms: N_23  and  C_24
REMARK    5  A    between atoms: C_24  and  C_25
REMARK                            x       y       z     vdW  Elec       q    Type
REMARK                         _______ _______ _______ _____ _____    ______ ____
ROOT
ATOM      1  C   UNL     1       0.108  -5.926   4.382  0.00  0.00    +0.152 C 
ATOM      2  C   UNL     1      -1.284  -6.293   4.917  0.00  0.00    +0.083 C 
ATOM      3  C   UNL     1      -1.157  -7.583   5.686  0.00  0.00    +0.040 A 
ATOM      4  C   UNL     1       0.026  -8.091   6.103  0.00  0.00    +0.051 A 
ATOM      5  N   UNL     1      -0.221  -9.234   6.744  0.00  0.00    -0.349 N 
ATOM      6  C   UNL     1      -1.510  -9.456   6.745  0.00  0.00    +0.171 A 
ATOM      7  N   UNL     1      -2.127  -8.443   6.092  0.00  0.00    -0.349 N 
ATOM      8  H   UNL     1      -3.081  -8.348   5.943  0.00  0.00    +0.166 HD
ATOM      9  C   UNL     1       1.351  -7.417   5.848  0.00  0.00    +0.140 C 
ATOM     10  N   UNL     1       1.093  -6.017   5.469  0.00  0.00    -0.281 NA
ATOM     11  H   UNL     1       0.449  -9.809   7.146  0.00  0.00    +0.166 HD
ENDROOT
BRANCH   1  14
ATOM     12  C   UNL     1       0.051  -2.846   2.464  0.00  0.00    +0.202 A 
ATOM     13  N   UNL     1       0.075  -4.185   2.585  0.00  0.00    -0.190 NA
ATOM     14  C   UNL     1       0.083  -4.518   3.844  0.00  0.00    +0.245 A 
ATOM     15  O   UNL     1       0.066  -3.400   4.580  0.00  0.00    -0.336 OA
ATOM     16  N   UNL     1       0.051  -2.316   3.662  0.00  0.00    -0.056 NA
BRANCH  12  22
ATOM     17  C   UNL     1      -0.018   1.503   0.010  0.00  0.00    +0.044 C 
ATOM     18  C   UNL     1       0.002  -0.004   0.002  0.00  0.00    -0.050 A 
ATOM     19  C   UNL     1       0.006  -0.688  -1.201  0.00  0.00    +0.003 A 
ATOM     20  C   UNL     1       0.024  -2.071  -1.216  0.00  0.00    +0.001 A 
ATOM     21  C   UNL     1       0.039  -2.776  -0.029  0.00  0.00    +0.012 A 
ATOM     22  C   UNL     1       0.036  -2.092   1.185  0.00  0.00    +0.023 A 
ATOM     23  C   UNL     1       0.023  -0.699   1.194  0.00  0.00    +0.015 A 
ENDBRANCH  12  22
ENDBRANCH   1  14
BRANCH  10  24
ATOM     24  C   UNL     1       2.340  -5.331   5.108  0.00  0.00    +0.120 C 
BRANCH  24  25
ATOM     25  C   UNL     1       3.228  -5.231   6.322  0.00  0.00    -0.033 A 
ATOM     26  C   UNL     1       3.132  -4.135   7.159  0.00  0.00    +0.006 A 
ATOM     27  C   UNL     1       3.946  -4.042   8.273  0.00  0.00    +0.020 A 
ATOM     28  C   UNL     1       4.856  -5.047   8.549  0.00  0.00    +0.041 A 
ATOM     29  C   UNL     1       4.952  -6.143   7.711  0.00  0.00    +0.020 A 
ATOM     30  C   UNL     1       4.133  -6.237   6.601  0.00  0.00    +0.006 A 
ATOM     31 CL   UNL     1       5.879  -4.931   9.947  0.00  0.00    -0.084 Cl
ENDBRANCH  24  25
ENDBRANCH  10  24
TORSDOF 4
