REMARK  Name = ZINC35228142
REMARK  6 active torsions:
REMARK  status: ('A' for Active; 'I' for Inactive)
REMARK    1  A    between atoms: N_9  and  C_11
REMARK    2  A    between atoms: C_14  and  N_25
REMARK    3  A    between atoms: C_16  and  C_17
REMARK    4  A    between atoms: N_25  and  S_26
REMARK    5  A    between atoms: S_26  and  C_29
REMARK    6  A    between atoms: C_32  and  N_35
REMARK                            x       y       z     vdW  Elec       q    Type
REMARK                         _______ _______ _______ _____ _____    ______ ____
ROOT
ATOM      1  C   UNL     1       4.394  -2.850   1.080  0.00  0.00    +0.042 A 
ATOM      2  C   UNL     1       5.508  -3.525   0.596  0.00  0.00    +0.026 A 
ATOM      3  C   UNL     1       6.387  -4.128   1.471  0.00  0.00    +0.026 A 
ATOM      4  C   UNL     1       6.167  -4.064   2.844  0.00  0.00    +0.049 A 
ATOM      5  C   UNL     1       5.064  -3.396   3.342  0.00  0.00    +0.039 A 
ATOM      6  C   UNL     1       4.170  -2.777   2.463  0.00  0.00    +0.060 A 
ENDROOT
BRANCH   1  15
ATOM      7  C   UNL     1      -0.146   1.161  -0.104  0.00  0.00    +0.000 A 
ATOM      8  C   UNL     1       1.030   1.883  -0.192  0.00  0.00    +0.000 A 
ATOM      9  C   UNL     1       2.240   1.220  -0.206  0.00  0.00    +0.005 A 
ATOM     10  C   UNL     1       2.286  -0.165  -0.130  0.00  0.00    -0.027 A 
ATOM     11  C   UNL     1       1.116  -0.885  -0.034  0.00  0.00    -0.041 A 
ATOM     12  C   UNL     1      -0.102  -0.215  -0.027  0.00  0.00    +0.004 A 
ATOM     13  C   UNL     1       1.088  -2.386   0.083  0.00  0.00    +0.054 C 
ATOM     14  C   UNL     1       2.399  -2.995  -0.413  0.00  0.00    +0.110 C 
ATOM     15  N   UNL     1       3.507  -2.243   0.196  0.00  0.00    -0.325 N 
ATOM     16  C   UNL     1       3.640  -0.827  -0.166  0.00  0.00    +0.140 C 
ENDBRANCH   1  15
BRANCH   6  17
ATOM     17  C   UNL     1       2.995  -2.056   2.986  0.00  0.00    +0.248 C 
ATOM     18  O   UNL     1       2.840  -0.878   2.727  0.00  0.00    -0.270 OA
ATOM     19  N   UNL     1       2.094  -2.703   3.751  0.00  0.00    -0.297 N 
ATOM     20  C   UNL     1       2.319  -4.097   4.156  0.00  0.00    +0.108 C 
ATOM     21  C   UNL     1       2.199  -4.193   5.681  0.00  0.00    +0.019 C 
ATOM     22  C   UNL     1       0.848  -3.621   6.119  0.00  0.00    +0.003 C 
ATOM     23  C   UNL     1       0.763  -2.146   5.719  0.00  0.00    +0.019 C 
ATOM     24  C   UNL     1       0.870  -2.025   4.201  0.00  0.00    +0.108 C 
ENDBRANCH   6  17
BRANCH   4  25
ATOM     25  N   UNL     1       7.066  -4.680   3.724  0.00  0.00    -0.216 N 
ATOM     26  H   UNL     1       6.733  -5.214   4.462  0.00  0.00    +0.174 HD
BRANCH  25  27
ATOM     27  S   UNL     1       8.697  -4.497   3.503  0.00  0.00    +0.072 S 
ATOM     28  O   UNL     1       9.332  -5.208   4.557  0.00  0.00    -0.150 OA
ATOM     29  O   UNL     1       8.956  -4.774   2.134  0.00  0.00    -0.150 OA
BRANCH  27  30
ATOM     30  C   UNL     1       9.068  -2.792   3.751  0.00  0.00    +0.109 A 
ATOM     31  C   UNL     1       9.028  -1.914   2.684  0.00  0.00    +0.031 A 
ATOM     32  C   UNL     1       9.319  -0.577   2.878  0.00  0.00    +0.034 A 
ATOM     33  C   UNL     1       9.650  -0.118   4.139  0.00  0.00    +0.126 A 
ATOM     34  C   UNL     1       9.690  -0.996   5.206  0.00  0.00    +0.034 A 
ATOM     35  C   UNL     1       9.395  -2.332   5.013  0.00  0.00    +0.031 A 
BRANCH  33  36
ATOM     36  N   UNL     1       9.963   1.314   4.347  0.00  0.00    +0.056 N 
ATOM     37  O   UNL     1       9.929   2.082   3.413  0.00  0.00    -0.126 OA
ATOM     38  O   UNL     1      10.253   1.716   5.450  0.00  0.00    -0.126 OA
ENDBRANCH  33  36
ENDBRANCH  27  30
ENDBRANCH  25  27
ENDBRANCH   4  25
TORSDOF 6
