REMARK  Name = ZINC63855495
REMARK  7 active torsions:
REMARK  status: ('A' for Active; 'I' for Inactive)
REMARK    1  A    between atoms: C_3  and  C_7
REMARK    2  A    between atoms: C_9  and  C_12
REMARK    3  A    between atoms: C_12  and  C_13
REMARK    4  A    between atoms: C_13  and  N_14
REMARK    5  A    between atoms: N_14  and  C_15
REMARK    6  A    between atoms: C_15  and  C_16
REMARK    7  A    between atoms: C_16  and  O_27
REMARK                            x       y       z     vdW  Elec       q    Type
REMARK                         _______ _______ _______ _____ _____    ______ ____
ROOT
ATOM      1  N   UNL     1       8.826   0.101   1.078  0.00  0.00    +0.381 N 
ATOM      2  H   UNL     1       8.959  -0.395   0.210  0.00  0.00    -0.086 HD
ATOM      3  H   UNL     1       9.520   0.829   1.160  0.00  0.00    -0.086 HD
ENDROOT
BRANCH   1   4
ATOM      4  C   UNL     1       7.484   0.698   1.100  0.00  0.00    -0.076 C 
BRANCH   4   5
ATOM      5  C   UNL     1       7.341   1.673  -0.071  0.00  0.00    +0.037 C 
BRANCH   5   8
ATOM      6  C   UNL     1       3.680   2.029  -0.023  0.00  0.00    +0.110 A 
ATOM      7  N   UNL     1       4.902   1.516  -0.043  0.00  0.00    -0.244 NA
ATOM      8  C   UNL     1       5.965   2.286  -0.049  0.00  0.00    +0.047 A 
ATOM      9  C   UNL     1       5.822   3.638  -0.034  0.00  0.00    +0.070 A 
ATOM     10  S   UNL     1       4.039   3.781  -0.018  0.00  0.00    -0.075 S 
BRANCH   6  13
ATOM     11  C   UNL     1      -0.017   1.379   0.010  0.00  0.00    +0.020 A 
ATOM     12  C   UNL     1       1.181   2.073   0.002  0.00  0.00    +0.013 A 
ATOM     13  C   UNL     1       2.372   1.339  -0.013  0.00  0.00    +0.025 A 
ATOM     14  C   UNL     1       2.306  -0.055  -0.020  0.00  0.00    +0.121 A 
ATOM     15  N   UNL     1       1.141  -0.670  -0.012  0.00  0.00    -0.263 NA
ATOM     16  C   UNL     1       0.002  -0.004   0.002  0.00  0.00    +0.111 A 
ENDBRANCH   6  13
ENDBRANCH   5   8
ENDBRANCH   4   5
ENDBRANCH   1   4
BRANCH   1  17
ATOM     17  C   UNL     1       8.964  -0.835   2.202  0.00  0.00    -0.049 C 
BRANCH  17  18
ATOM     18  C   UNL     1      10.361  -1.458   2.180  0.00  0.00    +0.039 C 
ATOM     19  C   UNL     1      10.612  -2.096   0.812  0.00  0.00    +0.029 C 
ATOM     20  C   UNL     1       9.596  -3.225   0.605  0.00  0.00    -0.016 C 
ATOM     21  C   UNL     1       9.744  -4.236   1.741  0.00  0.00    -0.078 C 
ATOM     22  N   UNL     1       9.481  -3.587   3.034  0.00  0.00    +0.383 N 
ATOM     23  C   UNL     1      10.462  -2.524   3.276  0.00  0.00    -0.038 C 
ATOM     24  C   UNL     1      10.185  -1.850   4.623  0.00  0.00    -0.013 C 
ATOM     25  C   UNL     1      10.255  -2.888   5.745  0.00  0.00    -0.003 C 
ATOM     26  C   UNL     1       9.246  -4.001   5.447  0.00  0.00    -0.019 C 
ATOM     27  C   UNL     1       9.574  -4.612   4.084  0.00  0.00    -0.078 C 
ATOM     28  H   UNL     1       8.552  -3.193   3.030  0.00  0.00    -0.081 HD
BRANCH  18  29
ATOM     29  O   UNL     1      11.338  -0.441   2.415  0.00  0.00    -0.392 OA
ATOM     30  H   UNL     1      11.331   0.270   1.759  0.00  0.00    +0.210 HD
ENDBRANCH  18  29
ENDBRANCH  17  18
ENDBRANCH   1  17
TORSDOF 7
