REMARK  Name = ZINC10457462
REMARK  10 active torsions:
REMARK  status: ('A' for Active; 'I' for Inactive)
REMARK    1  A    between atoms: C_1  and  C_2
REMARK    2  A    between atoms: C_4  and  C_35
REMARK    3  A    between atoms: C_5  and  N_9
REMARK    4  A    between atoms: C_6  and  C_8
REMARK    5  A    between atoms: C_10  and  C_12
REMARK    6  A    between atoms: C_12  and  S_13
REMARK    7  A    between atoms: S_13  and  C_14
REMARK    8  A    between atoms: N_20  and  C_21
REMARK    9  A    between atoms: C_24  and  O_27
REMARK   10  A    between atoms: O_27  and  C_28
REMARK                            x       y       z     vdW  Elec       q    Type
REMARK                         _______ _______ _______ _____ _____    ______ ____
ROOT
ATOM      1  C   UNL     1      -4.030   2.076  -1.166  0.00  0.00    +0.177 A 
ATOM      2  N   UNL     1      -3.986   3.055  -0.296  0.00  0.00    -0.227 NA
ATOM      3  C   UNL     1      -4.797   4.132  -0.375  0.00  0.00    +0.064 A 
ATOM      4  C   UNL     1      -5.698   4.158  -1.419  0.00  0.00    +0.094 A 
ATOM      5  C   UNL     1      -5.747   3.121  -2.361  0.00  0.00    +0.273 A 
ATOM      6  O   UNL     1      -6.539   3.158  -3.289  0.00  0.00    -0.266 OA
ATOM      7  N   UNL     1      -4.895   2.080  -2.221  0.00  0.00    -0.255 N 
ATOM      8  S   UNL     1      -6.638   5.657  -1.249  0.00  0.00    -0.118 S 
ATOM      9  C   UNL     1      -6.136   6.105   0.465  0.00  0.00    +0.081 C 
ATOM     10  C   UNL     1      -4.806   5.322   0.552  0.00  0.00    +0.068 C 
ENDROOT
BRANCH   7  11
ATOM     11  C   UNL     1      -4.904   1.022  -3.140  0.00  0.00    +0.052 A 
ATOM     12  C   UNL     1      -4.105   1.080  -4.274  0.00  0.00    +0.030 A 
ATOM     13  C   UNL     1      -4.111   0.035  -5.177  0.00  0.00    +0.048 A 
ATOM     14  C   UNL     1      -4.922  -1.068  -4.956  0.00  0.00    +0.130 A 
ATOM     15  C   UNL     1      -5.725  -1.125  -3.826  0.00  0.00    +0.048 A 
ATOM     16  C   UNL     1      -5.716  -0.083  -2.920  0.00  0.00    +0.030 A 
BRANCH  14  17
ATOM     17  O   UNL     1      -4.931  -2.094  -5.848  0.00  0.00    -0.406 OA
BRANCH  17  18
ATOM     18  C   UNL     1      -4.080  -1.969  -6.989  0.00  0.00    +0.575 C 
ATOM     19  F   UNL     1      -2.752  -1.848  -6.569  0.00  0.00    -0.133 F 
ATOM     20  F   UNL     1      -4.213  -3.104  -7.796  0.00  0.00    -0.133 F 
ATOM     21  F   UNL     1      -4.444  -0.833  -7.720  0.00  0.00    -0.133 F 
ENDBRANCH  17  18
ENDBRANCH  14  17
ENDBRANCH   7  11
BRANCH   1  22
ATOM     22  S   UNL     1      -2.929   0.714  -0.972  0.00  0.00    -0.078 S 
BRANCH  22  23
ATOM     23  C   UNL     1      -2.051   1.231   0.524  0.00  0.00    +0.173 C 
BRANCH  23  25
ATOM     24  N   UNL     1      -0.245   0.362   1.975  0.00  0.00    -0.284 N 
ATOM     25  C   UNL     1      -1.028   0.187   0.891  0.00  0.00    +0.228 C 
ATOM     26  O   UNL     1      -0.905  -0.808   0.209  0.00  0.00    -0.275 OA
ATOM     27  H   UNL     1      -0.301   1.185   2.486  0.00  0.00    +0.155 HD
BRANCH  24  32
ATOM     28  C   UNL     1       3.374  -3.713   3.550  0.00  0.00    +0.044 C 
ATOM     29  C   UNL     1       2.412  -2.631   3.131  0.00  0.00    -0.050 A 
ATOM     30  C   UNL     1       2.864  -1.335   2.961  0.00  0.00    +0.008 A 
ATOM     31  C   UNL     1       1.986  -0.341   2.578  0.00  0.00    -0.029 A 
ATOM     32  C   UNL     1       0.647  -0.643   2.363  0.00  0.00    +0.039 A 
ATOM     33  C   UNL     1       0.196  -1.944   2.541  0.00  0.00    -0.029 A 
ATOM     34  C   UNL     1       1.080  -2.935   2.919  0.00  0.00    +0.008 A 
ATOM     35  C   UNL     1      -1.257  -2.276   2.315  0.00  0.00    +0.045 C 
ATOM     36  C   UNL     1       2.479   1.071   2.393  0.00  0.00    +0.045 C 
ENDBRANCH  24  32
ENDBRANCH  23  25
ENDBRANCH  22  23
ENDBRANCH   1  22
TORSDOF 7
