REMARK  Name = ZINC03215942
REMARK  5 active torsions:
REMARK  status: ('A' for Active; 'I' for Inactive)
REMARK    1  A    between atoms: C_10  and  C_12
REMARK    2  A    between atoms: C_16  and  S_18
REMARK    3  A    between atoms: S_18  and  N_21
REMARK    4  A    between atoms: N_21  and  C_22
REMARK    5  A    between atoms: C_27  and  C_28
REMARK                            x       y       z     vdW  Elec       q    Type
REMARK                         _______ _______ _______ _____ _____    ______ ____
ROOT
ATOM      1  S   UNL     1      -4.072  -5.098  -0.436  0.00  0.00    +0.074 S 
ATOM      2  O   UNL     1      -4.088  -5.968   0.688  0.00  0.00    -0.150 OA
ATOM      3  O   UNL     1      -5.179  -4.277  -0.780  0.00  0.00    -0.150 OA
ENDROOT
BRANCH   1   8
ATOM      4  C   UNL     1      -1.760  -1.808  -0.214  0.00  0.00    +0.039 A 
ATOM      5  C   UNL     1      -0.513  -2.339   0.123  0.00  0.00    +0.014 A 
ATOM      6  C   UNL     1      -0.370  -3.699   0.296  0.00  0.00    +0.023 A 
ATOM      7  C   UNL     1      -1.457  -4.540   0.123  0.00  0.00    +0.068 A 
ATOM      8  C   UNL     1      -2.695  -4.020  -0.218  0.00  0.00    +0.127 A 
ATOM      9  C   UNL     1      -2.852  -2.660  -0.387  0.00  0.00    +0.043 A 
ATOM     10 CL   UNL     1      -1.268  -6.253   0.335  0.00  0.00    -0.082 Cl
BRANCH   4  20
ATOM     11  C   UNL     1      -0.469   4.528  -1.168  0.00  0.00    +0.000 A 
ATOM     12  C   UNL     1      -1.738   3.985  -1.252  0.00  0.00    +0.002 A 
ATOM     13  C   UNL     1      -1.935   2.643  -1.009  0.00  0.00    +0.024 A 
ATOM     14  C   UNL     1      -0.856   1.821  -0.674  0.00  0.00    +0.040 A 
ATOM     15  C   UNL     1       0.411   2.376  -0.593  0.00  0.00    -0.024 A 
ATOM     16  C   UNL     1       0.604   3.722  -0.839  0.00  0.00    +0.005 A 
ATOM     17  C   UNL     1       1.390   1.286  -0.220  0.00  0.00    +0.056 C 
ATOM     18  C   UNL     1       0.529   0.019  -0.093  0.00  0.00    +0.118 C 
ATOM     19  N   UNL     1      -0.839   0.453  -0.392  0.00  0.00    -0.267 N 
ATOM     20  C   UNL     1      -1.921  -0.350  -0.394  0.00  0.00    +0.251 C 
ATOM     21  O   UNL     1      -3.030   0.125  -0.543  0.00  0.00    -0.270 OA
ENDBRANCH   4  20
ENDBRANCH   1   8
BRANCH   1  22
ATOM     22  N   UNL     1      -3.752  -6.040  -1.759  0.00  0.00    -0.215 N 
ATOM     23  H   UNL     1      -3.621  -6.996  -1.654  0.00  0.00    +0.174 HD
BRANCH  22  24
ATOM     24  C   UNL     1      -3.670  -5.463  -3.020  0.00  0.00    +0.060 A 
ATOM     25  C   UNL     1      -3.115  -4.198  -3.174  0.00  0.00    +0.025 A 
ATOM     26  C   UNL     1      -3.035  -3.627  -4.427  0.00  0.00    +0.002 A 
ATOM     27  C   UNL     1      -3.505  -4.306  -5.540  0.00  0.00    +0.001 A 
ATOM     28  C   UNL     1      -4.058  -5.561  -5.407  0.00  0.00    +0.015 A 
ATOM     29  C   UNL     1      -4.142  -6.156  -4.145  0.00  0.00    +0.060 A 
BRANCH  29  30
ATOM     30  C   UNL     1      -4.727  -7.500  -3.997  0.00  0.00    +0.253 C 
ATOM     31  O   UNL     1      -4.670  -8.074  -2.926  0.00  0.00    -0.270 OA
ATOM     32  N   UNL     1      -5.326  -8.095  -5.048  0.00  0.00    -0.267 N 
ATOM     33  C   UNL     1      -5.363  -7.554  -6.409  0.00  0.00    +0.118 C 
ATOM     34  C   UNL     1      -6.151  -8.587  -7.232  0.00  0.00    +0.056 C 
ATOM     35  C   UNL     1      -6.511  -9.669  -6.239  0.00  0.00    -0.024 A 
ATOM     36  C   UNL     1      -5.997  -9.320  -5.000  0.00  0.00    +0.040 A 
ATOM     37  C   UNL     1      -6.199 -10.176  -3.917  0.00  0.00    +0.024 A 
ATOM     38  C   UNL     1      -6.897 -11.354  -4.082  0.00  0.00    +0.002 A 
ATOM     39  C   UNL     1      -7.403 -11.695  -5.323  0.00  0.00    +0.000 A 
ATOM     40  C   UNL     1      -7.214 -10.847  -6.399  0.00  0.00    +0.005 A 
ENDBRANCH  29  30
ENDBRANCH  22  24
ENDBRANCH   1  22
TORSDOF 5
