REMARK  Name = ZINC20275052
REMARK  6 active torsions:
REMARK  status: ('A' for Active; 'I' for Inactive)
REMARK    1  A    between atoms: C_1  and  C_2
REMARK    2  A    between atoms: C_5  and  C_20
REMARK    3  A    between atoms: N_8  and  C_10
REMARK    4  A    between atoms: C_11  and  C_16
REMARK    5  A    between atoms: C_16  and  O_18
REMARK    6  A    between atoms: O_18  and  C_19
REMARK                            x       y       z     vdW  Elec       q    Type
REMARK                         _______ _______ _______ _____ _____    ______ ____
ROOT
ATOM      1  C   UNL     1       2.749   0.597   2.189  0.00  0.00    +0.145 A 
ATOM      2  C   UNL     1       3.317  -0.053   3.291  0.00  0.00    +0.139 A 
ATOM      3  S   UNL     1       3.914   1.346   4.226  0.00  0.00    -0.044 S 
ATOM      4  C   UNL     1       3.410   2.563   3.179  0.00  0.00    +0.158 A 
ATOM      5  N   UNL     1       2.832   1.908   2.188  0.00  0.00    -0.210 NA
ATOM      6  N   UNL     1       3.568   3.924   3.319  0.00  0.00    -0.337 N 
ATOM      7  H   UNL     1       4.019   4.282   4.100  0.00  0.00    +0.144 HD
ATOM      8  H   UNL     1       3.228   4.524   2.638  0.00  0.00    +0.144 HD
ENDROOT
BRANCH   1  14
ATOM      9  C   UNL     1      -0.023   1.538   0.017  0.00  0.00    +0.009 C 
ATOM     10  C   UNL     1      -0.013   0.007   0.014  0.00  0.00    +0.004 C 
ATOM     11  C   UNL     1       0.698  -0.496  -1.244  0.00  0.00    +0.009 C 
ATOM     12  C   UNL     1       2.127   0.051  -1.278  0.00  0.00    +0.004 C 
ATOM     13  C   UNL     1       2.893  -0.457  -0.053  0.00  0.00    +0.109 C 
ATOM     14  N   UNL     1       2.140  -0.102   1.157  0.00  0.00    -0.314 N 
ATOM     15  C   UNL     1       0.729  -0.501   1.254  0.00  0.00    +0.109 C 
ATOM     16  C   UNL     1       2.826  -0.426  -2.553  0.00  0.00    +0.009 C 
ENDBRANCH   1  14
BRANCH   2  17
ATOM     17  C   UNL     1       3.395  -1.428   3.582  0.00  0.00    +0.349 C 
ATOM     18  O   UNL     1       3.009  -2.246   2.766  0.00  0.00    -0.244 OA
BRANCH  17  19
ATOM     19  O   UNL     1       3.897  -1.840   4.766  0.00  0.00    -0.464 OA
ATOM     20  C   UNL     1       3.946  -3.250   4.994  0.00  0.00    +0.280 C 
ENDBRANCH  17  19
ENDBRANCH   2  17
TORSDOF 3
