REMARK  Name = ZINC03197808
REMARK  8 active torsions:
REMARK  status: ('A' for Active; 'I' for Inactive)
REMARK    1  A    between atoms: C_1  and  C_2
REMARK    2  A    between atoms: C_5  and  N_9
REMARK    3  A    between atoms: C_7  and  C_8
REMARK    4  A    between atoms: N_9  and  P_10
REMARK    5  A    between atoms: C_13  and  C_34
REMARK    6  A    between atoms: N_15  and  C_28
REMARK    7  A    between atoms: C_18  and  C_21
REMARK    8  A    between atoms: N_19  and  C_20
REMARK                            x       y       z     vdW  Elec       q    Type
REMARK                         _______ _______ _______ _____ _____    ______ ____
ROOT
ATOM      1  P   UNL     1       2.893   1.977  -0.151  0.00  0.00    +0.283 P 
ATOM      2  O   UNL     1       3.123   0.936  -1.177  0.00  0.00    -0.274 OA
ATOM      3  C   UNL     1       1.116   2.358  -0.006  0.00  0.00    +0.113 A 
ATOM      4  C   UNL     1       0.001   1.569   0.024  0.00  0.00    +0.076 A 
ATOM      5  N   UNL     1      -1.051   2.354   0.142  0.00  0.00    -0.169 NA
ATOM      6  N   UNL     1      -0.621   3.691   0.202  0.00  0.00    -0.213 N 
ATOM      7  C   UNL     1       0.729   3.700   0.103  0.00  0.00    +0.172 A 
ATOM      8  N   UNL     1       1.642   4.699   0.092  0.00  0.00    -0.211 NA
ATOM      9  C   UNL     1       2.906   4.573  -0.188  0.00  0.00    +0.140 C 
ATOM     10  N   UNL     1       3.550   3.431  -0.628  0.00  0.00    -0.250 N 
ATOM     11  C   UNL     1       4.747   3.497  -1.470  0.00  0.00    +0.140 C 
ATOM     12  C   UNL     1      -0.022   0.065  -0.068  0.00  0.00    +0.068 C 
ENDROOT
BRANCH   9  13
ATOM     13  C   UNL     1       3.742   5.778  -0.019  0.00  0.00    +0.050 A 
ATOM     14  C   UNL     1       3.413   6.960  -0.686  0.00  0.00    +0.014 A 
ATOM     15  C   UNL     1       4.197   8.082  -0.523  0.00  0.00    +0.001 A 
ATOM     16  C   UNL     1       5.311   8.040   0.299  0.00  0.00    +0.003 A 
ATOM     17  C   UNL     1       5.645   6.875   0.963  0.00  0.00    +0.039 A 
ATOM     18  C   UNL     1       4.865   5.743   0.814  0.00  0.00    +0.134 A 
ATOM     19  F   UNL     1       5.189   4.606   1.467  0.00  0.00    -0.205 F 
ENDBRANCH   9  13
BRANCH   6  20
ATOM     20  C   UNL     1      -1.445   4.816   0.336  0.00  0.00    +0.068 A 
ATOM     21  C   UNL     1      -1.013   5.911   1.071  0.00  0.00    +0.028 A 
ATOM     22  C   UNL     1      -1.825   7.021   1.196  0.00  0.00    +0.002 A 
ATOM     23  C   UNL     1      -3.072   7.038   0.599  0.00  0.00    +0.000 A 
ATOM     24  C   UNL     1      -3.508   5.946  -0.130  0.00  0.00    +0.002 A 
ATOM     25  C   UNL     1      -2.698   4.835  -0.263  0.00  0.00    +0.028 A 
ENDBRANCH   6  20
BRANCH   1  26
ATOM     26  N   UNL     1       3.506   1.509   1.296  0.00  0.00    -0.277 N 
ATOM     27  H   UNL     1       2.868   1.516   2.192  0.00  0.00    +0.155 HD
BRANCH  26  32
ATOM     28  C   UNL     1       8.916  -0.149   1.680  0.00  0.00    +0.044 C 
ATOM     29  C   UNL     1       7.478   0.292   1.578  0.00  0.00    -0.047 A 
ATOM     30  C   UNL     1       6.931   0.582   0.341  0.00  0.00    +0.005 A 
ATOM     31  C   UNL     1       5.615   0.986   0.244  0.00  0.00    +0.023 A 
ATOM     32  C   UNL     1       4.838   1.100   1.391  0.00  0.00    +0.034 A 
ATOM     33  C   UNL     1       5.392   0.813   2.631  0.00  0.00    +0.027 A 
ATOM     34  C   UNL     1       6.708   0.404   2.721  0.00  0.00    -0.046 A 
ATOM     35  C   UNL     1       7.308   0.086   4.066  0.00  0.00    +0.044 C 
ENDBRANCH  26  32
ENDBRANCH   1  26
TORSDOF 4
