REMARK  Name = ZINC35545470
REMARK  7 active torsions:
REMARK  status: ('A' for Active; 'I' for Inactive)
REMARK    1  A    between atoms: C_1  and  N_2
REMARK    2  A    between atoms: N_2  and  C_3
REMARK    3  A    between atoms: C_3  and  C_4
REMARK    4  A    between atoms: C_10  and  C_12
REMARK    5  A    between atoms: C_17  and  C_35
REMARK    6  A    between atoms: N_25  and  C_28
REMARK    7  A    between atoms: C_28  and  C_29
REMARK                            x       y       z     vdW  Elec       q    Type
REMARK                         _______ _______ _______ _____ _____    ______ ____
ROOT
ATOM      1  C   UNL     1      -0.023  -0.001  -2.518  0.00  0.00    +0.098 C 
ATOM      2  C   UNL     1       1.294   0.730  -2.664  0.00  0.00    +0.051 C 
ATOM      3  C   UNL     1       2.407  -0.189  -3.078  0.00  0.00    -0.025 A 
ATOM      4  C   UNL     1       3.706   0.090  -2.696  0.00  0.00    +0.017 A 
ATOM      5  C   UNL     1       4.737  -0.748  -3.075  0.00  0.00    +0.055 A 
ATOM      6  C   UNL     1       4.474  -1.870  -3.839  0.00  0.00    +0.014 A 
ATOM      7  C   UNL     1       3.179  -2.156  -4.223  0.00  0.00    +0.024 A 
ATOM      8  C   UNL     1       2.139  -1.315  -3.841  0.00  0.00    +0.033 A 
ATOM      9  N   UNL     1       0.836  -1.610  -4.221  0.00  0.00    -0.329 N 
ATOM     10  C   UNL     1      -0.327  -0.968  -3.630  0.00  0.00    +0.069 C 
ATOM     11  C   UNL     1      -1.156  -0.328  -4.744  0.00  0.00    -0.055 C 
ATOM     12  N   UNL     1      -1.482  -1.354  -5.745  0.00  0.00    +0.385 N 
ATOM     13  C   UNL     1      -0.259  -1.877  -6.364  0.00  0.00    -0.059 C 
ATOM     14  C   UNL     1       0.589  -2.584  -5.303  0.00  0.00    +0.087 C 
ATOM     15  H   UNL     1      -1.979  -2.109  -5.298  0.00  0.00    -0.081 HD
ENDROOT
BRANCH   1  18
ATOM     16  C   UNL     1      -2.352  -0.180  -0.908  0.00  0.00    +0.132 C 
ATOM     17  N   UNL     1      -1.106  -0.792  -0.439  0.00  0.00    -0.300 N 
ATOM     18  C   UNL     1      -0.006  -0.761  -1.217  0.00  0.00    +0.221 C 
ATOM     19  O   UNL     1       0.999  -1.345  -0.869  0.00  0.00    -0.275 OA
BRANCH  17  20
ATOM     20  C   UNL     1      -1.056  -1.437   0.875  0.00  0.00    +0.142 C 
BRANCH  20  21
ATOM     21  C   UNL     1      -1.423  -2.892   0.735  0.00  0.00    -0.030 A 
ATOM     22  C   UNL     1      -2.743  -3.286   0.843  0.00  0.00    +0.005 A 
ATOM     23  C   UNL     1      -3.079  -4.620   0.714  0.00  0.00    +0.000 A 
ATOM     24  C   UNL     1      -2.095  -5.561   0.477  0.00  0.00    +0.000 A 
ATOM     25  C   UNL     1      -0.774  -5.168   0.369  0.00  0.00    +0.000 A 
ATOM     26  C   UNL     1      -0.439  -3.832   0.493  0.00  0.00    +0.005 A 
ENDBRANCH  20  21
ENDBRANCH  17  20
ENDBRANCH   1  18
BRANCH   5  27
ATOM     27  C   UNL     1       6.151  -0.440  -2.654  0.00  0.00    +0.417 C 
ATOM     28  F   UNL     1       6.417  -1.052  -1.425  0.00  0.00    -0.166 F 
ATOM     29  F   UNL     1       7.041  -0.925  -3.619  0.00  0.00    -0.166 F 
ATOM     30  F   UNL     1       6.309   0.945  -2.529  0.00  0.00    -0.166 F 
ENDBRANCH   5  27
BRANCH  12  31
ATOM     31  C   UNL     1      -2.335  -0.762  -6.785  0.00  0.00    -0.043 C 
BRANCH  31  32
ATOM     32  C   UNL     1      -2.773  -1.837  -7.747  0.00  0.00    -0.064 A 
ATOM     33  C   UNL     1      -2.004  -2.123  -8.859  0.00  0.00    +0.002 A 
ATOM     34  C   UNL     1      -2.405  -3.109  -9.742  0.00  0.00    +0.000 A 
ATOM     35  C   UNL     1      -3.576  -3.808  -9.511  0.00  0.00    +0.000 A 
ATOM     36  C   UNL     1      -4.344  -3.522  -8.399  0.00  0.00    +0.000 A 
ATOM     37  C   UNL     1      -3.940  -2.539  -7.514  0.00  0.00    +0.002 A 
ENDBRANCH  31  32
ENDBRANCH  12  31
TORSDOF 6
