REMARK  Name = ZINC35246629
REMARK  7 active torsions:
REMARK  status: ('A' for Active; 'I' for Inactive)
REMARK    1  A    between atoms: C_1  and  C_2
REMARK    2  A    between atoms: C_5  and  N_9
REMARK    3  A    between atoms: C_6  and  C_8
REMARK    4  A    between atoms: N_12  and  C_13
REMARK    5  A    between atoms: N_12  and  C_37
REMARK    6  A    between atoms: C_13  and  C_14
REMARK    7  A    between atoms: C_28  and  C_30
REMARK                            x       y       z     vdW  Elec       q    Type
REMARK                         _______ _______ _______ _____ _____    ______ ____
ROOT
ATOM      1  C   UNL     1       1.305  -7.256  -2.829  0.00  0.00    +0.238 C 
ATOM      2  O   UNL     1       2.210  -7.007  -2.061  0.00  0.00    -0.273 OA
ATOM      3  N   UNL     1       1.568  -7.846  -4.012  0.00  0.00    -0.255 N 
ATOM      4  C   UNL     1       2.873  -8.259  -4.313  0.00  0.00    +0.061 A 
ATOM      5  C   UNL     1       3.742  -8.640  -3.303  0.00  0.00    +0.025 A 
ATOM      6  C   UNL     1       5.029  -9.035  -3.614  0.00  0.00    +0.002 A 
ATOM      7  C   UNL     1       5.459  -9.052  -4.928  0.00  0.00    +0.002 A 
ATOM      8  C   UNL     1       4.599  -8.678  -5.945  0.00  0.00    +0.028 A 
ATOM      9  C   UNL     1       3.309  -8.288  -5.642  0.00  0.00    +0.068 A 
ATOM     10  N   UNL     1       2.392  -7.926  -6.640  0.00  0.00    -0.316 N 
ATOM     11  C   UNL     1       2.592  -7.645  -7.950  0.00  0.00    +0.092 A 
ATOM     12  C   UNL     1       1.396  -7.342  -8.503  0.00  0.00    +0.020 A 
ATOM     13  C   UNL     1       0.419  -7.442  -7.488  0.00  0.00    +0.025 A 
ATOM     14  C   UNL     1       1.048  -7.801  -6.363  0.00  0.00    +0.049 A 
ATOM     15  C   UNL     1       0.482  -8.061  -4.984  0.00  0.00    +0.159 C 
ENDROOT
BRANCH  15  16
ATOM     16  C   UNL     1      -0.014  -9.480  -4.889  0.00  0.00    -0.021 A 
ATOM     17  C   UNL     1       0.884 -10.515  -4.705  0.00  0.00    +0.007 A 
ATOM     18  C   UNL     1       0.429 -11.818  -4.618  0.00  0.00    +0.020 A 
ATOM     19  C   UNL     1      -0.924 -12.086  -4.716  0.00  0.00    +0.041 A 
ATOM     20  C   UNL     1      -1.823 -11.049  -4.900  0.00  0.00    +0.020 A 
ATOM     21  C   UNL     1      -1.367  -9.747  -4.981  0.00  0.00    +0.007 A 
ATOM     22 CL   UNL     1      -1.496 -13.721  -4.607  0.00  0.00    -0.084 Cl
ENDBRANCH  15  16
BRANCH   1  23
ATOM     23  C   UNL     1      -0.114  -6.905  -2.461  0.00  0.00    +0.205 C 
BRANCH  23  27
ATOM     24  N   UNL     1       0.071  -4.480   0.294  0.00  0.00    -0.269 N 
ATOM     25  C   UNL     1      -0.007  -4.999  -0.947  0.00  0.00    +0.307 C 
ATOM     26  O   UNL     1       0.044  -4.266  -1.916  0.00  0.00    -0.252 OA
ATOM     27  N   UNL     1      -0.141  -6.330  -1.114  0.00  0.00    -0.274 N 
ATOM     28  H   UNL     1       0.084  -5.068   1.066  0.00  0.00    +0.156 HD
BRANCH  24  33
ATOM     29  C   UNL     1       0.317   1.143   1.008  0.00  0.00    +0.044 C 
ATOM     30  C   UNL     1       0.252  -0.351   0.818  0.00  0.00    -0.050 A 
ATOM     31  C   UNL     1       0.741  -0.921  -0.343  0.00  0.00    +0.005 A 
ATOM     32  C   UNL     1       0.683  -2.289  -0.519  0.00  0.00    +0.024 A 
ATOM     33  C   UNL     1       0.132  -3.093   0.470  0.00  0.00    +0.038 A 
ATOM     34  C   UNL     1      -0.359  -2.517   1.635  0.00  0.00    -0.029 A 
ATOM     35  C   UNL     1      -0.292  -1.148   1.808  0.00  0.00    +0.008 A 
ATOM     36  C   UNL     1      -0.958  -3.385   2.711  0.00  0.00    +0.045 C 
ENDBRANCH  24  33
BRANCH  27  37
ATOM     37  C   UNL     1      -0.313  -7.200   0.051  0.00  0.00    +0.078 C 
ATOM     38  C   UNL     1      -0.780  -8.635  -0.202  0.00  0.00    +0.024 C 
ATOM     39  C   UNL     1       0.667  -8.364   0.215  0.00  0.00    +0.024 C 
ENDBRANCH  27  37
ENDBRANCH  23  27
ENDBRANCH   1  23
TORSDOF 5
