REMARK  Name = ZINC14990363
REMARK  8 active torsions:
REMARK  status: ('A' for Active; 'I' for Inactive)
REMARK    1  A    between atoms: C_1  and  C_2
REMARK    2  A    between atoms: C_3  and  C_8
REMARK    3  A    between atoms: N_5  and  C_7
REMARK    4  A    between atoms: C_8  and  N_54
REMARK    5  A    between atoms: C_9  and  C_10
REMARK    6  A    between atoms: C_9  and  N_54
REMARK    7  A    between atoms: N_18  and  C_21
REMARK    8  A    between atoms: C_21  and  C_22
REMARK                            x       y       z     vdW  Elec       q    Type
REMARK                         _______ _______ _______ _____ _____    ______ ____
ROOT
ATOM      1  C   UNL     1       2.812   5.604  -3.329  0.00  0.00    +0.001 A 
ATOM      2  C   UNL     1       3.600   4.746  -4.026  0.00  0.00    +0.017 A 
ATOM      3  C   UNL     1       4.056   3.523  -3.367  0.00  0.00    +0.003 A 
ATOM      4  C   UNL     1       4.872   2.602  -4.037  0.00  0.00    +0.059 A 
ATOM      5  C   UNL     1       5.285   1.459  -3.390  0.00  0.00    +0.167 A 
ATOM      6  C   UNL     1       4.893   1.215  -2.068  0.00  0.00    +0.168 A 
ATOM      7  C   UNL     1       4.088   2.119  -1.399  0.00  0.00    +0.076 A 
ATOM      8  C   UNL     1       3.668   3.280  -2.035  0.00  0.00    +0.056 A 
ATOM      9  N   UNL     1       2.861   4.191  -1.384  0.00  0.00    -0.303 N 
ATOM     10  C   UNL     1       2.448   5.313  -1.999  0.00  0.00    +0.253 A 
ATOM     11  O   UNL     1       1.740   6.098  -1.391  0.00  0.00    -0.267 OA
ATOM     12  O   UNL     1       5.432   0.027  -1.669  0.00  0.00    -0.453 OA
ATOM     13  C   UNL     1       6.488  -0.252  -2.607  0.00  0.00    +0.466 C 
ATOM     14  O   UNL     1       6.068   0.421  -3.808  0.00  0.00    -0.453 OA
ENDROOT
BRANCH   1  15
ATOM     15  C   UNL     1       2.325   6.873  -3.980  0.00  0.00    -0.041 C 
BRANCH  15  16
ATOM     16  N   UNL     1       0.981   6.642  -4.542  0.00  0.00    +0.385 N 
ATOM     17  H   UNL     1       1.030   5.890  -5.239  0.00  0.00    -0.085 HD
ATOM     18  H   UNL     1       0.340   6.369  -3.788  0.00  0.00    -0.085 HD
BRANCH  16  19
ATOM     19  C   UNL     1       0.478   7.870  -5.187  0.00  0.00    -0.043 C 
BRANCH  19  22
ATOM     20  C   UNL     1      -2.236   7.846  -3.551  0.00  0.00    +0.068 C 
ATOM     21  C   UNL     1      -2.092   7.594  -5.030  0.00  0.00    +0.061 A 
ATOM     22  C   UNL     1      -0.894   7.605  -5.751  0.00  0.00    -0.024 A 
ATOM     23  C   UNL     1      -1.185   7.341  -7.046  0.00  0.00    +0.110 A 
ATOM     24  N   UNL     1      -2.519   7.161  -7.139  0.00  0.00    -0.274 N 
ATOM     25  N   UNL     1      -3.067   7.328  -5.861  0.00  0.00    -0.177 NA
ATOM     26  C   UNL     1      -3.264   6.851  -8.362  0.00  0.00    +0.172 C 
ENDBRANCH  19  22
ENDBRANCH  16  19
ENDBRANCH  15  16
ENDBRANCH   1  15
BRANCH   9  27
ATOM     27  C   UNL     1       2.454   3.935  -0.000  0.00  0.00    +0.160 C 
BRANCH  27  28
ATOM     28  C   UNL     1       1.158   3.165   0.007  0.00  0.00    -0.025 A 
ATOM     29  C   UNL     1       1.175   1.783   0.000  0.00  0.00    +0.005 A 
ATOM     30  C   UNL     1      -0.013   1.076   0.008  0.00  0.00    +0.003 A 
ATOM     31  C   UNL     1      -1.219   1.750   0.017  0.00  0.00    +0.038 A 
ATOM     32  C   UNL     1      -1.237   3.135   0.030  0.00  0.00    +0.124 A 
ATOM     33  C   UNL     1      -0.047   3.842   0.022  0.00  0.00    +0.043 A 
ATOM     34  F   UNL     1      -2.416   3.795   0.044  0.00  0.00    -0.205 F 
ENDBRANCH  27  28
ENDBRANCH   9  27
TORSDOF 6
