REMARK  Name = ZINC38661717
REMARK  5 active torsions:
REMARK  status: ('A' for Active; 'I' for Inactive)
REMARK    1  A    between atoms: C_6  and  C_10
REMARK    2  A    between atoms: C_10  and  S_11
REMARK    3  A    between atoms: S_11  and  C_12
REMARK    4  A    between atoms: C_16  and  C_26
REMARK    5  A    between atoms: N_18  and  C_19
REMARK                            x       y       z     vdW  Elec       q    Type
REMARK                         _______ _______ _______ _____ _____    ______ ____
ROOT
ATOM      1  C   UNL     1      -5.102  -5.641  -1.638  0.00  0.00    +0.218 C 
ATOM      2  N   UNL     1      -4.235  -6.571  -0.879  0.00  0.00    -0.226 NA
ATOM      3  N   UNL     1      -4.478  -6.229   0.531  0.00  0.00    -0.230 NA
ATOM      4  C   UNL     1      -5.933  -5.928   0.556  0.00  0.00    +0.189 C 
ATOM      5  N   UNL     1      -6.183  -5.232  -0.724  0.00  0.00    -0.284 N 
ATOM      6  H   UNL     1      -4.484  -7.531  -1.066  0.00  0.00    +0.143 HD
ATOM      7  H   UNL     1      -4.259  -7.008   1.135  0.00  0.00    +0.143 HD
ENDROOT
BRANCH   5   8
ATOM      8  C   UNL     1      -7.235  -4.359  -1.011  0.00  0.00    +0.033 A 
ATOM      9  C   UNL     1      -8.253  -4.168  -0.085  0.00  0.00    +0.024 A 
ATOM     10  C   UNL     1      -9.292  -3.304  -0.371  0.00  0.00    +0.017 A 
ATOM     11  C   UNL     1      -9.320  -2.630  -1.579  0.00  0.00    +0.018 A 
ATOM     12  C   UNL     1      -8.308  -2.819  -2.503  0.00  0.00    +0.017 A 
ATOM     13  C   UNL     1      -7.263  -3.676  -2.220  0.00  0.00    +0.024 A 
ATOM     14 BR   UNL     1     -10.745  -1.450  -1.968  0.00  0.00    -0.050 Br
ENDBRANCH   5   8
BRANCH   4  15
ATOM     15  C   UNL     1      -6.265  -5.030   1.721  0.00  0.00    -0.009 A 
ATOM     16  C   UNL     1      -6.129  -3.655   1.618  0.00  0.00    +0.024 A 
ATOM     17  C   UNL     1      -6.444  -2.864   2.707  0.00  0.00    +0.083 A 
ATOM     18  N   UNL     1      -6.868  -3.404   3.833  0.00  0.00    -0.367 N 
ATOM     19  C   UNL     1      -7.009  -4.708   3.966  0.00  0.00    +0.083 A 
ATOM     20  C   UNL     1      -6.720  -5.561   2.918  0.00  0.00    +0.024 A 
ATOM     21  H   UNL     1      -7.081  -2.826   4.583  0.00  0.00    +0.165 HD
ENDBRANCH   4  15
BRANCH   1  22
ATOM     22  S   UNL     1      -4.148  -4.189  -2.160  0.00  0.00    -0.114 S 
BRANCH  22  23
ATOM     23  C   UNL     1      -3.518  -3.496  -0.607  0.00  0.00    +0.146 C 
BRANCH  23  29
ATOM     24  C   UNL     1       0.259   1.037  -1.828  0.00  0.00    +0.002 A 
ATOM     25  C   UNL     1      -0.900   1.792  -1.710  0.00  0.00    +0.002 A 
ATOM     26  C   UNL     1      -2.094   1.194  -1.425  0.00  0.00    +0.030 A 
ATOM     27  C   UNL     1      -2.155  -0.191  -1.248  0.00  0.00    +0.089 A 
ATOM     28  N   UNL     1      -3.163  -1.055  -0.964  0.00  0.00    -0.232 NA
ATOM     29  C   UNL     1      -2.696  -2.267  -0.902  0.00  0.00    +0.118 A 
ATOM     30  N   UNL     1      -1.357  -2.265  -1.143  0.00  0.00    -0.341 N 
ATOM     31  C   UNL     1      -0.983  -0.955  -1.367  0.00  0.00    +0.066 A 
ATOM     32  C   UNL     1       0.223  -0.330  -1.658  0.00  0.00    +0.028 A 
ATOM     33  H   UNL     1      -0.773  -3.040  -1.155  0.00  0.00    +0.167 HD
ENDBRANCH  23  29
ENDBRANCH  22  23
ENDBRANCH   1  22
TORSDOF 5
