REMARK  Name = ZINC21233647
REMARK  7 active torsions:
REMARK  status: ('A' for Active; 'I' for Inactive)
REMARK    1  A    between atoms: C_1  and  C_2
REMARK    2  A    between atoms: C_11  and  N_29
REMARK    3  A    between atoms: C_13  and  S_15
REMARK    4  A    between atoms: S_15  and  C_16
REMARK    5  A    between atoms: C_16  and  C_18
REMARK    6  A    between atoms: C_16  and  C_19
REMARK    7  A    between atoms: N_21  and  C_22
REMARK                            x       y       z     vdW  Elec       q    Type
REMARK                         _______ _______ _______ _____ _____    ______ ____
ROOT
ATOM      1  C   UNL     1       2.343  -6.850  -0.159  0.00  0.00    +0.008 C 
ATOM      2  C   UNL     1       2.028  -5.384   0.146  0.00  0.00    -0.009 C 
ATOM      3  C   UNL     1       0.826  -4.930  -0.687  0.00  0.00    +0.008 C 
ATOM      4  C   UNL     1       0.353  -3.556  -0.210  0.00  0.00    +0.037 C 
ATOM      5  C   UNL     1       1.545  -2.602  -0.197  0.00  0.00    -0.025 A 
ATOM      6  C   UNL     1       2.806  -3.076  -0.202  0.00  0.00    -0.004 A 
ATOM      7  S   UNL     1       3.842  -1.637  -0.182  0.00  0.00    -0.073 S 
ATOM      8  C   UNL     1       2.574  -0.396  -0.168  0.00  0.00    +0.115 A 
ATOM      9  C   UNL     1       1.381  -1.146  -0.179  0.00  0.00    +0.051 A 
ATOM     10  C   UNL     1       0.178  -0.386  -0.170  0.00  0.00    +0.129 A 
ATOM     11  N   UNL     1       0.248   0.934  -0.153  0.00  0.00    -0.207 NA
ATOM     12  C   UNL     1       1.409   1.580  -0.143  0.00  0.00    +0.192 A 
ATOM     13  N   UNL     1       2.561   0.923  -0.150  0.00  0.00    -0.214 NA
ATOM     14  C   UNL     1       3.237  -4.511  -0.219  0.00  0.00    +0.046 C 
ENDROOT
BRANCH  10  15
ATOM     15  N   UNL     1      -1.050  -1.022  -0.180  0.00  0.00    -0.343 N 
ATOM     16  H   UNL     1      -1.976  -0.428  -0.174  0.00  0.00    +0.144 HD
ATOM     17  H   UNL     1      -1.101  -2.120  -0.194  0.00  0.00    +0.144 HD
ENDBRANCH  10  15
BRANCH  12  18
ATOM     18  S   UNL     1       1.417   3.341  -0.120  0.00  0.00    -0.073 S 
BRANCH  18  19
ATOM     19  C   UNL     1      -0.363   3.665  -0.119  0.00  0.00    +0.137 C 
ATOM     20  C   UNL     1      -0.972   3.173  -1.433  0.00  0.00    +0.029 C 
BRANCH  19  21
ATOM     21  C   UNL     1      -0.605   5.146   0.024  0.00  0.00    +0.230 C 
ATOM     22  O   UNL     1       0.245   5.935  -0.329  0.00  0.00    -0.274 OA
ATOM     23  N   UNL     1      -1.765   5.592   0.544  0.00  0.00    -0.282 N 
ATOM     24  H   UNL     1      -2.496   4.878   0.952  0.00  0.00    +0.155 HD
BRANCH  23  25
ATOM     25  C   UNL     1      -2.041   6.965   0.566  0.00  0.00    +0.069 A 
ATOM     26  C   UNL     1      -1.587   7.782  -0.461  0.00  0.00    +0.026 A 
ATOM     27  C   UNL     1      -1.864   9.135  -0.440  0.00  0.00    +0.002 A 
ATOM     28  C   UNL     1      -2.585   9.679   0.608  0.00  0.00    +0.003 A 
ATOM     29  C   UNL     1      -3.035   8.870   1.635  0.00  0.00    +0.040 A 
ATOM     30  C   UNL     1      -2.765   7.514   1.618  0.00  0.00    +0.144 A 
ATOM     31  F   UNL     1      -3.204   6.724   2.622  0.00  0.00    -0.204 F 
ENDBRANCH  23  25
ENDBRANCH  19  21
ENDBRANCH  18  19
ENDBRANCH  12  18
TORSDOF 5
