REMARK  Name = ZINC12346099
REMARK  7 active torsions:
REMARK  status: ('A' for Active; 'I' for Inactive)
REMARK    1  A    between atoms: C_1  and  C_2
REMARK    2  A    between atoms: C_2  and  C_13
REMARK    3  A    between atoms: C_5  and  C_10
REMARK    4  A    between atoms: C_7  and  C_8
REMARK    5  A    between atoms: C_7  and  C_9
REMARK    6  A    between atoms: N_15  and  C_16
REMARK    7  A    between atoms: C_19  and  S_22
REMARK                            x       y       z     vdW  Elec       q    Type
REMARK                         _______ _______ _______ _____ _____    ______ ____
ROOT
ATOM      1  C   UNL     1      -1.286  -0.884  -0.205  0.00  0.00    +0.224 C 
ATOM      2  O   UNL     1      -1.562  -1.624  -1.125  0.00  0.00    -0.275 OA
ATOM      3  N   UNL     1      -2.187  -0.654   0.770  0.00  0.00    -0.285 N 
ATOM      4  H   UNL     1      -1.942  -0.119   1.541  0.00  0.00    +0.155 HD
ENDROOT
BRANCH   1   6
ATOM      5  C   UNL     1      -0.097   1.292   0.007  0.00  0.00    +0.021 C 
ATOM      6  C   UNL     1       0.067  -0.221  -0.152  0.00  0.00    +0.050 C 
ATOM      7  C   UNL     1       0.861  -0.534  -1.437  0.00  0.00    +0.017 C 
ATOM      8  C   UNL     1       1.742  -1.749  -1.053  0.00  0.00    +0.016 C 
ATOM      9  C   UNL     1       2.150  -1.427   0.407  0.00  0.00    +0.109 C 
ATOM     10  C   UNL     1       0.886  -0.789   1.020  0.00  0.00    -0.008 C 
ATOM     11  C   UNL     1       1.281   0.338   1.978  0.00  0.00    +0.013 C 
ATOM     12  C   UNL     1       0.072  -1.849   1.764  0.00  0.00    +0.013 C 
BRANCH   9  13
ATOM     13  C   UNL     1       2.517  -2.690   1.143  0.00  0.00    +0.360 C 
ATOM     14  O   UNL     1       3.386  -2.667   1.997  0.00  0.00    -0.246 OA
ATOM     15  O   UNL     1       1.944  -3.735   0.883  0.00  0.00    -0.246 OA
ENDBRANCH   9  13
ENDBRANCH   1   6
BRANCH   3  16
ATOM     16  C   UNL     1      -3.477  -1.188   0.670  0.00  0.00    +0.034 A 
ATOM     17  C   UNL     1      -4.566  -0.468   1.142  0.00  0.00    +0.025 A 
ATOM     18  C   UNL     1      -5.838  -0.997   1.042  0.00  0.00    +0.031 A 
ATOM     19  C   UNL     1      -6.027  -2.243   0.473  0.00  0.00    +0.120 A 
ATOM     20  C   UNL     1      -4.944  -2.963   0.003  0.00  0.00    +0.031 A 
ATOM     21  C   UNL     1      -3.671  -2.437   0.094  0.00  0.00    +0.025 A 
BRANCH  19  22
ATOM     22  S   UNL     1      -7.651  -2.915   0.347  0.00  0.00    +0.140 S 
ATOM     23  O   UNL     1      -7.516  -4.362   0.420  0.00  0.00    -0.140 OA
ATOM     24  O   UNL     1      -8.415  -2.384   1.465  0.00  0.00    -0.140 OA
ATOM     25  O   UNL     1      -8.189  -2.483  -0.933  0.00  0.00    -0.043 OA
ENDBRANCH  19  22
ENDBRANCH   3  16
TORSDOF 4
