REMARK  Name = ZINC12333840
REMARK  10 active torsions:
REMARK  status: ('A' for Active; 'I' for Inactive)
REMARK    1  A    between atoms: C_1  and  C_2
REMARK    2  A    between atoms: C_2  and  N_3
REMARK    3  A    between atoms: N_3  and  C_4
REMARK    4  A    between atoms: C_4  and  C_5
REMARK    5  A    between atoms: C_6  and  C_8
REMARK    6  A    between atoms: C_14  and  C_15
REMARK    7  A    between atoms: C_14  and  N_77
REMARK    8  A    between atoms: C_18  and  C_23
REMARK    9  A    between atoms: N_25  and  C_26
REMARK   10  A    between atoms: C_26  and  C_27
REMARK                            x       y       z     vdW  Elec       q    Type
REMARK                         _______ _______ _______ _____ _____    ______ ____
ROOT
ATOM      1  C   UNL     1      -2.863   0.658   1.090  0.00  0.00    +0.003 A 
ATOM      2  C   UNL     1      -3.119   1.991   1.122  0.00  0.00    +0.020 A 
ATOM      3  C   UNL     1      -2.146   2.881   1.575  0.00  0.00    +0.020 A 
ATOM      4  C   UNL     1      -0.916   2.378   1.996  0.00  0.00    +0.101 A 
ATOM      5  C   UNL     1      -0.698   0.977   1.950  0.00  0.00    +0.261 A 
ATOM      6  O   UNL     1       0.369   0.513   2.312  0.00  0.00    -0.267 OA
ATOM      7  N   UNL     1      -1.672   0.162   1.503  0.00  0.00    -0.327 N 
ATOM      8  H   UNL     1      -1.517  -0.795   1.473  0.00  0.00    +0.169 HD
ENDROOT
BRANCH   4   9
ATOM      9  C   UNL     1       0.136   3.284   2.481  0.00  0.00    +0.249 C 
ATOM     10  O   UNL     1      -0.099   4.470   2.619  0.00  0.00    -0.270 OA
ATOM     11  N   UNL     1       1.360   2.801   2.771  0.00  0.00    -0.311 N 
ATOM     12  H   UNL     1       1.576   1.876   2.575  0.00  0.00    +0.149 HD
BRANCH  11  13
ATOM     13  C   UNL     1       2.365   3.673   3.384  0.00  0.00    +0.108 C 
BRANCH  13  14
ATOM     14  C   UNL     1       3.657   2.884   3.608  0.00  0.00    +0.012 C 
ATOM     15  C   UNL     1       3.405   1.774   4.631  0.00  0.00    -0.006 C 
ATOM     16  C   UNL     1       4.697   0.985   4.855  0.00  0.00    +0.007 C 
ATOM     17  C   UNL     1       5.785   1.925   5.379  0.00  0.00    -0.010 C 
ATOM     18  C   UNL     1       5.330   2.544   6.702  0.00  0.00    +0.007 C 
ATOM     19  C   UNL     1       4.038   3.333   6.478  0.00  0.00    -0.010 C 
ATOM     20  C   UNL     1       2.950   2.394   5.954  0.00  0.00    +0.007 C 
ATOM     21  C   UNL     1       4.289   4.443   5.455  0.00  0.00    +0.007 C 
ATOM     22  C   UNL     1       4.744   3.824   4.132  0.00  0.00    -0.006 C 
ATOM     23  C   UNL     1       6.036   3.034   4.356  0.00  0.00    +0.007 C 
ENDBRANCH  13  14
ENDBRANCH  11  13
ENDBRANCH   4   9
BRANCH   1  24
ATOM     24  C   UNL     1      -3.924  -0.288   0.590  0.00  0.00    -0.025 C 
BRANCH  24  30
ATOM     25  C   UNL     1      -2.060  -2.655  -1.669  0.00  0.00    +0.059 C 
ATOM     26  C   UNL     1      -1.590  -1.649  -2.723  0.00  0.00    +0.009 C 
ATOM     27  C   UNL     1      -2.691  -0.610  -2.953  0.00  0.00    -0.018 C 
ATOM     28  C   UNL     1      -3.021   0.077  -1.626  0.00  0.00    -0.078 C 
ATOM     29  C   UNL     1      -2.409  -1.908  -0.379  0.00  0.00    -0.066 C 
ATOM     30  N   UNL     1      -3.491  -0.941  -0.662  0.00  0.00    +0.384 N 
ATOM     31  H   UNL     1      -4.288  -1.443  -1.070  0.00  0.00    -0.081 HD
BRANCH  25  33
ATOM     32  N   UNL     1      -0.758  -4.680  -2.236  0.00  0.00    -0.302 N 
ATOM     33  C   UNL     1      -0.960  -3.647  -1.393  0.00  0.00    +0.217 C 
ATOM     34  O   UNL     1      -0.256  -3.516  -0.414  0.00  0.00    -0.275 OA
BRANCH  32  36
ATOM     35  C   UNL     1      -0.491  -6.872  -1.186  0.00  0.00    +0.024 C 
ATOM     36  C   UNL     1       0.218  -5.719  -1.899  0.00  0.00    +0.104 C 
ENDBRANCH  32  36
BRANCH  32  37
ATOM     37  C   UNL     1      -1.514  -4.763  -3.487  0.00  0.00    +0.104 C 
ATOM     38  C   UNL     1      -0.660  -4.220  -4.636  0.00  0.00    +0.024 C 
ENDBRANCH  32  37
ENDBRANCH  25  33
ENDBRANCH  24  30
ENDBRANCH   1  24
TORSDOF 8
