REMARK  Name = ZINC39852052
REMARK  4 active torsions:
REMARK  status: ('A' for Active; 'I' for Inactive)
REMARK    1  A    between atoms: C_3  and  N_17
REMARK    2  A    between atoms: C_6  and  C_7
REMARK    3  A    between atoms: N_9  and  C_10
REMARK    4  A    between atoms: C_20  and  C_22
REMARK                            x       y       z     vdW  Elec       q    Type
REMARK                         _______ _______ _______ _____ _____    ______ ____
ROOT
ATOM      1  C   UNL     1      -0.012   1.383  -0.161  0.00  0.00    +0.015 A 
ATOM      2  C   UNL     1       1.172   2.087  -0.168  0.00  0.00    +0.028 A 
ATOM      3  C   UNL     1       2.381   1.417  -0.013  0.00  0.00    +0.066 A 
ATOM      4  C   UNL     1       2.399   0.036   0.148  0.00  0.00    +0.028 A 
ATOM      5  C   UNL     1       1.219  -0.674   0.157  0.00  0.00    +0.015 A 
ATOM      6  C   UNL     1       0.002  -0.004   0.002  0.00  0.00    +0.037 A 
ENDROOT
BRANCH   3   7
ATOM      7  N   UNL     1       3.580   2.134  -0.022  0.00  0.00    -0.231 N 
ATOM      8  C   UNL     1       3.813   3.301   0.605  0.00  0.00    +0.082 A 
ATOM      9  C   UNL     1       5.133   3.651   0.372  0.00  0.00    +0.011 A 
ATOM     10  C   UNL     1       5.680   2.674  -0.443  0.00  0.00    +0.169 A 
ATOM     11  N   UNL     1       4.765   1.763  -0.681  0.00  0.00    -0.161 NA
ATOM     12  C   UNL     1       5.766   4.875   0.975  0.00  0.00    +0.047 C 
ATOM     13  C   UNL     1       4.744   5.996   1.173  0.00  0.00    +0.080 C 
ATOM     14  C   UNL     1       3.443   5.463   1.713  0.00  0.00    +0.114 A 
ATOM     15  C   UNL     1       2.987   4.198   1.426  0.00  0.00    +0.042 A 
ATOM     16  C   UNL     1       1.696   4.065   2.064  0.00  0.00    +0.051 A 
ATOM     17  C   UNL     1       1.486   5.234   2.705  0.00  0.00    +0.196 A 
ATOM     18  O   UNL     1       2.542   6.044   2.503  0.00  0.00    -0.467 OA
BRANCH  10  19
ATOM     19  C   UNL     1       7.093   2.657  -0.966  0.00  0.00    +0.436 C 
ATOM     20  F   UNL     1       7.917   1.979  -0.061  0.00  0.00    -0.164 F 
ATOM     21  F   UNL     1       7.125   2.007  -2.204  0.00  0.00    -0.164 F 
ATOM     22  F   UNL     1       7.551   3.971  -1.117  0.00  0.00    -0.164 F 
ENDBRANCH  10  19
ENDBRANCH   3   7
BRANCH   6  23
ATOM     23  C   UNL     1      -1.265  -0.761   0.011  0.00  0.00    +0.244 C 
ATOM     24  O   UNL     1      -2.323  -0.177  -0.124  0.00  0.00    -0.270 OA
ATOM     25  N   UNL     1      -1.250  -2.100   0.168  0.00  0.00    -0.308 N 
ATOM     26  H   UNL     1      -0.406  -2.566   0.275  0.00  0.00    +0.149 HD
BRANCH  25  27
ATOM     27  C   UNL     1      -2.507  -2.851   0.176  0.00  0.00    +0.073 C 
ATOM     28  C   UNL     1      -3.128  -2.770   1.585  0.00  0.00    +0.022 C 
ATOM     29  C   UNL     1      -4.598  -3.074   1.478  0.00  0.00    +0.002 C 
ATOM     30  C   UNL     1      -4.913  -4.560   1.737  0.00  0.00    +0.000 C 
ATOM     31  C   UNL     1      -3.899  -5.510   1.072  0.00  0.00    +0.000 C 
ATOM     32  C   UNL     1      -3.525  -5.071  -0.318  0.00  0.00    +0.002 C 
ATOM     33  C   UNL     1      -2.240  -4.222  -0.235  0.00  0.00    +0.022 C 
ENDBRANCH  25  27
ENDBRANCH   6  23
TORSDOF 4
