REMARK  Name = ZINC16570141
REMARK  11 active torsions:
REMARK  status: ('A' for Active; 'I' for Inactive)
REMARK    1  A    between atoms: C_1  and  C_2
REMARK    2  A    between atoms: C_2  and  C_3
REMARK    3  A    between atoms: C_3  and  C_4
REMARK    4  A    between atoms: C_4  and  N_5
REMARK    5  A    between atoms: N_5  and  C_6
REMARK    6  A    between atoms: C_6  and  C_7
REMARK    7  A    between atoms: C_21  and  C_23
REMARK    8  A    between atoms: C_27  and  C_29
REMARK    9  A    between atoms: C_30  and  C_32
REMARK   10  A    between atoms: C_32  and  S_33
REMARK   11  A    between atoms: S_33  and  C_34
REMARK                            x       y       z     vdW  Elec       q    Type
REMARK                         _______ _______ _______ _____ _____    ______ ____
ROOT
ATOM      1  C   UNL     1      -0.887   6.220   2.161  0.00  0.00    +0.238 C 
ATOM      2  O   UNL     1       0.234   6.097   2.607  0.00  0.00    -0.273 OA
ATOM      3  N   UNL     1      -1.158   5.823   0.902  0.00  0.00    -0.255 N 
ATOM      4  C   UNL     1      -0.122   5.376   0.070  0.00  0.00    +0.061 A 
ATOM      5  C   UNL     1       1.169   5.849   0.238  0.00  0.00    +0.025 A 
ATOM      6  C   UNL     1       2.186   5.383  -0.574  0.00  0.00    +0.002 A 
ATOM      7  C   UNL     1       1.923   4.445  -1.556  0.00  0.00    +0.002 A 
ATOM      8  C   UNL     1       0.636   3.970  -1.736  0.00  0.00    +0.028 A 
ATOM      9  C   UNL     1      -0.385   4.434  -0.930  0.00  0.00    +0.068 A 
ATOM     10  N   UNL     1      -1.707   3.990  -1.080  0.00  0.00    -0.316 N 
ATOM     11  C   UNL     1      -2.202   2.942  -1.781  0.00  0.00    +0.092 A 
ATOM     12  C   UNL     1      -3.543   2.917  -1.609  0.00  0.00    +0.020 A 
ATOM     13  C   UNL     1      -3.885   3.998  -0.767  0.00  0.00    +0.025 A 
ATOM     14  C   UNL     1      -2.753   4.638  -0.460  0.00  0.00    +0.049 A 
ATOM     15  C   UNL     1      -2.543   5.861   0.402  0.00  0.00    +0.159 C 
ENDROOT
BRANCH  15  16
ATOM     16  C   UNL     1      -2.756   7.106  -0.419  0.00  0.00    -0.021 A 
ATOM     17  C   UNL     1      -1.751   7.567  -1.250  0.00  0.00    +0.006 A 
ATOM     18  C   UNL     1      -1.948   8.708  -2.006  0.00  0.00    +0.001 A 
ATOM     19  C   UNL     1      -3.147   9.393  -1.924  0.00  0.00    +0.003 A 
ATOM     20  C   UNL     1      -4.151   8.931  -1.094  0.00  0.00    -0.050 A 
ATOM     21  C   UNL     1      -3.955   7.788  -0.341  0.00  0.00    +0.009 A 
ATOM     22  C   UNL     1      -5.459   9.675  -1.009  0.00  0.00    +0.044 C 
ENDBRANCH  15  16
BRANCH   1  23
ATOM     23  C   UNL     1      -1.976   6.816   3.015  0.00  0.00    +0.204 C 
BRANCH  23  24
ATOM     24  N   UNL     1      -1.408   7.268   4.287  0.00  0.00    -0.292 N 
ATOM     25  C   UNL     1      -0.937   8.525   4.406  0.00  0.00    +0.226 C 
ATOM     26  O   UNL     1      -0.985   9.283   3.460  0.00  0.00    -0.275 OA
BRANCH  24  27
ATOM     27  C   UNL     1      -1.350   6.353   5.430  0.00  0.00    +0.108 C 
BRANCH  27  28
ATOM     28  C   UNL     1      -0.026   5.587   5.404  0.00  0.00    +0.019 C 
BRANCH  28  30
ATOM     29  C   UNL     1       1.358   3.865   6.572  0.00  0.00    +0.004 C 
ATOM     30  C   UNL     1       0.034   4.632   6.598  0.00  0.00    -0.002 C 
ENDBRANCH  28  30
ENDBRANCH  27  28
ENDBRANCH  24  27
BRANCH  25  31
ATOM     31  C   UNL     1      -0.352   8.990   5.715  0.00  0.00    +0.170 C 
BRANCH  31  32
ATOM     32  S   UNL     1       0.189  10.715   5.556  0.00  0.00    -0.116 S 
BRANCH  32  33
ATOM     33  C   UNL     1       0.839  11.105   7.146  0.00  0.00    +0.008 A 
ATOM     34  C   UNL     1       0.833  10.149   8.155  0.00  0.00    +0.015 A 
ATOM     35  C   UNL     1       1.350  10.456   9.399  0.00  0.00    +0.001 A 
ATOM     36  C   UNL     1       1.862  11.717   9.644  0.00  0.00    +0.000 A 
ATOM     37  C   UNL     1       1.865  12.673   8.644  0.00  0.00    +0.001 A 
ATOM     38  C   UNL     1       1.355  12.371   7.396  0.00  0.00    +0.015 A 
ENDBRANCH  32  33
ENDBRANCH  31  32
ENDBRANCH  25  31
ENDBRANCH  23  24
ENDBRANCH   1  23
TORSDOF 9
