REMARK  Name = ZINC33339620
REMARK  7 active torsions:
REMARK  status: ('A' for Active; 'I' for Inactive)
REMARK    1  A    between atoms: C_1  and  C_2
REMARK    2  A    between atoms: C_2  and  C_3
REMARK    3  A    between atoms: C_3  and  N_4
REMARK    4  A    between atoms: C_8  and  C_9
REMARK    5  A    between atoms: C_10  and  N_21
REMARK    6  A    between atoms: C_15  and  C_20
REMARK    7  A    between atoms: N_24  and  C_27
REMARK                            x       y       z     vdW  Elec       q    Type
REMARK                         _______ _______ _______ _____ _____    ______ ____
ROOT
ATOM      1  C   UNL     1       3.281   3.021   4.257  0.00  0.00    +0.081 A 
ATOM      2  C   UNL     1       4.241   3.733   5.014  0.00  0.00    +0.136 A 
ATOM      3  N   UNL     1       4.569   4.967   4.659  0.00  0.00    -0.214 NA
ATOM      4  C   UNL     1       4.011   5.563   3.606  0.00  0.00    +0.142 A 
ATOM      5  C   UNL     1       4.395   6.876   3.279  0.00  0.00    +0.047 A 
ATOM      6  C   UNL     1       3.829   7.495   2.204  0.00  0.00    +0.008 A 
ATOM      7  C   UNL     1       2.872   6.814   1.439  0.00  0.00    -0.034 A 
ATOM      8  C   UNL     1       2.513   5.553   1.768  0.00  0.00    +0.099 A 
ATOM      9  N   UNL     1       3.074   4.925   2.841  0.00  0.00    -0.267 N 
ATOM     10  C   UNL     1       2.694   3.665   3.142  0.00  0.00    +0.267 A 
ATOM     11  O   UNL     1       1.859   3.091   2.464  0.00  0.00    -0.267 OA
ATOM     12  C   UNL     1       2.241   7.490   0.249  0.00  0.00    +0.045 C 
ENDROOT
BRANCH   1  17
ATOM     13  N   UNL     1      -0.581   1.834   5.702  0.00  0.00    -0.255 N 
ATOM     14  C   UNL     1       0.563   2.336   5.272  0.00  0.00    +0.258 C 
ATOM     15  O   UNL     1       0.687   3.532   5.074  0.00  0.00    -0.269 OA
ATOM     16  C   UNL     1       1.647   1.440   5.046  0.00  0.00    +0.077 C 
ATOM     17  C   UNL     1       2.913   1.702   4.609  0.00  0.00    +0.037 C 
ATOM     18  S   UNL     1       0.898  -0.121   5.492  0.00  0.00    -0.061 S 
ATOM     19  C   UNL     1      -0.717   0.508   5.928  0.00  0.00    +0.121 C 
ATOM     20  S   UNL     1      -2.088  -0.351   6.487  0.00  0.00    -0.027 S 
BRANCH  13  21
ATOM     21  C   UNL     1      -1.716   2.727   5.945  0.00  0.00    +0.115 C 
BRANCH  21  23
ATOM     22  C   UNL     1      -3.731   3.791   4.918  0.00  0.00    +0.005 C 
ATOM     23  C   UNL     1      -2.545   2.857   4.665  0.00  0.00    +0.016 C 
ENDBRANCH  21  23
ENDBRANCH  13  21
ENDBRANCH   1  17
BRANCH   2  24
ATOM     24  N   UNL     1       4.834   3.146   6.111  0.00  0.00    -0.312 N 
ATOM     25  C   UNL     1       3.850   2.906   7.176  0.00  0.00    +0.125 C 
ATOM     26  C   UNL     1       4.529   2.183   8.341  0.00  0.00    +0.124 C 
ATOM     27  N   UNL     1       5.647   2.999   8.835  0.00  0.00    -0.325 N 
ATOM     28  C   UNL     1       6.631   3.239   7.771  0.00  0.00    +0.124 C 
ATOM     29  C   UNL     1       5.952   3.962   6.605  0.00  0.00    +0.125 C 
BRANCH  27  30
ATOM     30  C   UNL     1       6.248   2.404   9.948  0.00  0.00    +0.065 A 
ATOM     31  C   UNL     1       7.276   3.055  10.616  0.00  0.00    +0.026 A 
ATOM     32  C   UNL     1       7.869   2.464  11.715  0.00  0.00    +0.002 A 
ATOM     33  C   UNL     1       7.439   1.225  12.152  0.00  0.00    +0.003 A 
ATOM     34  C   UNL     1       6.415   0.572  11.491  0.00  0.00    +0.040 A 
ATOM     35  C   UNL     1       5.814   1.159  10.393  0.00  0.00    +0.144 A 
ATOM     36  F   UNL     1       4.810   0.524   9.751  0.00  0.00    -0.204 F 
ENDBRANCH  27  30
ENDBRANCH   2  24
TORSDOF 5
