REMARK  Name = ZINC38654223
REMARK  8 active torsions:
REMARK  status: ('A' for Active; 'I' for Inactive)
REMARK    1  A    between atoms: C_1  and  C_2
REMARK    2  A    between atoms: C_4  and  C_32
REMARK    3  A    between atoms: C_8  and  C_12
REMARK    4  A    between atoms: C_12  and  C_14
REMARK    5  A    between atoms: C_12  and  S_15
REMARK    6  A    between atoms: S_15  and  C_16
REMARK    7  A    between atoms: C_20  and  C_23
REMARK    8  A    between atoms: N_21  and  N_22
REMARK                            x       y       z     vdW  Elec       q    Type
REMARK                         _______ _______ _______ _____ _____    ______ ____
ROOT
ATOM      1  C   UNL     1       7.422  -4.968  -0.536  0.00  0.00    +0.252 C 
ATOM      2  N   UNL     1       6.841  -6.112   0.188  0.00  0.00    -0.236 N 
ATOM      3  N   UNL     1       7.469  -6.145   1.439  0.00  0.00    -0.167 NA
ATOM      4  C   UNL     1       8.332  -5.192   1.561  0.00  0.00    +0.163 C 
ATOM      5  N   UNL     1       8.396  -4.401   0.411  0.00  0.00    -0.220 N 
ATOM      6  H   UNL     1       6.160  -6.721  -0.138  0.00  0.00    +0.171 HD
ENDROOT
BRANCH   4   7
ATOM      7  C   UNL     1       9.154  -4.966   2.769  0.00  0.00    +0.036 A 
ATOM      8  C   UNL     1       8.540  -4.783   4.010  0.00  0.00    +0.014 A 
ATOM      9  C   UNL     1       9.312  -4.573   5.133  0.00  0.00    +0.021 A 
ATOM     10  C   UNL     1      10.693  -4.544   5.033  0.00  0.00    +0.042 A 
ATOM     11  C   UNL     1      11.308  -4.725   3.806  0.00  0.00    +0.040 A 
ATOM     12  C   UNL     1      10.547  -4.942   2.675  0.00  0.00    +0.053 A 
ATOM     13 CL   UNL     1      11.320  -5.175   1.138  0.00  0.00    -0.083 Cl
ATOM     14 CL   UNL     1      11.657  -4.279   6.453  0.00  0.00    -0.083 Cl
ENDBRANCH   4   7
BRANCH   5  15
ATOM     15  N   UNL     1       9.200  -3.316   0.205  0.00  0.00    -0.250 NA
ATOM     16  H   UNL     1       9.715  -3.084   1.042  0.00  0.00    +0.141 HD
ATOM     17  H   UNL     1       9.824  -3.472  -0.572  0.00  0.00    +0.141 HD
ENDBRANCH   5  15
BRANCH   1  18
ATOM     18  S   UNL     1       6.138  -3.750  -0.934  0.00  0.00    -0.106 S 
BRANCH  18  19
ATOM     19  C   UNL     1       5.414  -3.333   0.676  0.00  0.00    +0.112 C 
ATOM     20  C   UNL     1       6.466  -2.638   1.543  0.00  0.00    +0.027 C 
BRANCH  19  27
ATOM     21  C   UNL     1       0.580   2.107   1.515  0.00  0.00    +0.024 C 
ATOM     22  C   UNL     1       0.469   0.586   1.390  0.00  0.00    +0.076 C 
ATOM     23  C   UNL     1       1.039   0.108   0.073  0.00  0.00    -0.045 C 
ATOM     24  C   UNL     1       2.092  -0.722   0.113  0.00  0.00    +0.071 C 
ATOM     25  C   UNL     1       2.614  -1.105   1.442  0.00  0.00    +0.111 C 
ATOM     26  N   UNL     1       3.642  -1.914   1.547  0.00  0.00    -0.226 NA
ATOM     27  C   UNL     1       4.240  -2.410   0.475  0.00  0.00    +0.136 C 
ATOM     28  N   UNL     1       3.864  -2.141  -0.752  0.00  0.00    -0.160 NA
ATOM     29  C   UNL     1       2.836  -1.334  -1.034  0.00  0.00    +0.271 C 
ATOM     30  O   UNL     1       2.514  -1.104  -2.187  0.00  0.00    -0.268 OA
ATOM     31  S   UNL     1       1.569  -0.256   2.600  0.00  0.00    -0.098 S 
ATOM     32  C   UNL     1       0.444   0.549  -1.239  0.00  0.00    +0.041 C 
ENDBRANCH  19  27
ENDBRANCH  18  19
ENDBRANCH   1  18
TORSDOF 5
