REMARK  Name = ZINC04005092
REMARK  8 active torsions:
REMARK  status: ('A' for Active; 'I' for Inactive)
REMARK    1  A    between atoms: C_1  and  C_2
REMARK    2  A    between atoms: C_2  and  O_3
REMARK    3  A    between atoms: O_3  and  C_4
REMARK    4  A    between atoms: C_6  and  C_11
REMARK    5  A    between atoms: C_9  and  O_10
REMARK    6  A    between atoms: C_14  and  C_25
REMARK    7  A    between atoms: C_20  and  N_24
REMARK    8  A    between atoms: C_21  and  C_22
REMARK                            x       y       z     vdW  Elec       q    Type
REMARK                         _______ _______ _______ _____ _____    ______ ____
ROOT
ATOM      1  C   UNL     1      -0.229  -4.969   0.477  0.00  0.00    +0.102 C 
ATOM      2  C   UNL     1      -1.260  -5.861  -0.165  0.00  0.00    +0.054 A 
ATOM      3  C   UNL     1      -2.545  -5.545  -0.617  0.00  0.00    +0.100 A 
ATOM      4  N   UNL     1      -3.083  -6.644  -1.109  0.00  0.00    -0.171 NA
ATOM      5  N   UNL     1      -2.153  -7.688  -0.982  0.00  0.00    -0.246 N 
ATOM      6  H   UNL     1      -2.285  -8.607  -1.262  0.00  0.00    +0.192 HD
ATOM      7  C   UNL     1      -1.043  -7.187  -0.400  0.00  0.00    +0.223 A 
ATOM      8  O   UNL     1       0.117  -7.810  -0.072  0.00  0.00    -0.423 OA
ATOM      9  C   UNL     1       0.966  -7.157   0.747  0.00  0.00    +0.200 C 
ATOM     10  C   UNL     1       0.862  -5.842   1.046  0.00  0.00    +0.098 C 
ENDROOT
BRANCH   1  13
ATOM     11  C   UNL     1       0.777  -1.811  -1.336  0.00  0.00    +0.162 A 
ATOM     12  C   UNL     1       0.243  -2.669  -0.388  0.00  0.00    +0.054 A 
ATOM     13  C   UNL     1       0.352  -4.037  -0.555  0.00  0.00    -0.031 A 
ATOM     14  C   UNL     1       0.992  -4.552  -1.667  0.00  0.00    +0.008 A 
ATOM     15  C   UNL     1       1.526  -3.702  -2.616  0.00  0.00    +0.049 A 
ATOM     16  C   UNL     1       1.416  -2.330  -2.458  0.00  0.00    +0.158 A 
BRANCH  16  17
ATOM     17  O   UNL     1       1.936  -1.492  -3.394  0.00  0.00    -0.503 OA
ATOM     18  H   UNL     1       2.856  -1.241  -3.231  0.00  0.00    +0.292 HD
ENDBRANCH  16  17
BRANCH  11  19
ATOM     19  O   UNL     1       0.671  -0.465  -1.174  0.00  0.00    -0.489 OA
BRANCH  19  21
ATOM     20  C   UNL     1      -0.019   1.526   0.010  0.00  0.00    +0.048 C 
ATOM     21  C   UNL     1       0.002  -0.004   0.002  0.00  0.00    +0.226 C 
ENDBRANCH  19  21
ENDBRANCH  11  19
ENDBRANCH   1  13
BRANCH   3  22
ATOM     22  C   UNL     1      -3.189  -4.209  -0.553  0.00  0.00    +0.003 A 
ATOM     23  C   UNL     1      -2.935  -3.361   0.522  0.00  0.00    +0.010 A 
ATOM     24  C   UNL     1      -3.537  -2.120   0.576  0.00  0.00    +0.001 A 
ATOM     25  C   UNL     1      -4.391  -1.718  -0.435  0.00  0.00    +0.000 A 
ATOM     26  C   UNL     1      -4.647  -2.557  -1.505  0.00  0.00    +0.001 A 
ATOM     27  C   UNL     1      -4.045  -3.797  -1.572  0.00  0.00    +0.010 A 
ENDBRANCH   3  22
BRANCH   9  28
ATOM     28  N   UNL     1       1.996  -7.868   1.310  0.00  0.00    -0.328 N 
ATOM     29  H   UNL     1       2.096  -8.813   1.115  0.00  0.00    +0.145 HD
ATOM     30  H   UNL     1       2.623  -7.425   1.904  0.00  0.00    +0.145 HD
ENDBRANCH   9  28
BRANCH  10  31
ATOM     31  C   UNL     1       1.821  -5.257   1.934  0.00  0.00    +0.101 C 
ATOM     32  N   UNL     1       2.582  -4.793   2.638  0.00  0.00    -0.191 NA
ENDBRANCH  10  31
TORSDOF 7
