REMARK  Name = ZINC24976195
REMARK  6 active torsions:
REMARK  status: ('A' for Active; 'I' for Inactive)
REMARK    1  A    between atoms: C_4  and  C_7
REMARK    2  A    between atoms: C_12  and  C_13
REMARK    3  A    between atoms: C_13  and  N_14
REMARK    4  A    between atoms: N_18  and  C_21
REMARK    5  A    between atoms: C_21  and  C_22
REMARK    6  A    between atoms: C_26  and  C_31
REMARK                            x       y       z     vdW  Elec       q    Type
REMARK                         _______ _______ _______ _____ _____    ______ ____
ROOT
ATOM      1  N   UNL     1       1.912  -3.144   1.046  0.00  0.00    -0.300 NA
ATOM      2  C   UNL     1       1.364  -2.596  -0.219  0.00  0.00    +0.083 C 
ATOM      3  C   UNL     1       1.027  -3.748  -1.132  0.00  0.00    -0.003 C 
ATOM      4  C   UNL     1      -0.432  -4.210  -0.987  0.00  0.00    -0.077 C 
ATOM      5  N   UNL     1      -0.879  -4.253   0.424  0.00  0.00    +0.385 N 
ATOM      6  C   UNL     1       0.131  -4.799   1.301  0.00  0.00    -0.063 C 
ATOM      7  C   UNL     1       0.929  -3.633   1.913  0.00  0.00    +0.066 C 
ATOM      8  H   UNL     1      -1.104  -3.317   0.725  0.00  0.00    -0.081 HD
ENDROOT
BRANCH   1   9
ATOM      9  C   UNL     1       2.765  -2.156   1.721  0.00  0.00    +0.120 C 
BRANCH   9  15
ATOM     10  C   UNL     1       5.017  -2.921   0.908  0.00  0.00    -0.013 A 
ATOM     11  C   UNL     1       6.174  -2.721   0.158  0.00  0.00    +0.009 A 
ATOM     12  C   UNL     1       6.331  -1.558  -0.568  0.00  0.00    +0.001 A 
ATOM     13  C   UNL     1       5.342  -0.591  -0.552  0.00  0.00    +0.000 A 
ATOM     14  C   UNL     1       4.192  -0.783   0.191  0.00  0.00    +0.005 A 
ATOM     15  C   UNL     1       4.022  -1.946   0.916  0.00  0.00    -0.026 A 
BRANCH  10  19
ATOM     16  C   UNL     1       4.518  -6.500   3.149  0.00  0.00    +0.000 A 
ATOM     17  C   UNL     1       4.750  -6.566   1.787  0.00  0.00    +0.001 A 
ATOM     18  C   UNL     1       4.912  -5.408   1.055  0.00  0.00    +0.008 A 
ATOM     19  C   UNL     1       4.842  -4.170   1.690  0.00  0.00    -0.018 A 
ATOM     20  C   UNL     1       4.608  -4.108   3.062  0.00  0.00    +0.008 A 
ATOM     21  C   UNL     1       4.447  -5.273   3.785  0.00  0.00    +0.001 A 
ENDBRANCH  10  19
ENDBRANCH   9  15
ENDBRANCH   1   9
BRANCH   5  22
ATOM     22  C   UNL     1      -2.088  -5.083   0.515  0.00  0.00    -0.003 C 
BRANCH  22  23
ATOM     23  C   UNL     1      -3.209  -4.423  -0.246  0.00  0.00    +0.090 A 
ATOM     24  C   UNL     1      -3.482  -4.628  -1.541  0.00  0.00    +0.051 A 
ATOM     25  C   UNL     1      -4.645  -3.787  -1.853  0.00  0.00    +0.021 A 
ATOM     26  C   UNL     1      -5.397  -3.556  -3.002  0.00  0.00    +0.020 A 
ATOM     27  C   UNL     1      -6.466  -2.672  -2.954  0.00  0.00    -0.017 A 
ATOM     28  C   UNL     1      -6.781  -2.021  -1.757  0.00  0.00    +0.012 A 
ATOM     29  C   UNL     1      -6.040  -2.248  -0.620  0.00  0.00    +0.047 A 
ATOM     30  C   UNL     1      -4.966  -3.131  -0.653  0.00  0.00    +0.135 A 
ATOM     31  O   UNL     1      -4.083  -3.547   0.279  0.00  0.00    -0.462 OA
BRANCH  27  32
ATOM     32  C   UNL     1      -7.274  -2.417  -4.172  0.00  0.00    -0.011 A 
ATOM     33  C   UNL     1      -8.346  -1.530  -4.142  0.00  0.00    +0.016 A 
ATOM     34  C   UNL     1      -9.059  -1.323  -5.273  0.00  0.00    +0.046 A 
ATOM     35  S   UNL     1      -8.232  -2.390  -6.441  0.00  0.00    -0.104 S 
ATOM     36  C   UNL     1      -6.979  -3.043  -5.350  0.00  0.00    +0.053 A 
ENDBRANCH  27  32
ENDBRANCH  22  23
ENDBRANCH   5  22
TORSDOF 6
