REMARK  Name = ZINC08800649
REMARK  11 active torsions:
REMARK  status: ('A' for Active; 'I' for Inactive)
REMARK    1  A    between atoms: C_1  and  C_2
REMARK    2  A    between atoms: C_5  and  N_27
REMARK    3  A    between atoms: C_7  and  S_8
REMARK    4  A    between atoms: S_8  and  N_11
REMARK    5  A    between atoms: N_11  and  C_12
REMARK    6  A    between atoms: C_12  and  C_13
REMARK    7  A    between atoms: C_13  and  C_15
REMARK    8  A    between atoms: C_13  and  N_55
REMARK    9  A    between atoms: N_23  and  C_24
REMARK   10  A    between atoms: C_25  and  N_55
REMARK   11  A    between atoms: C_26  and  N_55
REMARK                            x       y       z     vdW  Elec       q    Type
REMARK                         _______ _______ _______ _____ _____    ______ ____
ROOT
ATOM      1  C   UNL     1       4.668   3.078   1.409  0.00  0.00    +0.095 C 
ENDROOT
BRANCH   1   2
ATOM      2  N   UNL     1       5.504   2.900   0.219  0.00  0.00    -0.191 NA
ATOM      3  H   UNL     1       6.430   3.190   0.229  0.00  0.00    +0.148 HD
BRANCH   2   4
ATOM      4  S   UNL     1       4.869   2.204  -1.143  0.00  0.00    +0.059 S 
ATOM      5  O   UNL     1       4.203   1.022  -0.721  0.00  0.00    -0.153 OA
ATOM      6  O   UNL     1       5.908   2.188  -2.112  0.00  0.00    -0.153 OA
BRANCH   4  13
ATOM      7  C   UNL     1       5.406   5.010  -2.134  0.00  0.00    +0.046 C 
ATOM      8  C   UNL     1       3.969   4.560  -2.185  0.00  0.00    -0.024 A 
ATOM      9  C   UNL     1       2.993   5.415  -2.664  0.00  0.00    +0.007 A 
ATOM     10  C   UNL     1       1.675   5.004  -2.706  0.00  0.00    +0.033 A 
ATOM     11  C   UNL     1       1.332   3.734  -2.278  0.00  0.00    +0.128 A 
ATOM     12  C   UNL     1       2.308   2.880  -1.800  0.00  0.00    +0.061 A 
ATOM     13  C   UNL     1       3.626   3.293  -1.753  0.00  0.00    +0.110 A 
BRANCH  11  14
ATOM     14  N   UNL     1      -0.080   3.292  -2.328  0.00  0.00    +0.056 N 
ATOM     15  O   UNL     1      -0.382   2.175  -1.947  0.00  0.00    -0.126 OA
ATOM     16  O   UNL     1      -0.939   4.045  -2.750  0.00  0.00    -0.126 OA
ENDBRANCH  11  14
ENDBRANCH   4  13
ENDBRANCH   2   4
ENDBRANCH   1   2
BRANCH   1  17
ATOM     17  C   UNL     1       5.557   3.376   2.618  0.00  0.00    -0.023 C 
BRANCH  17  18
ATOM     18  C   UNL     1       6.438   2.186   2.899  0.00  0.00    -0.059 A 
ATOM     19  C   UNL     1       5.934   1.099   3.590  0.00  0.00    +0.004 A 
ATOM     20  C   UNL     1       6.735   0.007   3.848  0.00  0.00    +0.023 A 
ATOM     21  C   UNL     1       8.063  -0.004   3.424  0.00  0.00    +0.033 A 
ATOM     22  C   UNL     1       8.560   1.093   2.732  0.00  0.00    -0.025 A 
ATOM     23  C   UNL     1       7.753   2.181   2.473  0.00  0.00    +0.007 A 
ATOM     24  C   UNL     1      10.009   0.810   2.386  0.00  0.00    +0.056 C 
ATOM     25  C   UNL     1      10.121  -0.717   2.600  0.00  0.00    +0.109 C 
ATOM     26  N   UNL     1       9.050  -0.985   3.584  0.00  0.00    -0.332 N 
ATOM     27  C   UNL     1       8.490  -2.331   3.400  0.00  0.00    +0.129 C 
ENDBRANCH  17  18
BRANCH  17  30
ATOM     28  C   UNL     1       5.536   3.977   4.963  0.00  0.00    -0.096 C 
ATOM     29  C   UNL     1       3.751   4.722   3.506  0.00  0.00    -0.096 C 
ATOM     30  N   UNL     1       4.700   3.626   3.796  0.00  0.00    +0.381 N 
ATOM     31  H   UNL     1       4.170   2.773   4.010  0.00  0.00    -0.082 HD
ENDBRANCH  17  30
ENDBRANCH   1  17
TORSDOF 7
