REMARK  Name = ZINC39451467
REMARK  6 active torsions:
REMARK  status: ('A' for Active; 'I' for Inactive)
REMARK    1  A    between atoms: C_1  and  C_2
REMARK    2  A    between atoms: C_2  and  C_3
REMARK    3  A    between atoms: C_2  and  S_4
REMARK    4  A    between atoms: S_4  and  N_7
REMARK    5  A    between atoms: C_15  and  C_18
REMARK    6  A    between atoms: C_23  and  O_24
REMARK                            x       y       z     vdW  Elec       q    Type
REMARK                         _______ _______ _______ _____ _____    ______ ____
ROOT
ATOM      1  N   UNL     1      -1.615  -2.286   0.023  0.00  0.00    -0.174 N 
ATOM      2  C   UNL     1      -1.477  -2.957  -1.185  0.00  0.00    +0.134 A 
ATOM      3  C   UNL     1      -1.407  -4.338  -1.227  0.00  0.00    +0.084 A 
ATOM      4  C   UNL     1      -1.469  -5.110   0.020  0.00  0.00    +0.099 A 
ATOM      5  C   UNL     1      -1.607  -4.403   1.236  0.00  0.00    +0.069 A 
ATOM      6  C   UNL     1      -1.676  -2.934   1.200  0.00  0.00    +0.281 A 
ATOM      7  O   UNL     1      -1.792  -2.306   2.236  0.00  0.00    -0.265 OA
ATOM      8  C   UNL     1      -1.669  -5.110   2.434  0.00  0.00    +0.025 A 
ATOM      9  C   UNL     1      -1.590  -6.503   2.376  0.00  0.00    +0.004 A 
ATOM     10  C   UNL     1      -1.453  -7.130   1.132  0.00  0.00    +0.120 A 
ATOM     11  N   UNL     1      -1.399  -6.436   0.018  0.00  0.00    -0.252 NA
ATOM     12  N   UNL     1      -1.286  -4.985  -2.443  0.00  0.00    -0.328 N 
ATOM     13  C   UNL     1      -1.806  -4.314  -3.644  0.00  0.00    +0.146 C 
ATOM     14  C   UNL     1      -1.203  -2.907  -3.707  0.00  0.00    +0.115 C 
ATOM     15  C   UNL     1      -1.412  -2.214  -2.386  0.00  0.00    +0.186 C 
ATOM     16  O   UNL     1      -1.525  -1.005  -2.352  0.00  0.00    -0.290 OA
ATOM     17 BR   UNL     1      -3.765  -4.194  -3.540  0.00  0.00    -0.067 Br
ATOM     18  H   UNL     1      -0.868  -5.858  -2.502  0.00  0.00    +0.147 HD
ENDROOT
BRANCH   9  19
ATOM     19  C   UNL     1      -1.649  -7.308   3.618  0.00  0.00    +0.025 A 
ATOM     20  C   UNL     1      -0.832  -6.987   4.701  0.00  0.00    +0.012 A 
ATOM     21  C   UNL     1      -0.891  -7.740   5.855  0.00  0.00    +0.001 A 
ATOM     22  C   UNL     1      -1.760  -8.814   5.943  0.00  0.00    +0.004 A 
ATOM     23  C   UNL     1      -2.575  -9.141   4.876  0.00  0.00    +0.046 A 
ATOM     24  C   UNL     1      -2.530  -8.391   3.712  0.00  0.00    +0.125 A 
BRANCH  24  25
ATOM     25  O   UNL     1      -3.334  -8.708   2.665  0.00  0.00    -0.506 OA
ATOM     26  H   UNL     1      -2.942  -9.337   2.044  0.00  0.00    +0.292 HD
ENDBRANCH  24  25
ENDBRANCH   9  19
BRANCH   1  27
ATOM     27  S   UNL     1      -1.700  -0.632   0.015  0.00  0.00    +0.060 S 
ATOM     28  O   UNL     1      -1.822  -0.268   1.383  0.00  0.00    -0.153 OA
ATOM     29  O   UNL     1      -2.733  -0.327  -0.911  0.00  0.00    -0.153 OA
BRANCH  27  31
ATOM     30  C   UNL     1      -0.103   1.435  -0.797  0.00  0.00    +0.033 C 
ATOM     31  C   UNL     1      -0.097  -0.086  -0.635  0.00  0.00    +0.148 C 
ATOM     32  C   UNL     1       1.013  -0.490   0.337  0.00  0.00    +0.033 C 
ENDBRANCH  27  31
ENDBRANCH   1  27
TORSDOF 4
