REMARK  Name = ZINC39992329
REMARK  8 active torsions:
REMARK  status: ('A' for Active; 'I' for Inactive)
REMARK    1  A    between atoms: C_1  and  C_2
REMARK    2  A    between atoms: C_2  and  C_3
REMARK    3  A    between atoms: C_3  and  N_4
REMARK    4  A    between atoms: C_5  and  C_7
REMARK    5  A    between atoms: C_9  and  N_18
REMARK    6  A    between atoms: C_19  and  C_21
REMARK    7  A    between atoms: C_21  and  C_32
REMARK    8  A    between atoms: C_22  and  C_23
REMARK                            x       y       z     vdW  Elec       q    Type
REMARK                         _______ _______ _______ _____ _____    ______ ____
ROOT
ATOM      1  N   UNL     1       1.525  -5.895  -0.545  0.00  0.00    -0.298 N 
ATOM      2  C   UNL     1       2.346  -6.901  -0.184  0.00  0.00    +0.255 C 
ATOM      3  O   UNL     1       3.551  -6.760  -0.262  0.00  0.00    -0.269 OA
ATOM      4  H   UNL     1       0.564  -6.007  -0.483  0.00  0.00    +0.150 HD
ENDROOT
BRANCH   1   6
ATOM      5  C   UNL     1       1.341  -4.130  -2.293  0.00  0.00    +0.132 C 
ATOM      6  C   UNL     1       2.085  -4.632  -1.032  0.00  0.00    +0.152 C 
ATOM      7  S   UNL     1       3.756  -4.871  -1.769  0.00  0.00    -0.106 S 
ATOM      8  C   UNL     1       3.269  -5.017  -3.472  0.00  0.00    -0.013 C 
ATOM      9  C   UNL     1       2.012  -4.606  -3.557  0.00  0.00    -0.046 C 
ATOM     10  C   UNL     1       1.272  -4.618  -4.894  0.00  0.00    +0.032 C 
ATOM     11  C   UNL     1       2.291  -4.681  -6.030  0.00  0.00    +0.005 C 
ATOM     12  C   UNL     1       3.251  -5.852  -5.792  0.00  0.00    +0.005 C 
ATOM     13  C   UNL     1       4.136  -5.516  -4.595  0.00  0.00    +0.042 C 
BRANCH   5  15
ATOM     14  N   UNL     1       0.738  -1.962  -1.265  0.00  0.00    -0.315 N 
ATOM     15  C   UNL     1       1.321  -2.623  -2.285  0.00  0.00    +0.223 C 
ATOM     16  O   UNL     1       1.829  -2.004  -3.196  0.00  0.00    -0.275 OA
ATOM     17  H   UNL     1       0.332  -2.457  -0.536  0.00  0.00    +0.149 HD
BRANCH  14  18
ATOM     18  C   UNL     1       0.718  -0.497  -1.257  0.00  0.00    +0.104 C 
BRANCH  18  20
ATOM     19  C   UNL     1      -0.019   1.526   0.010  0.00  0.00    +0.005 C 
ATOM     20  C   UNL     1       0.002  -0.004   0.002  0.00  0.00    +0.015 C 
ENDBRANCH  18  20
ENDBRANCH  14  18
ENDBRANCH   5  15
ENDBRANCH   1   6
BRANCH   2  21
ATOM     21  C   UNL     1       1.783  -8.172   0.306  0.00  0.00    +0.114 C 
ATOM     22  C   UNL     1       2.627  -9.207   0.677  0.00  0.00    +0.030 C 
BRANCH  22  23
ATOM     23  C   UNL     1       2.092 -10.413   1.142  0.00  0.00    -0.018 C 
ATOM     24  C   UNL     1       2.793 -11.540   1.557  0.00  0.00    +0.003 A 
ATOM     25  C   UNL     1       4.172 -11.833   1.646  0.00  0.00    +0.010 A 
ATOM     26  C   UNL     1       4.585 -13.041   2.096  0.00  0.00    +0.001 A 
ATOM     27  C   UNL     1       3.687 -14.043   2.489  0.00  0.00    +0.002 A 
ATOM     28  C   UNL     1       2.348 -13.861   2.442  0.00  0.00    +0.026 A 
ATOM     29  C   UNL     1       1.818 -12.575   1.965  0.00  0.00    +0.043 A 
ATOM     30  N   UNL     1       0.596 -12.137   1.819  0.00  0.00    -0.380 N 
ATOM     31  C   UNL     1       0.629 -10.764   1.306  0.00  0.00    +0.149 C 
ATOM     32  H   UNL     1      -0.208 -12.640   2.022  0.00  0.00    +0.160 HD
ENDBRANCH  22  23
BRANCH  21  33
ATOM     33  C   UNL     1       0.363  -8.338   0.398  0.00  0.00    +0.104 C 
ATOM     34  N   UNL     1      -0.762  -8.469   0.471  0.00  0.00    -0.191 NA
ENDBRANCH  21  33
ENDBRANCH   2  21
TORSDOF 7
