REMARK  Name = ZINC63637535
REMARK  5 active torsions:
REMARK  status: ('A' for Active; 'I' for Inactive)
REMARK    1  A    between atoms: C_1  and  C_2
REMARK    2  A    between atoms: C_4  and  C_33
REMARK    3  A    between atoms: C_9  and  C_14
REMARK    4  A    between atoms: N_22  and  C_24
REMARK    5  A    between atoms: C_29  and  C_30
REMARK                            x       y       z     vdW  Elec       q    Type
REMARK                         _______ _______ _______ _____ _____    ______ ____
ROOT
ATOM      1  C   UNL     1      -0.094   1.565  -0.151  0.00  0.00    +0.062 C 
ATOM      2  C   UNL     1      -0.035   0.059  -0.155  0.00  0.00    +0.023 C 
ATOM      3  C   UNL     1      -1.068  -0.714   0.008  0.00  0.00    +0.002 C 
ATOM      4  C   UNL     1      -2.503  -0.398   0.338  0.00  0.00    +0.118 C 
ATOM      5  C   UNL     1      -2.973  -1.417   1.361  0.00  0.00    +0.026 C 
ATOM      6  C   UNL     1      -2.244  -2.507   1.681  0.00  0.00    +0.014 C 
ATOM      7  C   UNL     1      -2.759  -3.495   2.708  0.00  0.00    +0.060 C 
ATOM      8  C   UNL     1      -4.287  -3.527   2.679  0.00  0.00    +0.039 C 
ATOM      9  C   UNL     1      -4.802  -2.114   2.977  0.00  0.00    +0.088 C 
ATOM     10  C   UNL     1      -4.218  -1.168   1.964  0.00  0.00    +0.162 C 
ATOM     11  O   UNL     1      -4.836  -0.167   1.660  0.00  0.00    -0.292 OA
ATOM     12  N   UNL     1      -1.018  -2.795   1.141  0.00  0.00    -0.324 N 
ATOM     13  C   UNL     1      -0.601  -2.162  -0.114  0.00  0.00    +0.207 C 
ATOM     14  N   UNL     1       0.860  -2.047  -0.199  0.00  0.00    -0.228 N 
ATOM     15  N   UNL     1       1.126  -0.675  -0.340  0.00  0.00    -0.266 N 
ATOM     16  H   UNL     1      -0.425  -3.418   1.589  0.00  0.00    +0.148 HD
ATOM     17  H   UNL     1       1.997  -0.295  -0.535  0.00  0.00    +0.170 HD
ENDROOT
BRANCH   4  18
ATOM     18  C   UNL     1      -2.602   0.991   0.915  0.00  0.00    +0.096 A 
ATOM     19  N   UNL     1      -2.395   1.315   2.181  0.00  0.00    -0.349 N 
ATOM     20  C   UNL     1      -2.575   2.646   2.311  0.00  0.00    +0.101 A 
ATOM     21  C   UNL     1      -2.896   3.129   1.094  0.00  0.00    +0.101 A 
ATOM     22  N   UNL     1      -2.904   2.087   0.237  0.00  0.00    -0.349 N 
ATOM     23  H   UNL     1      -3.099   2.133  -0.712  0.00  0.00    +0.166 HD
ATOM     24  H   UNL     1      -2.156   0.702   2.893  0.00  0.00    +0.166 HD
ENDBRANCH   4  18
BRANCH  14  25
ATOM     25  C   UNL     1       1.785  -3.080  -0.155  0.00  0.00    +0.064 A 
ATOM     26  C   UNL     1       1.691  -4.141  -1.049  0.00  0.00    +0.025 A 
ATOM     27  C   UNL     1       2.612  -5.167  -1.003  0.00  0.00    +0.002 A 
ATOM     28  C   UNL     1       3.636  -5.151  -0.068  0.00  0.00    +0.001 A 
ATOM     29  C   UNL     1       3.747  -4.109   0.826  0.00  0.00    +0.017 A 
ATOM     30  C   UNL     1       2.825  -3.057   0.789  0.00  0.00    +0.086 A 
BRANCH  30  31
ATOM     31  C   UNL     1       2.940  -1.939   1.737  0.00  0.00    +0.388 C 
ATOM     32  O   UNL     1       3.848  -1.923   2.557  0.00  0.00    -0.241 OA
ATOM     33  O   UNL     1       2.129  -1.024   1.704  0.00  0.00    -0.241 OA
ENDBRANCH  30  31
ENDBRANCH  14  25
BRANCH   8  34
ATOM     34  C   UNL     1      -4.796  -4.485   3.725  0.00  0.00    -0.006 A 
ATOM     35  C   UNL     1      -5.549  -5.600   3.566  0.00  0.00    +0.011 A 
ATOM     36  C   UNL     1      -5.902  -6.335   4.683  0.00  0.00    +0.008 A 
ATOM     37  C   UNL     1      -5.483  -5.919   5.903  0.00  0.00    +0.045 A 
ATOM     38  S   UNL     1      -4.556  -4.449   5.494  0.00  0.00    -0.101 S 
ENDBRANCH   8  34
TORSDOF 4
