REMARK  Name = ZINC41001847
REMARK  14 active torsions:
REMARK  status: ('A' for Active; 'I' for Inactive)
REMARK    1  A    between atoms: C_1  and  C_2
REMARK    2  A    between atoms: C_2  and  O_3
REMARK    3  A    between atoms: O_3  and  C_4
REMARK    4  A    between atoms: C_4  and  C_6
REMARK    5  A    between atoms: C_7  and  C_36
REMARK    6  A    between atoms: C_11  and  S_33
REMARK    7  A    between atoms: C_14  and  C_16
REMARK    8  A    between atoms: C_19  and  O_24
REMARK    9  A    between atoms: C_20  and  O_22
REMARK   10  A    between atoms: O_22  and  C_23
REMARK   11  A    between atoms: O_24  and  C_25
REMARK   12  A    between atoms: C_25  and  C_26
REMARK   13  A    between atoms: S_33  and  C_34
REMARK   14  A    between atoms: C_34  and  C_35
REMARK                            x       y       z     vdW  Elec       q    Type
REMARK                         _______ _______ _______ _____ _____    ______ ____
ROOT
ATOM      1  C   UNL     1      -2.799  -2.429   0.223  0.00  0.00    +0.082 C 
ATOM      2  C   UNL     1      -2.920  -3.729  -0.087  0.00  0.00    +0.020 C 
ATOM      3  N   UNL     1      -4.139  -4.317  -0.309  0.00  0.00    -0.287 N 
ATOM      4  C   UNL     1      -5.235  -3.479  -0.463  0.00  0.00    +0.219 A 
ATOM      5  N   UNL     1      -6.440  -3.741  -0.892  0.00  0.00    -0.187 NA
ATOM      6  C   UNL     1      -7.174  -2.619  -0.878  0.00  0.00    +0.210 A 
ATOM      7  N   UNL     1      -6.433  -1.627  -0.434  0.00  0.00    -0.141 NA
ATOM      8  N   UNL     1      -5.175  -2.160  -0.155  0.00  0.00    -0.220 N 
ATOM      9  C   UNL     1      -3.979  -1.507   0.373  0.00  0.00    +0.179 C 
ATOM     10  C   UNL     1      -1.674  -4.571  -0.197  0.00  0.00    +0.061 C 
ATOM     11  H   UNL     1      -4.232  -5.282  -0.357  0.00  0.00    +0.155 HD
ENDROOT
BRANCH   9  12
ATOM     12  C   UNL     1      -4.181  -1.183   1.831  0.00  0.00    -0.015 A 
ATOM     13  C   UNL     1      -4.426  -2.199   2.736  0.00  0.00    +0.010 A 
ATOM     14  C   UNL     1      -4.612  -1.907   4.074  0.00  0.00    +0.050 A 
ATOM     15  C   UNL     1      -4.553  -0.594   4.512  0.00  0.00    +0.162 A 
ATOM     16  C   UNL     1      -4.305   0.429   3.601  0.00  0.00    +0.162 A 
ATOM     17  C   UNL     1      -4.115   0.129   2.262  0.00  0.00    +0.055 A 
BRANCH  16  18
ATOM     18  O   UNL     1      -4.246   1.720   4.025  0.00  0.00    -0.491 OA
ATOM     19  C   UNL     1      -3.988   2.717   3.035  0.00  0.00    +0.277 C 
ENDBRANCH  16  18
BRANCH  15  20
ATOM     20  O   UNL     1      -4.736  -0.304   5.828  0.00  0.00    -0.484 OA
BRANCH  20  21
ATOM     21  C   UNL     1      -4.986  -1.405   6.705  0.00  0.00    +0.267 C 
BRANCH  21  22
ATOM     22  C   UNL     1      -5.162  -0.895   8.112  0.00  0.00    +0.025 A 
ATOM     23  C   UNL     1      -5.075   0.460   8.373  0.00  0.00    +0.010 A 
ATOM     24  C   UNL     1      -5.237   0.927   9.664  0.00  0.00    +0.001 A 
ATOM     25  C   UNL     1      -5.484   0.041  10.695  0.00  0.00    +0.003 A 
ATOM     26  C   UNL     1      -5.572  -1.314  10.437  0.00  0.00    +0.039 A 
ATOM     27  C   UNL     1      -5.415  -1.783   9.144  0.00  0.00    +0.130 A 
ATOM     28  F   UNL     1      -5.505  -3.107   8.889  0.00  0.00    -0.205 F 
ENDBRANCH  21  22
ENDBRANCH  20  21
ENDBRANCH  15  20
ENDBRANCH   9  12
BRANCH   1  29
ATOM     29  C   UNL     1      -1.503  -1.902   0.423  0.00  0.00    +0.339 C 
ATOM     30  O   UNL     1      -0.999  -1.188  -0.423  0.00  0.00    -0.245 OA
BRANCH  29  31
ATOM     31  O   UNL     1      -0.825  -2.191   1.554  0.00  0.00    -0.462 OA
BRANCH  31  33
ATOM     32  C   UNL     1       1.088  -2.061   3.024  0.00  0.00    +0.048 C 
ATOM     33  C   UNL     1       0.480  -1.625   1.690  0.00  0.00    +0.229 C 
ENDBRANCH  31  33
ENDBRANCH  29  31
ENDBRANCH   1  29
BRANCH   6  34
ATOM     34  S   UNL     1      -8.860  -2.494  -1.377  0.00  0.00    -0.085 S 
BRANCH  34  35
ATOM     35  C   UNL     1      -9.296  -4.182  -1.876  0.00  0.00    +0.074 C 
ATOM     36  C   UNL     1     -10.755  -4.216  -2.338  0.00  0.00    +0.016 C 
ENDBRANCH  34  35
ENDBRANCH   6  34
TORSDOF 10
