REMARK  Name = ZINC33040621
REMARK  7 active torsions:
REMARK  status: ('A' for Active; 'I' for Inactive)
REMARK    1  A    between atoms: C_1  and  N_2
REMARK    2  A    between atoms: N_2  and  C_3
REMARK    3  A    between atoms: N_2  and  C_4
REMARK    4  A    between atoms: C_7  and  C_10
REMARK    5  A    between atoms: N_30  and  C_31
REMARK    6  A    between atoms: C_31  and  C_32
REMARK    7  A    between atoms: C_32  and  C_33
REMARK                            x       y       z     vdW  Elec       q    Type
REMARK                         _______ _______ _______ _____ _____    ______ ____
ROOT
ATOM      1  C   UNL     1       7.837  -3.022  -3.963  0.00  0.00    +0.155 C 
ATOM      2  C   UNL     1       8.479  -4.269  -3.440  0.00  0.00    +0.049 A 
ATOM      3  C   UNL     1       8.317  -5.539  -3.839  0.00  0.00    +0.025 A 
ATOM      4  C   UNL     1       9.202  -6.336  -3.080  0.00  0.00    +0.020 A 
ATOM      5  C   UNL     1       9.864  -5.516  -2.233  0.00  0.00    +0.092 A 
ATOM      6  N   UNL     1       9.408  -4.256  -2.426  0.00  0.00    -0.312 N 
ATOM      7  C   UNL     1       9.702  -3.062  -1.781  0.00  0.00    +0.090 A 
ATOM      8  C   UNL     1       8.765  -2.165  -1.373  0.00  0.00    +0.005 A 
ATOM      9  C   UNL     1       9.236  -0.981  -0.770  0.00  0.00    -0.030 A 
ATOM     10  C   UNL     1      10.580  -0.836  -0.630  0.00  0.00    -0.005 A 
ATOM     11  S   UNL     1      11.244  -2.326  -1.332  0.00  0.00    -0.075 S 
ATOM     12  C   UNL     1      11.316   0.315  -0.025  0.00  0.00    +0.043 C 
ATOM     13  C   UNL     1      10.344   1.498   0.100  0.00  0.00    +0.005 C 
ATOM     14  C   UNL     1       9.036   0.997   0.717  0.00  0.00    +0.005 C 
ATOM     15  C   UNL     1       8.290   0.112  -0.282  0.00  0.00    +0.036 C 
ATOM     16  C   UNL     1       7.294  -2.461  -1.568  0.00  0.00    +0.148 C 
ATOM     17  N   UNL     1       6.891  -2.432  -2.986  0.00  0.00    -0.269 N 
ATOM     18  C   UNL     1       5.715  -1.899  -3.374  0.00  0.00    +0.303 C 
ATOM     19  O   UNL     1       5.411  -1.890  -4.551  0.00  0.00    -0.253 OA
ATOM     20  N   UNL     1       4.876  -1.376  -2.458  0.00  0.00    -0.299 N 
ATOM     21  H   UNL     1       5.151  -1.384  -1.393  0.00  0.00    +0.150 HD
ENDROOT
BRANCH   1  25
ATOM     22  C   UNL     1      10.891  -0.165  -4.843  0.00  0.00    +0.029 A 
ATOM     23  C   UNL     1      11.113  -1.516  -5.077  0.00  0.00    +0.023 A 
ATOM     24  C   UNL     1      10.124  -2.436  -4.791  0.00  0.00    +0.007 A 
ATOM     25  C   UNL     1       8.914  -2.014  -4.273  0.00  0.00    -0.021 A 
ATOM     26  C   UNL     1       8.686  -0.670  -4.045  0.00  0.00    +0.007 A 
ATOM     27  C   UNL     1       9.673   0.256  -4.323  0.00  0.00    +0.023 A 
BRANCH  22  29
ATOM     28  C   UNL     1      13.172   0.324  -5.681  0.00  0.00    +0.129 C 
ATOM     29  N   UNL     1      11.888   0.769  -5.132  0.00  0.00    -0.336 N 
ATOM     30  C   UNL     1      11.652   2.194  -4.885  0.00  0.00    +0.129 C 
ENDBRANCH  22  29
ENDBRANCH   1  25
BRANCH  20  31
ATOM     31  C   UNL     1       3.599  -0.797  -2.880  0.00  0.00    +0.110 C 
BRANCH  31  32
ATOM     32  C   UNL     1       2.844  -0.279  -1.654  0.00  0.00    +0.054 C 
BRANCH  32  33
ATOM     33  C   UNL     1       1.530   0.317  -2.089  0.00  0.00    -0.046 A 
ATOM     34  C   UNL     1       0.401  -0.477  -2.160  0.00  0.00    +0.004 A 
ATOM     35  C   UNL     1      -0.805   0.069  -2.559  0.00  0.00    +0.000 A 
ATOM     36  C   UNL     1      -0.882   1.410  -2.886  0.00  0.00    +0.000 A 
ATOM     37  C   UNL     1       0.247   2.205  -2.814  0.00  0.00    +0.000 A 
ATOM     38  C   UNL     1       1.453   1.658  -2.416  0.00  0.00    +0.004 A 
ENDBRANCH  32  33
ENDBRANCH  31  32
ENDBRANCH  20  31
TORSDOF 5
