REMARK  Name = ZINC46738754
REMARK  11 active torsions:
REMARK  status: ('A' for Active; 'I' for Inactive)
REMARK    1  A    between atoms: C_1  and  C_2
REMARK    2  A    between atoms: C_2  and  C_4
REMARK    3  A    between atoms: C_2  and  N_13
REMARK    4  A    between atoms: C_7  and  O_11
REMARK    5  A    between atoms: O_11  and  C_12
REMARK    6  A    between atoms: C_14  and  C_16
REMARK    7  A    between atoms: C_16  and  N_17
REMARK    8  A    between atoms: C_23  and  C_26
REMARK    9  A    between atoms: C_26  and  C_27
REMARK   10  A    between atoms: C_26  and  C_28
REMARK   11  A    between atoms: C_26  and  C_29
REMARK                            x       y       z     vdW  Elec       q    Type
REMARK                         _______ _______ _______ _____ _____    ______ ____
ROOT
ATOM      1  N   UNL     1      -3.978  -1.213  -2.505  0.00  0.00    -0.215 N 
ATOM      2  C   UNL     1      -4.622  -0.194  -3.110  0.00  0.00    +0.247 C 
ATOM      3  O   UNL     1      -4.878   0.894  -2.642  0.00  0.00    -0.273 OA
ATOM      4  C   UNL     1      -4.958  -0.695  -4.496  0.00  0.00    +0.113 C 
ATOM      5  C   UNL     1      -6.469  -0.713  -4.704  0.00  0.00    +0.035 C 
ATOM      6  C   UNL     1      -6.788  -1.251  -6.101  0.00  0.00    +0.006 C 
ATOM      7  C   UNL     1      -6.122  -0.362  -7.153  0.00  0.00    -0.005 C 
ATOM      8  C   UNL     1      -4.606  -0.374  -6.947  0.00  0.00    +0.006 C 
ATOM      9  C   UNL     1      -4.278   0.168  -5.553  0.00  0.00    +0.035 C 
ATOM     10  N   UNL     1      -4.419  -2.061  -4.522  0.00  0.00    -0.285 N 
ATOM     11  C   UNL     1      -3.860  -2.272  -3.316  0.00  0.00    +0.310 C 
ATOM     12  O   UNL     1      -3.313  -3.309  -2.997  0.00  0.00    -0.252 OA
ATOM     13  H   UNL     1      -4.456  -2.686  -5.263  0.00  0.00    +0.151 HD
ENDROOT
BRANCH   7  14
ATOM     14  C   UNL     1      -6.450  -0.893  -8.550  0.00  0.00    -0.035 C 
ATOM     15  C   UNL     1      -7.966  -0.881  -8.757  0.00  0.00    +0.011 C 
ATOM     16  C   UNL     1      -5.785  -0.005  -9.603  0.00  0.00    +0.011 C 
ATOM     17  C   UNL     1      -5.929  -2.325  -8.687  0.00  0.00    +0.011 C 
ENDBRANCH   7  14
BRANCH   1  18
ATOM     18  C   UNL     1      -3.465  -1.164  -1.134  0.00  0.00    +0.213 C 
BRANCH  18  20
ATOM     19  N   UNL     1      -1.372  -0.511   0.012  0.00  0.00    -0.307 N 
ATOM     20  C   UNL     1      -2.051  -0.643  -1.145  0.00  0.00    +0.231 C 
ATOM     21  O   UNL     1      -1.524  -0.341  -2.194  0.00  0.00    -0.274 OA
ATOM     22  H   UNL     1      -1.794  -0.752   0.852  0.00  0.00    +0.149 HD
BRANCH  19  24
ATOM     23  C   UNL     1      -0.019   1.526   0.010  0.00  0.00    +0.033 C 
ATOM     24  C   UNL     1       0.002  -0.004   0.002  0.00  0.00    +0.100 C 
BRANCH  24  25
ATOM     25  C   UNL     1       0.731  -0.503   1.223  0.00  0.00    -0.026 A 
ATOM     26  C   UNL     1       0.079  -0.558   2.441  0.00  0.00    +0.009 A 
ATOM     27  C   UNL     1       0.745  -1.015   3.562  0.00  0.00    +0.047 A 
ATOM     28  C   UNL     1       2.068  -1.419   3.465  0.00  0.00    +0.134 A 
ATOM     29  C   UNL     1       2.720  -1.364   2.241  0.00  0.00    +0.060 A 
ATOM     30  C   UNL     1       2.048  -0.911   1.122  0.00  0.00    +0.024 A 
ATOM     31 BR   UNL     1       4.524  -1.914   2.104  0.00  0.00    -0.047 Br
BRANCH  28  32
ATOM     32  O   UNL     1       2.726  -1.869   4.567  0.00  0.00    -0.494 OA
ATOM     33  C   UNL     1       1.992  -1.898   5.793  0.00  0.00    +0.277 C 
ENDBRANCH  28  32
ENDBRANCH  24  25
ENDBRANCH  19  24
ENDBRANCH  18  20
ENDBRANCH   1  18
TORSDOF 6
