REMARK  Name = ZINC50274426
REMARK  8 active torsions:
REMARK  status: ('A' for Active; 'I' for Inactive)
REMARK    1  A    between atoms: C_1  and  C_2
REMARK    2  A    between atoms: C_2  and  C_3
REMARK    3  A    between atoms: C_8  and  N_9
REMARK    4  A    between atoms: C_10  and  C_12
REMARK    5  A    between atoms: C_12  and  N_13
REMARK    6  A    between atoms: C_14  and  C_16
REMARK    7  A    between atoms: C_16  and  N_17
REMARK    8  A    between atoms: C_26  and  C_28
REMARK                            x       y       z     vdW  Elec       q    Type
REMARK                         _______ _______ _______ _____ _____    ______ ____
ROOT
ATOM      1  N   UNL     1      -3.606  -1.860   5.863  0.00  0.00    -0.306 N 
ATOM      2  C   UNL     1      -4.898  -1.478   5.860  0.00  0.00    +0.228 C 
ATOM      3  O   UNL     1      -5.428  -1.141   4.823  0.00  0.00    -0.274 OA
ATOM      4  H   UNL     1      -3.182  -2.130   6.693  0.00  0.00    +0.149 HD
ENDROOT
BRANCH   1   5
ATOM      5  C   UNL     1      -2.842  -1.869   4.613  0.00  0.00    +0.200 C 
BRANCH   5   7
ATOM      6  N   UNL     1      -0.545  -2.421   3.880  0.00  0.00    -0.284 N 
ATOM      7  C   UNL     1      -1.435  -2.333   4.888  0.00  0.00    +0.234 C 
ATOM      8  O   UNL     1      -1.103  -2.627   6.017  0.00  0.00    -0.274 OA
ATOM      9  H   UNL     1      -0.790  -2.125   2.989  0.00  0.00    +0.155 HD
BRANCH   6  15
ATOM     10  C   UNL     1       1.382  -3.668   3.128  0.00  0.00    -0.026 A 
ATOM     11  C   UNL     1       2.646  -4.175   3.363  0.00  0.00    +0.005 A 
ATOM     12  C   UNL     1       3.260  -3.964   4.583  0.00  0.00    +0.000 A 
ATOM     13  C   UNL     1       2.614  -3.245   5.572  0.00  0.00    +0.002 A 
ATOM     14  C   UNL     1       1.351  -2.735   5.343  0.00  0.00    +0.023 A 
ATOM     15  C   UNL     1       0.732  -2.941   4.117  0.00  0.00    +0.037 A 
BRANCH  10  17
ATOM     16  C   UNL     1       0.973  -2.700   0.882  0.00  0.00    +0.009 C 
ATOM     17  C   UNL     1       0.713  -3.898   1.798  0.00  0.00    +0.033 C 
ENDBRANCH  10  17
ENDBRANCH   6  15
ENDBRANCH   5   7
ENDBRANCH   1   5
BRANCH   2  18
ATOM     18  C   UNL     1      -5.684  -1.468   7.146  0.00  0.00    +0.181 C 
BRANCH  18  19
ATOM     19  N   UNL     1      -7.056  -1.016   6.878  0.00  0.00    -0.278 NA
ATOM     20  C   UNL     1      -7.822  -2.050   6.176  0.00  0.00    +0.121 C 
ATOM     21  C   UNL     1      -9.252  -1.614   5.994  0.00  0.00    -0.030 A 
ATOM     22  C   UNL     1     -10.027  -2.270   5.048  0.00  0.00    +0.005 A 
ATOM     23  C   UNL     1     -11.344  -1.906   4.851  0.00  0.00    +0.000 A 
ATOM     24  C   UNL     1     -11.895  -0.882   5.599  0.00  0.00    +0.000 A 
ATOM     25  C   UNL     1     -11.125  -0.228   6.540  0.00  0.00    +0.004 A 
ATOM     26  C   UNL     1      -9.801  -0.592   6.737  0.00  0.00    -0.041 A 
ATOM     27  C   UNL     1      -8.996   0.158   7.767  0.00  0.00    +0.063 C 
ATOM     28  C   UNL     1      -7.738  -0.635   8.125  0.00  0.00    +0.148 C 
BRANCH  28  29
ATOM     29  C   UNL     1      -6.822   0.220   8.963  0.00  0.00    +0.228 C 
ATOM     30  O   UNL     1      -6.032   0.968   8.427  0.00  0.00    -0.274 OA
ATOM     31  N   UNL     1      -6.881   0.153  10.307  0.00  0.00    -0.328 N 
ATOM     32  H   UNL     1      -7.513  -0.446  10.736  0.00  0.00    +0.145 HD
ATOM     33  H   UNL     1      -6.291   0.703  10.847  0.00  0.00    +0.145 HD
ENDBRANCH  28  29
ENDBRANCH  18  19
ENDBRANCH   2  18
TORSDOF 7
