REMARK  Name = ZINC33897594
REMARK  8 active torsions:
REMARK  status: ('A' for Active; 'I' for Inactive)
REMARK    1  A    between atoms: C_5  and  C_7
REMARK    2  A    between atoms: C_7  and  N_8
REMARK    3  A    between atoms: C_9  and  C_11
REMARK    4  A    between atoms: C_14  and  C_16
REMARK    5  A    between atoms: C_16  and  C_18
REMARK    6  A    between atoms: C_16  and  N_26
REMARK    7  A    between atoms: C_18  and  C_19
REMARK    8  A    between atoms: C_22  and  O_25
REMARK                            x       y       z     vdW  Elec       q    Type
REMARK                         _______ _______ _______ _____ _____    ______ ____
ROOT
ATOM      1  C   UNL     1       1.813  -4.500   2.931  0.00  0.00    +0.163 A 
ATOM      2  C   UNL     1       1.909  -5.803   3.313  0.00  0.00    +0.230 A 
ATOM      3  O   UNL     1       2.153  -5.807   4.633  0.00  0.00    -0.449 OA
ATOM      4  C   UNL     1       2.206  -4.535   5.053  0.00  0.00    +0.182 A 
ATOM      5  N   UNL     1       2.009  -3.742   4.043  0.00  0.00    -0.210 NA
ENDROOT
BRANCH   1   7
ATOM      6  N   UNL     1       1.488  -2.679   1.333  0.00  0.00    -0.306 N 
ATOM      7  C   UNL     1       1.551  -4.005   1.567  0.00  0.00    +0.266 C 
ATOM      8  O   UNL     1       1.393  -4.792   0.654  0.00  0.00    -0.268 OA
ATOM      9  H   UNL     1       1.615  -2.051   2.062  0.00  0.00    +0.149 HD
BRANCH   6  10
ATOM     10  C   UNL     1       1.229  -2.186  -0.022  0.00  0.00    +0.141 C 
BRANCH  10  15
ATOM     11  C   UNL     1      -0.017   1.378   0.010  0.00  0.00    +0.000 A 
ATOM     12  C   UNL     1       1.171   2.086   0.002  0.00  0.00    +0.001 A 
ATOM     13  C   UNL     1       2.377   1.412  -0.013  0.00  0.00    +0.015 A 
ATOM     14  C   UNL     1       2.397   0.029  -0.021  0.00  0.00    +0.023 A 
ATOM     15  C   UNL     1       1.208  -0.679  -0.013  0.00  0.00    -0.016 A 
ATOM     16  C   UNL     1       0.002  -0.004   0.002  0.00  0.00    +0.006 A 
ATOM     17 BR   UNL     1       4.047  -0.894  -0.042  0.00  0.00    -0.050 Br
ENDBRANCH  10  15
ENDBRANCH   6  10
ENDBRANCH   1   7
BRANCH   4  18
ATOM     18  C   UNL     1       2.459  -4.095   6.472  0.00  0.00    +0.017 C 
BRANCH  18  19
ATOM     19  N   UNL     1       1.649  -4.907   7.389  0.00  0.00    +0.386 N 
ATOM     20  H   UNL     1       0.671  -4.788   7.169  0.00  0.00    -0.089 HD
ATOM     21  H   UNL     1       1.900  -5.879   7.288  0.00  0.00    -0.089 HD
ATOM     22  H   UNL     1       1.818  -4.612   8.339  0.00  0.00    -0.089 HD
ENDBRANCH  18  19
BRANCH  18  23
ATOM     23  C   UNL     1       3.942  -4.276   6.805  0.00  0.00    +0.028 C 
BRANCH  23  24
ATOM     24  C   UNL     1       4.218  -3.722   8.179  0.00  0.00    -0.048 A 
ATOM     25  C   UNL     1       4.579  -2.396   8.330  0.00  0.00    +0.007 A 
ATOM     26  C   UNL     1       4.833  -1.886   9.588  0.00  0.00    +0.045 A 
ATOM     27  C   UNL     1       4.728  -2.707  10.702  0.00  0.00    +0.117 A 
ATOM     28  C   UNL     1       4.366  -4.037  10.549  0.00  0.00    +0.045 A 
ATOM     29  C   UNL     1       4.107  -4.540   9.288  0.00  0.00    +0.007 A 
BRANCH  27  30
ATOM     30  O   UNL     1       4.978  -2.208  11.941  0.00  0.00    -0.507 OA
ATOM     31  H   UNL     1       4.200  -1.841  12.382  0.00  0.00    +0.292 HD
ENDBRANCH  27  30
ENDBRANCH  23  24
ENDBRANCH  18  23
ENDBRANCH   4  18
TORSDOF 8
