REMARK  Name = ZINC09483177
REMARK  5 active torsions:
REMARK  status: ('A' for Active; 'I' for Inactive)
REMARK    1  A    between atoms: C_1  and  C_2
REMARK    2  A    between atoms: C_2  and  C_35
REMARK    3  A    between atoms: C_6  and  C_25
REMARK    4  A    between atoms: N_8  and  C_16
REMARK    5  A    between atoms: C_16  and  C_17
REMARK                            x       y       z     vdW  Elec       q    Type
REMARK                         _______ _______ _______ _____ _____    ______ ____
ROOT
ATOM      1  C   UNL     1       2.809   1.692   2.774  0.00  0.00    +0.011 C 
ATOM      2  C   UNL     1       1.520   2.041   3.521  0.00  0.00    -0.023 C 
ATOM      3  C   UNL     1       1.683   1.707   5.008  0.00  0.00    +0.058 C 
ATOM      4  C   UNL     1       0.451   2.134   5.749  0.00  0.00    +0.017 C 
ATOM      5  C   UNL     1      -0.308   3.168   5.329  0.00  0.00    +0.032 C 
ATOM      6  C   UNL     1      -1.518   3.506   6.166  0.00  0.00    +0.113 C 
ATOM      7  N   UNL     1      -2.566   2.525   5.960  0.00  0.00    -0.312 N 
ATOM      8  C   UNL     1      -2.351   1.240   6.441  0.00  0.00    +0.052 A 
ATOM      9  C   UNL     1      -3.478   0.410   6.500  0.00  0.00    +0.025 A 
ATOM     10  C   UNL     1      -3.372  -0.906   6.887  0.00  0.00    +0.002 A 
ATOM     11  C   UNL     1      -2.142  -1.438   7.228  0.00  0.00    +0.002 A 
ATOM     12  C   UNL     1      -1.022  -0.630   7.202  0.00  0.00    +0.025 A 
ATOM     13  C   UNL     1      -1.125   0.705   6.835  0.00  0.00    +0.052 A 
ATOM     14  N   UNL     1       0.033   1.495   6.881  0.00  0.00    -0.316 N 
ATOM     15  C   UNL     1       0.008   3.893   4.180  0.00  0.00    +0.163 C 
ATOM     16  O   UNL     1      -0.705   4.813   3.829  0.00  0.00    -0.292 OA
ATOM     17  C   UNL     1       1.231   3.538   3.372  0.00  0.00    +0.086 C 
ATOM     18  C   UNL     1       0.358   1.234   2.940  0.00  0.00    +0.011 C 
ATOM     19  H   UNL     1       0.531   1.587   7.708  0.00  0.00    +0.152 HD
ENDROOT
BRANCH   6  20
ATOM     20  C   UNL     1      -1.123   3.522   7.644  0.00  0.00    +0.018 C 
ATOM     21  C   UNL     1      -2.345   3.879   8.500  0.00  0.00    +0.010 C 
ATOM     22  C   UNL     1      -1.968   3.713   9.974  0.00  0.00    +0.027 C 
ATOM     23  C   UNL     1      -0.675   4.419  10.260  0.00  0.00    -0.031 C 
ATOM     24  C   UNL     1       0.164   4.793   9.348  0.00  0.00    -0.031 C 
ATOM     25  C   UNL     1      -0.039   4.577   7.876  0.00  0.00    +0.032 C 
ENDBRANCH   6  20
BRANCH   7  26
ATOM     26  C   UNL     1      -3.867   3.042   6.402  0.00  0.00    +0.201 C 
BRANCH  26  27
ATOM     27  C   UNL     1      -3.861   4.547   6.325  0.00  0.00    +0.233 C 
ATOM     28  O   UNL     1      -3.310   5.105   5.400  0.00  0.00    -0.274 OA
ATOM     29  N   UNL     1      -4.469   5.274   7.284  0.00  0.00    -0.300 N 
ATOM     30  C   UNL     1      -5.296   4.619   8.308  0.00  0.00    +0.108 C 
ATOM     31  C   UNL     1      -4.793   5.053   9.693  0.00  0.00    +0.019 C 
ATOM     32  C   UNL     1      -4.787   6.581   9.772  0.00  0.00    +0.003 C 
ATOM     33  C   UNL     1      -3.835   7.145   8.715  0.00  0.00    +0.019 C 
ATOM     34  C   UNL     1      -4.323   6.735   7.322  0.00  0.00    +0.108 C 
ENDBRANCH  26  27
ENDBRANCH   7  26
TORSDOF 3
