REMARK  Name = ZINC07273311
REMARK  6 active torsions:
REMARK  status: ('A' for Active; 'I' for Inactive)
REMARK    1  A    between atoms: C_5  and  C_7
REMARK    2  A    between atoms: N_9  and  N_10
REMARK    3  A    between atoms: C_11  and  C_13
REMARK    4  A    between atoms: C_13  and  C_14
REMARK    5  A    between atoms: C_14  and  C_15
REMARK    6  A    between atoms: C_15  and  N_16
REMARK                            x       y       z     vdW  Elec       q    Type
REMARK                         _______ _______ _______ _____ _____    ______ ____
ROOT
ATOM      1  N   UNL     1      -4.451   4.267   3.157  0.00  0.00    -0.234 N 
ATOM      2  C   UNL     1      -3.346   3.538   2.901  0.00  0.00    +0.229 C 
ATOM      3  O   UNL     1      -2.684   3.099   3.817  0.00  0.00    -0.274 OA
ATOM      4  H   UNL     1      -4.981   4.618   2.424  0.00  0.00    +0.173 HD
ENDROOT
BRANCH   1   7
ATOM      5  C   UNL     1      -5.939   5.246   4.737  0.00  0.00    +0.263 C 
ATOM      6  O   UNL     1      -6.603   5.686   3.818  0.00  0.00    -0.269 OA
ATOM      7  N   UNL     1      -4.834   4.517   4.481  0.00  0.00    -0.230 N 
ATOM      8  H   UNL     1      -4.305   4.166   5.214  0.00  0.00    +0.173 HD
BRANCH   5  13
ATOM      9  C   UNL     1      -5.966   5.255   8.491  0.00  0.00    +0.001 A 
ATOM     10  C   UNL     1      -7.101   6.004   8.752  0.00  0.00    +0.003 A 
ATOM     11  C   UNL     1      -7.859   6.507   7.712  0.00  0.00    +0.039 A 
ATOM     12  C   UNL     1      -7.488   6.265   6.402  0.00  0.00    +0.136 A 
ATOM     13  C   UNL     1      -6.343   5.510   6.133  0.00  0.00    +0.073 A 
ATOM     14  C   UNL     1      -5.586   5.001   7.190  0.00  0.00    +0.016 A 
ATOM     15  F   UNL     1      -8.230   6.756   5.385  0.00  0.00    -0.205 F 
ENDBRANCH   5  13
ENDBRANCH   1   7
BRANCH   2  16
ATOM     16  C   UNL     1      -2.934   3.269   1.477  0.00  0.00    +0.099 C 
BRANCH  16  17
ATOM     17  C   UNL     1      -1.657   2.426   1.466  0.00  0.00    +0.029 C 
BRANCH  17  18
ATOM     18  C   UNL     1      -1.239   2.153   0.020  0.00  0.00    +0.118 C 
BRANCH  18  19
ATOM     19  N   UNL     1      -0.016   1.346   0.009  0.00  0.00    -0.224 N 
ATOM     20  C   UNL     1       0.002  -0.004   0.002  0.00  0.00    +0.246 C 
ATOM     21  O   UNL     1      -0.952  -0.753   0.007  0.00  0.00    -0.273 OA
ATOM     22  C   UNL     1       1.461  -0.382  -0.014  0.00  0.00    +0.113 C 
ATOM     23  C   UNL     1       1.804  -1.205  -1.263  0.00  0.00    +0.035 C 
ATOM     24  C   UNL     1       2.878  -2.208  -0.767  0.00  0.00    +0.003 C 
ATOM     25  C   UNL     1       2.390  -2.558   0.661  0.00  0.00    +0.003 C 
ATOM     26  C   UNL     1       1.831  -1.226   1.208  0.00  0.00    +0.035 C 
ATOM     27  N   UNL     1       2.171   0.899  -0.014  0.00  0.00    -0.285 N 
ATOM     28  C   UNL     1       1.222   1.856   0.000  0.00  0.00    +0.309 C 
ATOM     29  O   UNL     1       1.463   3.047   0.004  0.00  0.00    -0.252 OA
ATOM     30  H   UNL     1       3.132   1.032  -0.022  0.00  0.00    +0.151 HD
ENDBRANCH  18  19
ENDBRANCH  17  18
ENDBRANCH  16  17
ENDBRANCH   2  16
TORSDOF 6
