REMARK  Name = ZINC40044209
REMARK  14 active torsions:
REMARK  status: ('A' for Active; 'I' for Inactive)
REMARK    1  A    between atoms: C_1  and  C_2
REMARK    2  A    between atoms: C_2  and  C_3
REMARK    3  A    between atoms: N_16  and  C_31
REMARK    4  A    between atoms: C_17  and  C_19
REMARK    5  A    between atoms: C_23  and  O_25
REMARK    6  A    between atoms: O_25  and  C_26
REMARK    7  A    between atoms: C_26  and  C_27
REMARK    8  A    between atoms: C_27  and  C_28
REMARK    9  A    between atoms: C_28  and  C_29
REMARK   10  A    between atoms: C_28  and  C_30
REMARK   11  A    between atoms: C_31  and  C_32
REMARK   12  A    between atoms: C_32  and  C_33
REMARK   13  A    between atoms: C_36  and  O_39
REMARK   14  A    between atoms: O_39  and  C_40
REMARK                            x       y       z     vdW  Elec       q    Type
REMARK                         _______ _______ _______ _____ _____    ______ ____
ROOT
ATOM      1  C   UNL     1      -1.412  -0.526   0.013  0.00  0.00    -0.047 A 
ATOM      2  C   UNL     1      -2.051  -0.766   1.221  0.00  0.00    +0.007 A 
ATOM      3  C   UNL     1      -3.341  -1.246   1.253  0.00  0.00    +0.047 A 
ATOM      4  C   UNL     1      -4.024  -1.495   0.062  0.00  0.00    +0.139 A 
ATOM      5  C   UNL     1      -3.369  -1.242  -1.154  0.00  0.00    +0.065 A 
ATOM      6  C   UNL     1      -2.062  -0.755  -1.168  0.00  0.00    +0.019 A 
ATOM      7  C   UNL     1      -4.093  -1.489  -2.426  0.00  0.00    +0.199 A 
ATOM      8  O   UNL     1      -3.553  -1.459  -3.518  0.00  0.00    -0.287 OA
ATOM      9  C   UNL     1      -5.521  -1.774  -2.244  0.00  0.00    +0.072 A 
ATOM     10  C   UNL     1      -6.041  -1.994  -1.000  0.00  0.00    +0.199 A 
ATOM     11  O   UNL     1      -5.288  -1.972   0.117  0.00  0.00    -0.450 OA
ATOM     12  C   UNL     1      -7.487  -2.241  -1.141  0.00  0.00    +0.283 C 
ATOM     13  O   UNL     1      -8.247  -2.468  -0.221  0.00  0.00    -0.267 OA
ATOM     14  N   UNL     1      -7.843  -2.178  -2.441  0.00  0.00    -0.283 N 
ATOM     15  C   UNL     1      -6.636  -1.882  -3.230  0.00  0.00    +0.145 C 
ENDROOT
BRANCH  15  16
ATOM     16  C   UNL     1      -6.364  -3.001  -4.202  0.00  0.00    -0.019 A 
ATOM     17  C   UNL     1      -6.594  -4.313  -3.828  0.00  0.00    +0.006 A 
ATOM     18  C   UNL     1      -6.345  -5.341  -4.717  0.00  0.00    +0.004 A 
ATOM     19  C   UNL     1      -5.865  -5.062  -5.982  0.00  0.00    +0.045 A 
ATOM     20  C   UNL     1      -5.633  -3.747  -6.360  0.00  0.00    +0.121 A 
ATOM     21  C   UNL     1      -5.890  -2.716  -5.468  0.00  0.00    +0.051 A 
BRANCH  20  22
ATOM     22  O   UNL     1      -5.161  -3.470  -7.604  0.00  0.00    -0.492 OA
BRANCH  22  23
ATOM     23  C   UNL     1      -4.926  -4.581  -8.471  0.00  0.00    +0.229 C 
BRANCH  23  24
ATOM     24  C   UNL     1      -4.400  -4.075  -9.816  0.00  0.00    +0.044 C 
BRANCH  24  25
ATOM     25  C   UNL     1      -4.148  -5.264 -10.745  0.00  0.00    -0.014 C 
ATOM     26  C   UNL     1      -3.742  -4.754 -12.129  0.00  0.00    +0.007 C 
ATOM     27  C   UNL     1      -3.025  -6.130 -10.171  0.00  0.00    +0.007 C 
ENDBRANCH  24  25
ENDBRANCH  23  24
ENDBRANCH  22  23
ENDBRANCH  20  22
ENDBRANCH  15  16
BRANCH   1  29
ATOM     28  C   UNL     1      -0.019   1.526   0.010  0.00  0.00    +0.009 C 
ATOM     29  C   UNL     1       0.002  -0.004   0.002  0.00  0.00    +0.032 C 
ENDBRANCH   1  29
BRANCH  14  30
ATOM     30  C   UNL     1      -9.194  -2.371  -2.973  0.00  0.00    +0.114 C 
BRANCH  30  31
ATOM     31  C   UNL     1      -9.921  -1.025  -3.020  0.00  0.00    +0.054 C 
BRANCH  31  32
ATOM     32  C   UNL     1     -11.310  -1.223  -3.568  0.00  0.00    -0.046 A 
ATOM     33  C   UNL     1     -11.535  -1.137  -4.929  0.00  0.00    +0.007 A 
ATOM     34  C   UNL     1     -12.808  -1.318  -5.434  0.00  0.00    +0.046 A 
ATOM     35  C   UNL     1     -13.862  -1.587  -4.573  0.00  0.00    +0.120 A 
ATOM     36  C   UNL     1     -13.634  -1.673  -3.207  0.00  0.00    +0.046 A 
ATOM     37  C   UNL     1     -12.358  -1.497  -2.708  0.00  0.00    +0.007 A 
BRANCH  35  38
ATOM     38  O   UNL     1     -15.116  -1.765  -5.067  0.00  0.00    -0.495 OA
ATOM     39  C   UNL     1     -16.152  -2.039  -4.122  0.00  0.00    +0.277 C 
ENDBRANCH  35  38
ENDBRANCH  31  32
ENDBRANCH  30  31
ENDBRANCH  14  30
TORSDOF 10
