REMARK  Name = ZINC35430736
REMARK  8 active torsions:
REMARK  status: ('A' for Active; 'I' for Inactive)
REMARK    1  A    between atoms: C_1  and  C_2
REMARK    2  A    between atoms: C_2  and  C_3
REMARK    3  A    between atoms: C_3  and  C_5
REMARK    4  A    between atoms: C_3  and  C_6
REMARK    5  A    between atoms: C_11  and  O_12
REMARK    6  A    between atoms: O_12  and  C_13
REMARK    7  A    between atoms: C_14  and  C_21
REMARK    8  A    between atoms: C_21  and  N_22
REMARK                            x       y       z     vdW  Elec       q    Type
REMARK                         _______ _______ _______ _____ _____    ______ ____
ROOT
ATOM      1  C   UNL     1      -3.199  -2.521  -3.216  0.00  0.00    +0.241 A 
ATOM      2  C   UNL     1      -3.768  -1.921  -4.280  0.00  0.00    +0.070 A 
ATOM      3  N   UNL     1      -4.160  -2.923  -5.171  0.00  0.00    -0.296 N 
ATOM      4  C   UNL     1      -4.773  -3.022  -6.401  0.00  0.00    +0.100 A 
ATOM      5  C   UNL     1      -4.988  -4.212  -6.962  0.00  0.00    +0.067 A 
ATOM      6  S   UNL     1      -4.309  -5.323  -5.739  0.00  0.00    -0.058 S 
ATOM      7  C   UNL     1      -3.788  -4.094  -4.566  0.00  0.00    +0.181 A 
ATOM      8  N   UNL     1      -3.219  -3.849  -3.420  0.00  0.00    -0.186 NA
ENDROOT
BRANCH   1   9
ATOM      9  O   UNL     1      -2.686  -1.890  -2.126  0.00  0.00    -0.436 OA
BRANCH   9  15
ATOM     10  C   UNL     1      -1.623  -2.075  -0.005  0.00  0.00    -0.002 A 
ATOM     11  C   UNL     1      -0.951  -2.842   0.927  0.00  0.00    +0.007 A 
ATOM     12  C   UNL     1      -0.668  -4.168   0.659  0.00  0.00    +0.001 A 
ATOM     13  C   UNL     1      -1.058  -4.732  -0.542  0.00  0.00    +0.004 A 
ATOM     14  C   UNL     1      -1.730  -3.970  -1.478  0.00  0.00    +0.046 A 
ATOM     15  C   UNL     1      -2.020  -2.640  -1.209  0.00  0.00    +0.134 A 
BRANCH  10  16
ATOM     16  C   UNL     1      -1.931  -0.630   0.287  0.00  0.00    +0.019 C 
ATOM     17  C   UNL     1      -2.799  -0.537   1.544  0.00  0.00    +0.012 C 
BRANCH  16  19
ATOM     18  C   UNL     1      -0.928   1.624   0.686  0.00  0.00    +0.004 C 
ATOM     19  C   UNL     1      -0.625   0.135   0.513  0.00  0.00    +0.004 C 
ENDBRANCH  16  19
ENDBRANCH  10  16
ENDBRANCH   9  15
ENDBRANCH   1   9
BRANCH   2  20
ATOM     20  C   UNL     1      -3.950  -0.438  -4.473  0.00  0.00    -0.026 C 
BRANCH  20  21
ATOM     21  N   UNL     1      -5.245  -0.026  -3.914  0.00  0.00    +0.382 N 
ATOM     22  H   UNL     1      -5.988  -0.520  -4.385  0.00  0.00    -0.090 HD
ATOM     23  H   UNL     1      -5.269  -0.242  -2.929  0.00  0.00    -0.090 HD
ATOM     24  H   UNL     1      -5.367   0.967  -4.043  0.00  0.00    -0.090 HD
ENDBRANCH  20  21
ENDBRANCH   2  20
TORSDOF 6
