REMARK  Name = ZINC09155912
REMARK  7 active torsions:
REMARK  status: ('A' for Active; 'I' for Inactive)
REMARK    1  A    between atoms: C_1  and  C_2
REMARK    2  A    between atoms: C_9  and  C_11
REMARK    3  A    between atoms: C_14  and  S_16
REMARK    4  A    between atoms: S_16  and  C_17
REMARK    5  A    between atoms: C_17  and  C_18
REMARK    6  A    between atoms: N_28  and  C_29
REMARK    7  A    between atoms: C_29  and  C_30
REMARK                            x       y       z     vdW  Elec       q    Type
REMARK                         _______ _______ _______ _____ _____    ______ ____
ROOT
ATOM      1  C   UNL     1      -2.441  -2.763   0.012  0.00  0.00    +0.153 C 
ENDROOT
BRANCH   1   2
ATOM      2  C   UNL     1      -1.125  -2.030   0.003  0.00  0.00    +0.124 A 
ATOM      3  N   UNL     1      -1.143  -0.731   0.009  0.00  0.00    -0.233 NA
ATOM      4  C   UNL     1       0.002  -0.004   0.002  0.00  0.00    +0.078 A 
ATOM      5  C   UNL     1      -0.017   1.392   0.010  0.00  0.00    +0.028 A 
ATOM      6  C   UNL     1       1.170   2.090   0.002  0.00  0.00    +0.002 A 
ATOM      7  C   UNL     1       2.388   1.423  -0.013  0.00  0.00    +0.001 A 
ATOM      8  C   UNL     1       2.432   0.046  -0.021  0.00  0.00    +0.015 A 
ATOM      9  C   UNL     1       1.242  -0.679  -0.013  0.00  0.00    +0.065 A 
ATOM     10  C   UNL     1       1.228  -2.150  -0.021  0.00  0.00    +0.262 A 
ATOM     11  O   UNL     1       2.262  -2.792  -0.034  0.00  0.00    -0.267 OA
ATOM     12  N   UNL     1       0.020  -2.761  -0.012  0.00  0.00    -0.287 N 
BRANCH  12  13
ATOM     13  C   UNL     1      -0.053  -4.224  -0.019  0.00  0.00    +0.222 C 
BRANCH  13  14
ATOM     14  C   UNL     1      -0.064  -4.733   1.399  0.00  0.00    +0.230 C 
ATOM     15  O   UNL     1      -0.015  -3.951   2.325  0.00  0.00    -0.274 OA
ATOM     16  N   UNL     1      -0.128  -6.058   1.639  0.00  0.00    -0.328 N 
ATOM     17  H   UNL     1      -0.167  -6.684   0.899  0.00  0.00    +0.145 HD
ATOM     18  H   UNL     1      -0.135  -6.386   2.552  0.00  0.00    +0.145 HD
ENDBRANCH  13  14
ENDBRANCH  12  13
ENDBRANCH   1   2
BRANCH   1  19
ATOM     19  S   UNL     1      -3.799  -1.566   0.032  0.00  0.00    -0.058 S 
BRANCH  19  23
ATOM     20  C   UNL     1      -7.182  -3.467   0.057  0.00  0.00    +0.256 A 
ATOM     21  N   UNL     1      -6.317  -4.455   0.044  0.00  0.00    -0.106 NA
ATOM     22  N   UNL     1      -5.122  -3.976   0.034  0.00  0.00    -0.101 NA
ATOM     23  C   UNL     1      -5.176  -2.665   0.040  0.00  0.00    +0.278 A 
ATOM     24  O   UNL     1      -6.476  -2.313   0.060  0.00  0.00    -0.410 OA
BRANCH  20  32
ATOM     25  C   UNL     1     -14.111  -6.536   0.424  0.00  0.00    +0.008 C 
ATOM     26  C   UNL     1     -13.121  -5.379   0.579  0.00  0.00    -0.009 C 
ATOM     27  C   UNL     1     -13.604  -4.185  -0.250  0.00  0.00    +0.009 C 
ATOM     28  C   UNL     1     -12.760  -2.956   0.118  0.00  0.00    +0.043 C 
ATOM     29  C   UNL     1     -11.319  -3.353   0.101  0.00  0.00    -0.006 A 
ATOM     30  C   UNL     1     -10.807  -4.617   0.090  0.00  0.00    -0.036 A 
ATOM     31  C   UNL     1      -9.422  -4.733   0.075  0.00  0.00    +0.024 A 
ATOM     32  C   UNL     1      -8.647  -3.592   0.072  0.00  0.00    +0.076 A 
ATOM     33  S   UNL     1      -9.887  -2.307   0.098  0.00  0.00    -0.088 S 
ATOM     34  C   UNL     1     -11.740  -5.825   0.097  0.00  0.00    +0.039 C 
ENDBRANCH  20  32
ENDBRANCH  19  23
ENDBRANCH   1  19
TORSDOF 6
