REMARK  Name = ZINC40744794
REMARK  15 active torsions:
REMARK  status: ('A' for Active; 'I' for Inactive)
REMARK    1  A    between atoms: C_1  and  C_2
REMARK    2  A    between atoms: C_2  and  O_3
REMARK    3  A    between atoms: O_3  and  C_4
REMARK    4  A    between atoms: C_6  and  C_20
REMARK    5  A    between atoms: C_9  and  O_10
REMARK    6  A    between atoms: O_10  and  C_11
REMARK    7  A    between atoms: C_11  and  C_12
REMARK    8  A    between atoms: C_16  and  C_18
REMARK    9  A    between atoms: C_20  and  N_21
REMARK   10  A    between atoms: N_21  and  C_22
REMARK   11  A    between atoms: C_22  and  C_23
REMARK   12  A    between atoms: C_23  and  C_24
REMARK   13  A    between atoms: C_24  and  S_25
REMARK   14  A    between atoms: S_25  and  C_26
REMARK   15  A    between atoms: N_30  and  C_31
REMARK                            x       y       z     vdW  Elec       q    Type
REMARK                         _______ _______ _______ _____ _____    ______ ____
ROOT
ATOM      1  C   UNL     1       0.777  -1.811  -1.336  0.00  0.00    +0.163 A 
ATOM      2  C   UNL     1       0.243  -2.669  -0.388  0.00  0.00    +0.051 A 
ATOM      3  C   UNL     1       0.352  -4.037  -0.554  0.00  0.00    -0.060 A 
ATOM      4  C   UNL     1       0.992  -4.553  -1.665  0.00  0.00    +0.021 A 
ATOM      5  C   UNL     1       1.527  -3.702  -2.616  0.00  0.00    +0.063 A 
ATOM      6  C   UNL     1       1.416  -2.329  -2.458  0.00  0.00    +0.176 A 
ATOM      7 BR   UNL     1       2.403  -4.412  -4.134  0.00  0.00    -0.046 Br
ENDROOT
BRANCH   1   8
ATOM      8  O   UNL     1       0.671  -0.465  -1.174  0.00  0.00    -0.489 OA
BRANCH   8  10
ATOM      9  C   UNL     1      -0.019   1.526   0.010  0.00  0.00    +0.048 C 
ATOM     10  C   UNL     1       0.002  -0.004   0.002  0.00  0.00    +0.226 C 
ENDBRANCH   8  10
ENDBRANCH   1   8
BRANCH   6  11
ATOM     11  O   UNL     1       1.936  -1.491  -3.394  0.00  0.00    -0.483 OA
BRANCH  11  12
ATOM     12  C   UNL     1       3.293  -1.080  -3.215  0.00  0.00    +0.264 C 
BRANCH  12  13
ATOM     13  C   UNL     1       3.692  -0.161  -4.341  0.00  0.00    -0.010 A 
ATOM     14  C   UNL     1       4.240  -0.683  -5.498  0.00  0.00    +0.007 A 
ATOM     15  C   UNL     1       4.607   0.160  -6.530  0.00  0.00    +0.001 A 
ATOM     16  C   UNL     1       4.424   1.524  -6.406  0.00  0.00    +0.003 A 
ATOM     17  C   UNL     1       3.875   2.046  -5.250  0.00  0.00    -0.050 A 
ATOM     18  C   UNL     1       3.505   1.203  -4.219  0.00  0.00    +0.010 A 
ATOM     19  C   UNL     1       3.677   3.534  -5.115  0.00  0.00    +0.044 C 
ENDBRANCH  12  13
ENDBRANCH  11  12
ENDBRANCH   6  11
BRANCH   3  20
ATOM     20  C   UNL     1      -0.228  -4.968   0.479  0.00  0.00    -0.047 C 
BRANCH  20  21
ATOM     21  N   UNL     1      -1.619  -5.283   0.128  0.00  0.00    +0.382 N 
ATOM     22  H   UNL     1      -2.160  -4.432   0.101  0.00  0.00    -0.085 HD
ATOM     23  H   UNL     1      -1.646  -5.727  -0.777  0.00  0.00    -0.085 HD
BRANCH  21  24
ATOM     24  C   UNL     1      -2.185  -6.191   1.135  0.00  0.00    -0.081 C 
BRANCH  24  25
ATOM     25  C   UNL     1      -3.634  -6.519   0.770  0.00  0.00    -0.008 C 
BRANCH  25  26
ATOM     26  C   UNL     1      -4.223  -7.464   1.819  0.00  0.00    +0.075 C 
BRANCH  26  27
ATOM     27  S   UNL     1      -5.941  -7.853   1.385  0.00  0.00    -0.085 S 
BRANCH  27  28
ATOM     28  C   UNL     1      -6.471  -8.935   2.671  0.00  0.00    +0.209 A 
ATOM     29  N   UNL     1      -5.754  -9.339   3.697  0.00  0.00    -0.102 NA
ATOM     30  N   UNL     1      -6.443 -10.123   4.446  0.00  0.00    -0.022 NA
ATOM     31  N   UNL     1      -7.628 -10.276   3.964  0.00  0.00    -0.043 NA
ATOM     32  N   UNL     1      -7.694  -9.503   2.792  0.00  0.00    -0.223 N 
ATOM     33  C   UNL     1      -8.840  -9.347   1.892  0.00  0.00    +0.177 C 
ENDBRANCH  27  28
ENDBRANCH  26  27
ENDBRANCH  25  26
ENDBRANCH  24  25
ENDBRANCH  21  24
ENDBRANCH  20  21
ENDBRANCH   3  20
TORSDOF 12
