REMARK  Name = ZINC20410957
REMARK  9 active torsions:
REMARK  status: ('A' for Active; 'I' for Inactive)
REMARK    1  A    between atoms: C_1  and  C_2
REMARK    2  A    between atoms: C_8  and  C_43
REMARK    3  A    between atoms: C_9  and  O_42
REMARK    4  A    between atoms: C_19  and  C_21
REMARK    5  A    between atoms: C_21  and  N_22
REMARK    6  A    between atoms: N_25  and  C_28
REMARK    7  A    between atoms: C_28  and  C_29
REMARK    8  A    between atoms: C_28  and  C_35
REMARK    9  A    between atoms: C_28  and  O_41
REMARK                            x       y       z     vdW  Elec       q    Type
REMARK                         _______ _______ _______ _____ _____    ______ ____
ROOT
ATOM      1  N   UNL     1      -2.107   3.470   2.691  0.00  0.00    +0.382 N 
ATOM      2  C   UNL     1      -2.937   2.398   3.258  0.00  0.00    -0.063 C 
ATOM      3  C   UNL     1      -3.846   2.980   4.344  0.00  0.00    +0.069 C 
ATOM      4  N   UNL     1      -4.683   4.039   3.763  0.00  0.00    -0.271 NA
ATOM      5  C   UNL     1      -3.853   5.111   3.195  0.00  0.00    +0.069 C 
ATOM      6  C   UNL     1      -2.945   4.529   2.110  0.00  0.00    -0.063 C 
ATOM      7  H   UNL     1      -1.519   3.913   3.508  0.00  0.00    -0.082 HD
ENDROOT
BRANCH   1   8
ATOM      8  C   UNL     1      -1.167   2.938   1.697  0.00  0.00    -0.064 C 
BRANCH   8  23
ATOM      9  C   UNL     1      -0.863   2.569   7.530  0.00  0.00    +0.008 C 
ATOM     10  C   UNL     1       0.601   2.678   7.095  0.00  0.00    -0.001 C 
ATOM     11  C   UNL     1       1.455   1.874   8.073  0.00  0.00    +0.008 C 
ATOM     12  C   UNL     1       2.928   2.040   7.685  0.00  0.00    +0.027 C 
ATOM     13  C   UNL     1       3.091   1.593   6.260  0.00  0.00    -0.027 C 
ATOM     14  C   UNL     1       2.135   1.667   5.383  0.00  0.00    -0.061 C 
ATOM     15  C   UNL     1       0.741   2.149   5.669  0.00  0.00    +0.018 C 
ATOM     16  C   UNL     1       0.392   3.260   4.683  0.00  0.00    +0.132 C 
ATOM     17  C   UNL     1       0.809   3.047   3.260  0.00  0.00    +0.071 C 
ATOM     18  C   UNL     1       2.217   2.468   3.045  0.00  0.00    +0.187 C 
ATOM     19  C   UNL     1       2.442   1.254   3.957  0.00  0.00    +0.076 C 
ATOM     20  O   UNL     1       2.151   1.938   1.676  0.00  0.00    -0.460 OA
ATOM     21  C   UNL     1       0.896   1.568   1.376  0.00  0.00    +0.309 C 
ATOM     22  O   UNL     1       0.567   0.907   0.415  0.00  0.00    -0.251 OA
ATOM     23  C   UNL     1      -0.072   2.131   2.409  0.00  0.00    +0.090 C 
ATOM     24  C   UNL     1      -0.240   0.985   5.514  0.00  0.00    +0.018 C 
BRANCH  16  25
ATOM     25  O   UNL     1      -1.024   3.486   4.713  0.00  0.00    -0.391 OA
ATOM     26  H   UNL     1      -1.472   4.254   4.066  0.00  0.00    +0.210 HD
ENDBRANCH  16  25
ENDBRANCH   8  23
ENDBRANCH   1   8
BRANCH   4  27
ATOM     27  C   UNL     1      -5.624   4.571   4.757  0.00  0.00    +0.172 C 
BRANCH  27  28
ATOM     28  C   UNL     1      -6.485   5.630   4.117  0.00  0.00    +0.003 A 
ATOM     29  C   UNL     1      -6.856   5.511   2.791  0.00  0.00    +0.008 A 
ATOM     30  C   UNL     1      -7.649   6.480   2.206  0.00  0.00    +0.000 A 
ATOM     31  C   UNL     1      -8.064   7.572   2.944  0.00  0.00    +0.000 A 
ATOM     32  C   UNL     1      -7.689   7.694   4.269  0.00  0.00    +0.000 A 
ATOM     33  C   UNL     1      -6.899   6.723   4.856  0.00  0.00    +0.008 A 
ENDBRANCH  27  28
BRANCH  27  34
ATOM     34  C   UNL     1      -6.498   3.456   5.270  0.00  0.00    +0.003 A 
ATOM     35  C   UNL     1      -6.824   2.398   4.443  0.00  0.00    +0.008 A 
ATOM     36  C   UNL     1      -7.622   1.372   4.915  0.00  0.00    +0.000 A 
ATOM     37  C   UNL     1      -8.101   1.409   6.211  0.00  0.00    +0.000 A 
ATOM     38  C   UNL     1      -7.778   2.470   7.037  0.00  0.00    +0.000 A 
ATOM     39  C   UNL     1      -6.977   3.493   6.566  0.00  0.00    +0.008 A 
ENDBRANCH  27  34
BRANCH  27  40
ATOM     40  O   UNL     1      -4.894   5.144   5.844  0.00  0.00    -0.366 OA
ATOM     41  H   UNL     1      -5.433   5.595   6.691  0.00  0.00    +0.212 HD
ENDBRANCH  27  40
ENDBRANCH   4  27
TORSDOF 7
