REMARK  Name = ZINC01726813
REMARK  17 active torsions:
REMARK  status: ('A' for Active; 'I' for Inactive)
REMARK    1  A    between atoms: C_1  and  C_2
REMARK    2  A    between atoms: C_2  and  C_3
REMARK    3  A    between atoms: C_3  and  C_4
REMARK    4  A    between atoms: C_4  and  N_68
REMARK    5  A    between atoms: C_5  and  C_6
REMARK    6  A    between atoms: C_5  and  N_68
REMARK    7  A    between atoms: C_6  and  C_7
REMARK    8  A    between atoms: C_7  and  C_8
REMARK    9  A    between atoms: C_9  and  C_10
REMARK   10  A    between atoms: C_9  and  N_68
REMARK   11  A    between atoms: C_10  and  C_12
REMARK   12  A    between atoms: C_10  and  O_33
REMARK   13  A    between atoms: C_14  and  C_26
REMARK   14  A    between atoms: C_18  and  O_24
REMARK   15  A    between atoms: C_21  and  O_22
REMARK   16  A    between atoms: O_22  and  C_23
REMARK   17  A    between atoms: O_24  and  C_25
REMARK                            x       y       z     vdW  Elec       q    Type
REMARK                         _______ _______ _______ _____ _____    ______ ____
ROOT
ATOM      1  C   UNL     1       0.833  -1.059   0.176  0.00  0.00    -0.006 A 
ATOM      2  C   UNL     1      -0.371  -0.422   0.128  0.00  0.00    +0.035 A 
ATOM      3  C   UNL     1      -0.431   0.970   0.295  0.00  0.00    +0.072 A 
ATOM      4  N   UNL     1       0.657   1.687   0.499  0.00  0.00    -0.243 NA
ATOM      5  C   UNL     1       1.863   1.116   0.555  0.00  0.00    +0.117 A 
ATOM      6  C   UNL     1       1.989  -0.287   0.394  0.00  0.00    +0.051 A 
ATOM      7  C   UNL     1       3.264  -0.882   0.453  0.00  0.00    +0.130 A 
ATOM      8  C   UNL     1       4.372  -0.093   0.669  0.00  0.00    +0.050 A 
ATOM      9  C   UNL     1       4.244   1.284   0.826  0.00  0.00    +0.051 A 
ATOM     10  C   UNL     1       3.022   1.889   0.773  0.00  0.00    +0.146 A 
ENDROOT
BRANCH   3  11
ATOM     11  C   UNL     1      -1.747   1.652   0.235  0.00  0.00    +0.000 A 
ATOM     12  C   UNL     1      -2.907   0.913   0.009  0.00  0.00    +0.011 A 
ATOM     13  C   UNL     1      -4.130   1.551  -0.041  0.00  0.00    +0.020 A 
ATOM     14  C   UNL     1      -4.204   2.924   0.122  0.00  0.00    +0.041 A 
ATOM     15  C   UNL     1      -3.053   3.663   0.341  0.00  0.00    +0.020 A 
ATOM     16  C   UNL     1      -1.827   3.034   0.399  0.00  0.00    +0.011 A 
ATOM     17 CL   UNL     1      -5.744   3.722   0.050  0.00  0.00    -0.084 Cl
ENDBRANCH   3  11
BRANCH  10  18
ATOM     18  O   UNL     1       2.921   3.236   0.930  0.00  0.00    -0.493 OA
ATOM     19  C   UNL     1       4.136   3.956   1.147  0.00  0.00    +0.277 C 
ENDBRANCH  10  18
BRANCH   7  20
ATOM     20  O   UNL     1       3.400  -2.225   0.300  0.00  0.00    -0.494 OA
ATOM     21  C   UNL     1       4.725  -2.756   0.373  0.00  0.00    +0.277 C 
ENDBRANCH   7  20
BRANCH   1  22
ATOM     22  C   UNL     1       0.924  -2.553  -0.000  0.00  0.00    +0.129 C 
BRANCH  22  23
ATOM     23  O   UNL     1      -0.335  -3.148   0.321  0.00  0.00    -0.389 OA
ATOM     24  H   UNL     1      -1.067  -2.840  -0.230  0.00  0.00    +0.210 HD
ENDBRANCH  22  23
BRANCH  22  25
ATOM     25  C   UNL     1       1.285  -2.875  -1.452  0.00  0.00    -0.042 C 
BRANCH  25  26
ATOM     26  N   UNL     1       1.349  -4.343  -1.613  0.00  0.00    +0.382 N 
ATOM     27  H   UNL     1       0.483  -4.756  -1.250  0.00  0.00    -0.082 HD
BRANCH  26  28
ATOM     28  C   UNL     1       1.483  -4.688  -3.044  0.00  0.00    -0.079 C 
BRANCH  28  29
ATOM     29  C   UNL     1       0.113  -4.548  -3.712  0.00  0.00    -0.019 C 
BRANCH  29  31
ATOM     30  C   UNL     1      -1.139  -4.768  -5.862  0.00  0.00    +0.004 C 
ATOM     31  C   UNL     1       0.230  -4.908  -5.195  0.00  0.00    -0.005 C 
ENDBRANCH  29  31
ENDBRANCH  28  29
ENDBRANCH  26  28
BRANCH  26  32
ATOM     32  C   UNL     1       2.496  -4.884  -0.854  0.00  0.00    -0.079 C 
BRANCH  32  33
ATOM     33  C   UNL     1       2.329  -6.400  -0.727  0.00  0.00    -0.019 C 
BRANCH  33  34
ATOM     34  C   UNL     1       3.411  -6.956   0.201  0.00  0.00    -0.005 C 
ATOM     35  C   UNL     1       3.244  -8.472   0.328  0.00  0.00    +0.004 C 
ENDBRANCH  33  34
ENDBRANCH  32  33
ENDBRANCH  26  32
ENDBRANCH  25  26
ENDBRANCH  22  25
ENDBRANCH   1  22
TORSDOF 13
