REMARK  Name = ZINC22698163
REMARK  11 active torsions:
REMARK  status: ('A' for Active; 'I' for Inactive)
REMARK    1  A    between atoms: C_1  and  C_2
REMARK    2  A    between atoms: C_2  and  O_3
REMARK    3  A    between atoms: O_3  and  C_4
REMARK    4  A    between atoms: N_9  and  C_12
REMARK    5  A    between atoms: C_12  and  C_14
REMARK    6  A    between atoms: C_12  and  C_22
REMARK    7  A    between atoms: C_19  and  O_20
REMARK    8  A    between atoms: O_20  and  C_21
REMARK    9  A    between atoms: C_25  and  C_35
REMARK   10  A    between atoms: N_26  and  C_29
REMARK   11  A    between atoms: C_29  and  C_30
REMARK                            x       y       z     vdW  Elec       q    Type
REMARK                         _______ _______ _______ _____ _____    ______ ____
ROOT
ATOM      1  C   UNL     1       1.385   3.493  -0.166  0.00  0.00    +0.130 C 
ENDROOT
BRANCH   1   2
ATOM      2  C   UNL     1       2.779   4.061  -0.080  0.00  0.00    +0.085 A 
ATOM      3  C   UNL     1       3.252   4.907  -1.066  0.00  0.00    +0.191 A 
ATOM      4  C   UNL     1       4.560   5.420  -0.955  0.00  0.00    +0.072 A 
ATOM      5  C   UNL     1       5.326   5.081   0.104  0.00  0.00    +0.023 A 
ATOM      6  N   UNL     1       4.854   4.248   1.069  0.00  0.00    -0.305 N 
ATOM      7  C   UNL     1       3.609   3.743   1.001  0.00  0.00    +0.261 A 
ATOM      8  O   UNL     1       3.204   3.001   1.883  0.00  0.00    -0.267 OA
ATOM      9  C   UNL     1       6.724   5.633   0.217  0.00  0.00    +0.064 C 
ATOM     10  O   UNL     1       2.471   5.237  -2.122  0.00  0.00    -0.287 OA
BRANCH   6  11
ATOM     11  C   UNL     1       5.713   3.901   2.204  0.00  0.00    +0.199 C 
BRANCH  11  12
ATOM     12  C   UNL     1       5.508   4.899   3.313  0.00  0.00    +0.125 A 
ATOM     13  C   UNL     1       4.600   4.802   4.301  0.00  0.00    +0.046 A 
ATOM     14  C   UNL     1       4.756   5.947   5.115  0.00  0.00    +0.041 A 
ATOM     15  C   UNL     1       5.744   6.680   4.571  0.00  0.00    +0.195 A 
ATOM     16  O   UNL     1       6.196   6.041   3.480  0.00  0.00    -0.466 OA
ENDBRANCH  11  12
ENDBRANCH   6  11
ENDBRANCH   1   2
BRANCH   1  22
ATOM     17  C   UNL     1       0.853  -1.754  -1.444  0.00  0.00    +0.403 C 
ATOM     18  O   UNL     1       1.674  -2.240  -2.197  0.00  0.00    -0.226 OA
ATOM     19  N   UNL     1       1.167  -0.662  -0.719  0.00  0.00    -0.265 N 
ATOM     20  C   UNL     1       2.497  -0.043  -0.824  0.00  0.00    +0.126 C 
ATOM     21  C   UNL     1       2.317   1.456  -1.086  0.00  0.00    +0.104 C 
ATOM     22  N   UNL     1       1.445   2.030  -0.052  0.00  0.00    -0.288 NA
ATOM     23  C   UNL     1       0.100   1.442  -0.104  0.00  0.00    +0.104 C 
ATOM     24  C   UNL     1       0.188  -0.058   0.198  0.00  0.00    +0.126 C 
BRANCH  17  25
ATOM     25  O   UNL     1      -0.370  -2.306  -1.335  0.00  0.00    -0.451 OA
BRANCH  25  27
ATOM     26  C   UNL     1      -2.067  -3.962  -1.889  0.00  0.00    +0.048 C 
ATOM     27  C   UNL     1      -0.638  -3.480  -2.146  0.00  0.00    +0.230 C 
ENDBRANCH  25  27
ENDBRANCH  17  25
ENDBRANCH   1  22
BRANCH   1  28
ATOM     28  C   UNL     1       0.546   4.050   0.955  0.00  0.00    +0.016 A 
ATOM     29  C   UNL     1       0.437   3.359   2.147  0.00  0.00    +0.009 A 
ATOM     30  C   UNL     1      -0.332   3.870   3.176  0.00  0.00    +0.001 A 
ATOM     31  C   UNL     1      -0.994   5.073   3.015  0.00  0.00    +0.004 A 
ATOM     32  C   UNL     1      -0.888   5.768   1.826  0.00  0.00    +0.046 A 
ATOM     33  C   UNL     1      -0.113   5.260   0.794  0.00  0.00    +0.125 A 
BRANCH  33  34
ATOM     34  O   UNL     1      -0.003   5.944  -0.375  0.00  0.00    -0.495 OA
ATOM     35  C   UNL     1      -0.709   7.183  -0.470  0.00  0.00    +0.277 C 
ENDBRANCH  33  34
ENDBRANCH   1  28
TORSDOF 8
