REMARK  Name = ZINC42961344
REMARK  3 active torsions:
REMARK  status: ('A' for Active; 'I' for Inactive)
REMARK    1  A    between atoms: C_4  and  C_7
REMARK    2  A    between atoms: N_20  and  C_21
REMARK    3  A    between atoms: C_24  and  O_27
REMARK                            x       y       z     vdW  Elec       q    Type
REMARK                         _______ _______ _______ _____ _____    ______ ____
ROOT
ATOM      1  C   UNL     1       3.712  -0.704  -0.040  0.00  0.00    +0.067 C 
ATOM      2  C   UNL     1       3.792  -1.563  -1.301  0.00  0.00    +0.122 C 
ATOM      3  N   UNL     1       4.931  -2.483  -1.150  0.00  0.00    -0.280 N 
ATOM      4  C   UNL     1       4.854  -3.480  -0.077  0.00  0.00    +0.144 C 
ATOM      5  C   UNL     1       4.349  -2.827   1.186  0.00  0.00    -0.026 A 
ATOM      6  C   UNL     1       3.818  -1.557   1.197  0.00  0.00    -0.034 A 
ATOM      7  C   UNL     1       3.358  -1.019   2.392  0.00  0.00    +0.004 A 
ATOM      8  C   UNL     1       3.435  -1.744   3.564  0.00  0.00    +0.000 A 
ATOM      9  C   UNL     1       3.974  -3.016   3.551  0.00  0.00    +0.000 A 
ATOM     10  C   UNL     1       4.429  -3.553   2.366  0.00  0.00    +0.005 A 
ATOM     11  C   UNL     1       6.001  -2.413  -1.966  0.00  0.00    +0.303 C 
ATOM     12  O   UNL     1       6.002  -1.638  -2.904  0.00  0.00    -0.253 OA
ATOM     13  N   UNL     1       7.071  -3.201  -1.744  0.00  0.00    -0.296 N 
ATOM     14  H   UNL     1       7.043  -3.870  -1.042  0.00  0.00    +0.151 HD
ENDROOT
BRANCH   1  18
ATOM     15  C   UNL     1      -0.017   1.379   0.006  0.00  0.00    +0.000 A 
ATOM     16  C   UNL     1       1.170   2.087  -0.004  0.00  0.00    +0.000 A 
ATOM     17  C   UNL     1       2.377   1.413  -0.019  0.00  0.00    +0.004 A 
ATOM     18  C   UNL     1       2.396   0.031  -0.023  0.00  0.00    -0.038 A 
ATOM     19  C   UNL     1       1.209  -0.677  -0.012  0.00  0.00    +0.004 A 
ATOM     20  C   UNL     1       0.002  -0.003   0.002  0.00  0.00    +0.000 A 
ENDBRANCH   1  18
BRANCH  13  21
ATOM     21  C   UNL     1       8.277  -3.047  -2.561  0.00  0.00    +0.075 C 
ATOM     22  C   UNL     1       8.129  -3.862  -3.847  0.00  0.00    +0.025 C 
ATOM     23  C   UNL     1       9.389  -3.702  -4.701  0.00  0.00    +0.033 C 
ATOM     24  C   UNL     1      10.603  -4.203  -3.917  0.00  0.00    +0.115 C 
ATOM     25  C   UNL     1      10.752  -3.388  -2.631  0.00  0.00    +0.033 C 
ATOM     26  C   UNL     1       9.492  -3.549  -1.777  0.00  0.00    +0.025 C 
BRANCH  24  27
ATOM     27  O   UNL     1      11.780  -4.053  -4.714  0.00  0.00    -0.392 OA
ATOM     28  H   UNL     1      12.590  -4.351  -4.279  0.00  0.00    +0.210 HD
ENDBRANCH  24  27
ENDBRANCH  13  21
TORSDOF 3
