REMARK  Name = ZINC39560942
REMARK  7 active torsions:
REMARK  status: ('A' for Active; 'I' for Inactive)
REMARK    1  A    between atoms: C_1  and  O_2
REMARK    2  A    between atoms: O_2  and  C_3
REMARK    3  A    between atoms: C_3  and  C_5
REMARK    4  A    between atoms: C_20  and  C_34
REMARK    5  A    between atoms: C_23  and  N_26
REMARK    6  A    between atoms: N_26  and  C_27
REMARK    7  A    between atoms: C_27  and  C_28
REMARK                            x       y       z     vdW  Elec       q    Type
REMARK                         _______ _______ _______ _____ _____    ______ ____
ROOT
ATOM      1  C   UNL     1       0.410  -1.706  -1.175  0.00  0.00    +0.172 C 
ATOM      2  C   UNL     1       1.173  -2.003   0.124  0.00  0.00    +0.067 C 
ATOM      3  C   UNL     1       2.615  -1.612  -0.086  0.00  0.00    -0.017 C 
ATOM      4  C   UNL     1       3.594  -1.419   0.810  0.00  0.00    -0.013 C 
ATOM      5  C   UNL     1       3.592  -1.526   2.309  0.00  0.00    +0.064 C 
ATOM      6  C   UNL     1       4.960  -1.206   2.843  0.00  0.00    -0.022 C 
ATOM      7  C   UNL     1       6.009  -0.877   2.096  0.00  0.00    -0.002 C 
ATOM      8  C   UNL     1       5.969  -0.786   0.690  0.00  0.00    +0.028 C 
ATOM      9  C   UNL     1       4.756  -1.060   0.060  0.00  0.00    +0.068 C 
ATOM     10  N   UNL     1       4.426  -1.055  -1.239  0.00  0.00    -0.250 NA
ATOM     11  C   UNL     1       3.165  -1.379  -1.366  0.00  0.00    +0.063 C 
ATOM     12  C   UNL     1       2.353  -1.513  -2.631  0.00  0.00    +0.106 C 
ATOM     13  N   UNL     1       1.135  -2.273  -2.317  0.00  0.00    -0.274 NA
ATOM     14  C   UNL     1       0.275  -2.393  -3.500  0.00  0.00    +0.090 C 
ATOM     15  C   UNL     1       1.018  -3.169  -4.590  0.00  0.00    +0.008 C 
ATOM     16  C   UNL     1       2.313  -2.434  -4.945  0.00  0.00    -0.068 C 
ATOM     17  C   UNL     1       3.168  -2.254  -3.692  0.00  0.00    +0.009 C 
ENDROOT
BRANCH  14  18
ATOM     18  C   UNL     1      -0.988  -3.127  -3.131  0.00  0.00    +0.005 A 
ATOM     19  C   UNL     1      -2.215  -2.643  -3.544  0.00  0.00    +0.008 A 
ATOM     20  C   UNL     1      -3.374  -3.317  -3.206  0.00  0.00    +0.000 A 
ATOM     21  C   UNL     1      -3.307  -4.475  -2.454  0.00  0.00    +0.003 A 
ATOM     22  C   UNL     1      -2.082  -4.962  -2.041  0.00  0.00    +0.038 A 
ATOM     23  C   UNL     1      -0.920  -4.290  -2.384  0.00  0.00    +0.128 A 
ATOM     24  F   UNL     1       0.280  -4.767  -1.984  0.00  0.00    -0.205 F 
ENDBRANCH  14  18
BRANCH  16  25
ATOM     25  N   UNL     1       3.060  -3.212  -5.943  0.00  0.00    +0.383 N 
ATOM     26  H   UNL     1       3.951  -2.770  -6.116  0.00  0.00    -0.085 HD
ATOM     27  H   UNL     1       3.210  -4.148  -5.596  0.00  0.00    -0.085 HD
BRANCH  25  28
ATOM     28  C   UNL     1       2.292  -3.270  -7.194  0.00  0.00    -0.050 C 
BRANCH  28  29
ATOM     29  C   UNL     1       3.070  -4.080  -8.233  0.00  0.00    +0.101 C 
ATOM     30  C   UNL     1       2.292  -4.125  -9.572  0.00  0.00    +0.032 C 
ATOM     31  C   UNL     1       3.449  -4.372 -10.577  0.00  0.00    +0.030 C 
ATOM     32  C   UNL     1       4.615  -3.590  -9.934  0.00  0.00    +0.160 C 
ATOM     33  O   UNL     1       4.314  -3.432  -8.541  0.00  0.00    -0.378 OA
ENDBRANCH  28  29
ENDBRANCH  25  28
ENDBRANCH  16  25
BRANCH   1  34
ATOM     34  C   UNL     1       0.284  -0.215  -1.352  0.00  0.00    +0.325 C 
ATOM     35  O   UNL     1       1.257   0.444  -1.635  0.00  0.00    -0.249 OA
BRANCH  34  37
ATOM     36  C   UNL     1      -0.955   1.798  -1.378  0.00  0.00    +0.280 C 
ATOM     37  O   UNL     1      -0.908   0.381  -1.196  0.00  0.00    -0.467 OA
ENDBRANCH  34  37
ENDBRANCH   1  34
TORSDOF 6
