REMARK  Name = ZINC21664160
REMARK  4 active torsions:
REMARK  status: ('A' for Active; 'I' for Inactive)
REMARK    1  A    between atoms: C_4  and  C_7
REMARK    2  A    between atoms: C_7  and  C_8
REMARK    3  A    between atoms: C_8  and  N_9
REMARK    4  A    between atoms: C_10  and  C_12
REMARK                            x       y       z     vdW  Elec       q    Type
REMARK                         _______ _______ _______ _____ _____    ______ ____
ROOT
ATOM      1  C   UNL     1      -0.867   7.990   1.073  0.00  0.00    +0.078 C 
ATOM      2  C   UNL     1      -2.060   7.030   1.067  0.00  0.00    +0.032 C 
ATOM      3  C   UNL     1      -1.551   5.591   1.170  0.00  0.00    +0.108 C 
ATOM      4  N   UNL     1      -0.662   5.303   0.036  0.00  0.00    -0.308 N 
ATOM      5  C   UNL     1       0.515   6.180   0.048  0.00  0.00    +0.108 C 
ATOM      6  C   UNL     1       0.068   7.638  -0.088  0.00  0.00    +0.032 C 
ATOM      7  C   UNL     1      -0.288   3.970   0.026  0.00  0.00    +0.184 A 
ATOM      8  N   UNL     1       0.912   3.455   0.012  0.00  0.00    -0.139 NA
ATOM      9  N   UNL     1       1.110   2.077   0.003  0.00  0.00    -0.169 N 
ATOM     10  C   UNL     1       2.302   1.414  -0.013  0.00  0.00    +0.279 A 
ATOM     11  O   UNL     1       3.348   2.045  -0.018  0.00  0.00    -0.265 OA
ATOM     12  C   UNL     1       2.332   0.013  -0.025  0.00  0.00    +0.040 A 
ATOM     13  C   UNL     1       1.151  -0.685  -0.015  0.00  0.00    +0.053 A 
ATOM     14  N   UNL     1       0.002  -0.004   0.002  0.00  0.00    -0.226 NA
ATOM     15  C   UNL     1      -0.016   1.303   0.009  0.00  0.00    +0.201 A 
ATOM     16  S   UNL     1      -1.319   2.513   0.035  0.00  0.00    -0.013 S 
ATOM     17  C   UNL     1       1.090  -2.188  -0.017  0.00  0.00    +0.056 C 
ATOM     18  C   UNL     1       2.427  -2.777  -0.462  0.00  0.00    +0.006 C 
ATOM     19  C   UNL     1       3.541  -2.131   0.370  0.00  0.00    +0.005 C 
ATOM     20  C   UNL     1       3.674  -0.669  -0.052  0.00  0.00    +0.042 C 
ENDROOT
BRANCH   1  22
ATOM     21  N   UNL     1      -0.478  10.426   0.889  0.00  0.00    -0.315 N 
ATOM     22  C   UNL     1      -1.358   9.405   0.912  0.00  0.00    +0.216 C 
ATOM     23  O   UNL     1      -2.546   9.626   0.804  0.00  0.00    -0.276 OA
ATOM     24  H   UNL     1       0.599  10.226   0.988  0.00  0.00    +0.149 HD
BRANCH  21  25
ATOM     25  C   UNL     1      -0.956  11.802   0.733  0.00  0.00    +0.108 C 
BRANCH  25  26
ATOM     26  C   UNL     1       0.237  12.760   0.739  0.00  0.00    +0.049 C 
BRANCH  26  30
ATOM     27  C   UNL     1      -0.776  16.909   0.257  0.00  0.00    +0.004 C 
ATOM     28  C   UNL     1      -1.367  15.939  -0.773  0.00  0.00    +0.005 C 
ATOM     29  C   UNL     1      -0.488  14.685  -0.814  0.00  0.00    +0.030 C 
ATOM     30  C   UNL     1      -0.254  14.175   0.578  0.00  0.00    -0.072 C 
ATOM     31  C   UNL     1      -0.443  14.877   1.649  0.00  0.00    -0.028 C 
ATOM     32  C   UNL     1      -0.938  16.294   1.649  0.00  0.00    +0.027 C 
ENDBRANCH  26  30
ENDBRANCH  25  26
ENDBRANCH  21  25
ENDBRANCH   1  22
TORSDOF 4
