REMARK  Name = ZINC36026567
REMARK  8 active torsions:
REMARK  status: ('A' for Active; 'I' for Inactive)
REMARK    1  A    between atoms: C_1  and  C_2
REMARK    2  A    between atoms: C_2  and  C_3
REMARK    3  A    between atoms: C_3  and  C_5
REMARK    4  A    between atoms: C_3  and  C_6
REMARK    5  A    between atoms: C_6  and  N_7
REMARK    6  A    between atoms: C_10  and  C_26
REMARK    7  A    between atoms: C_19  and  C_21
REMARK    8  A    between atoms: C_26  and  C_27
REMARK                            x       y       z     vdW  Elec       q    Type
REMARK                         _______ _______ _______ _____ _____    ______ ____
ROOT
ATOM      1  N   UNL     1       1.155  -2.491  -2.756  0.00  0.00    -0.313 N 
ATOM      2  C   UNL     1       0.445  -2.536  -3.902  0.00  0.00    +0.201 C 
ATOM      3  O   UNL     1      -0.708  -2.184  -4.036  0.00  0.00    -0.277 OA
ATOM      4  C   UNL     1       1.331  -3.099  -4.993  0.00  0.00    +0.023 C 
ATOM      5  N   UNL     1       2.455  -3.743  -4.273  0.00  0.00    +0.401 N 
ATOM      6  C   UNL     1       2.511  -2.989  -3.001  0.00  0.00    +0.006 C 
ATOM      7  C   UNL     1       2.945  -3.920  -1.870  0.00  0.00    +0.025 C 
ATOM      8  C   UNL     1       2.959  -3.144  -0.549  0.00  0.00    +0.108 C 
ATOM      9  N   UNL     1       3.798  -1.948  -0.713  0.00  0.00    -0.295 N 
ATOM     10  C   UNL     1       3.507  -1.027  -1.820  0.00  0.00    +0.108 C 
ATOM     11  C   UNL     1       3.488  -1.821  -3.130  0.00  0.00    +0.025 C 
ATOM     12  C   UNL     1       4.815  -1.702   0.136  0.00  0.00    +0.282 C 
ATOM     13  O   UNL     1       4.993  -2.425   1.098  0.00  0.00    -0.267 OA
ATOM     14  H   UNL     1       2.259  -4.718  -4.106  0.00  0.00    -0.082 HD
ATOM     15  H   UNL     1       3.317  -3.634  -4.787  0.00  0.00    -0.082 HD
ENDROOT
BRANCH  12  16
ATOM     16  C   UNL     1       5.708  -0.562  -0.101  0.00  0.00    +0.189 A 
ATOM     17  C   UNL     1       6.850  -0.281   0.592  0.00  0.00    +0.054 A 
ATOM     18  C   UNL     1       7.383   0.891   0.033  0.00  0.00    +0.042 A 
ATOM     19  C   UNL     1       6.552   1.269  -0.964  0.00  0.00    +0.196 A 
ATOM     20  O   UNL     1       5.547   0.388  -1.045  0.00  0.00    -0.458 OA
ENDBRANCH  12  16
BRANCH   1  21
ATOM     21  C   UNL     1       0.650  -2.012  -1.467  0.00  0.00    +0.109 C 
BRANCH  21  22
ATOM     22  C   UNL     1       0.014  -3.176  -0.704  0.00  0.00    +0.003 C 
ATOM     23  C   UNL     1      -1.201  -3.690  -1.479  0.00  0.00    +0.009 C 
BRANCH  22  25
ATOM     24  C   UNL     1      -0.950  -3.887   1.488  0.00  0.00    +0.004 C 
ATOM     25  C   UNL     1      -0.429  -2.697   0.680  0.00  0.00    +0.001 C 
ENDBRANCH  22  25
ENDBRANCH  21  22
ENDBRANCH   1  21
BRANCH   4  26
ATOM     26  C   UNL     1       0.564  -4.132  -5.821  0.00  0.00    +0.028 C 
BRANCH  26  27
ATOM     27  C   UNL     1       1.434  -4.614  -6.953  0.00  0.00    -0.048 A 
ATOM     28  C   UNL     1       1.413  -3.958  -8.169  0.00  0.00    +0.003 A 
ATOM     29  C   UNL     1       2.212  -4.401  -9.207  0.00  0.00    +0.000 A 
ATOM     30  C   UNL     1       3.031  -5.500  -9.029  0.00  0.00    +0.000 A 
ATOM     31  C   UNL     1       3.052  -6.156  -7.813  0.00  0.00    +0.000 A 
ATOM     32  C   UNL     1       2.257  -5.711  -6.773  0.00  0.00    +0.003 A 
ENDBRANCH  26  27
ENDBRANCH   4  26
TORSDOF 6
