REMARK  Name = ZINC08594828
REMARK  10 active torsions:
REMARK  status: ('A' for Active; 'I' for Inactive)
REMARK    1  A    between atoms: C_1  and  C_2
REMARK    2  A    between atoms: C_6  and  N_8
REMARK    3  A    between atoms: C_9  and  C_11
REMARK    4  A    between atoms: C_11  and  S_12
REMARK    5  A    between atoms: S_12  and  C_13
REMARK    6  A    between atoms: C_23  and  C_28
REMARK    7  A    between atoms: C_28  and  C_29
REMARK    8  A    between atoms: C_29  and  C_30
REMARK    9  A    between atoms: N_32  and  C_33
REMARK   10  A    between atoms: C_33  and  C_34
REMARK                            x       y       z     vdW  Elec       q    Type
REMARK                         _______ _______ _______ _____ _____    ______ ____
ROOT
ATOM      1  C   UNL     1      -0.334  -7.412   4.943  0.00  0.00    +0.169 C 
ATOM      2  N   UNL     1      -0.331  -6.630   5.988  0.00  0.00    -0.225 NA
ATOM      3  C   UNL     1      -0.410  -7.114   7.253  0.00  0.00    +0.077 A 
ATOM      4  C   UNL     1      -0.406  -6.261   8.359  0.00  0.00    +0.028 A 
ATOM      5  C   UNL     1      -0.488  -6.788   9.629  0.00  0.00    +0.002 A 
ATOM      6  C   UNL     1      -0.575  -8.159   9.825  0.00  0.00    +0.001 A 
ATOM      7  C   UNL     1      -0.581  -9.021   8.747  0.00  0.00    +0.013 A 
ATOM      8  C   UNL     1      -0.499  -8.507   7.457  0.00  0.00    +0.041 A 
ATOM      9  C   UNL     1      -0.502  -9.391   6.272  0.00  0.00    +0.139 C 
ATOM     10  N   UNL     1      -0.574 -10.690   6.188  0.00  0.00    -0.255 NA
ATOM     11  C   UNL     1      -0.537 -11.051   4.764  0.00  0.00    +0.194 C 
ATOM     12  C   UNL     1      -0.431  -9.720   4.051  0.00  0.00    +0.251 C 
ATOM     13  O   UNL     1      -0.371  -9.531   2.855  0.00  0.00    -0.272 OA
ATOM     14  N   UNL     1      -0.422  -8.786   5.029  0.00  0.00    -0.200 N 
ENDROOT
BRANCH   1  15
ATOM     15  S   UNL     1      -0.226  -6.677   3.345  0.00  0.00    -0.080 S 
BRANCH  15  16
ATOM     16  C   UNL     1      -0.129  -4.898   3.686  0.00  0.00    +0.173 C 
BRANCH  16  18
ATOM     17  N   UNL     1       0.052  -2.797   2.393  0.00  0.00    -0.285 N 
ATOM     18  C   UNL     1      -0.031  -4.143   2.385  0.00  0.00    +0.227 C 
ATOM     19  O   UNL     1      -0.028  -4.745   1.333  0.00  0.00    -0.275 OA
ATOM     20  H   UNL     1       0.127  -2.321   3.234  0.00  0.00    +0.155 HD
BRANCH  17  26
ATOM     21  C   UNL     1       1.524   1.061  -0.275  0.00  0.00    +0.044 C 
ATOM     22  C   UNL     1       0.735  -0.215  -0.134  0.00  0.00    -0.049 A 
ATOM     23  C   UNL     1      -0.011  -0.687  -1.199  0.00  0.00    +0.003 A 
ATOM     24  C   UNL     1      -0.736  -1.857  -1.074  0.00  0.00    +0.002 A 
ATOM     25  C   UNL     1      -0.717  -2.559   0.116  0.00  0.00    +0.023 A 
ATOM     26  C   UNL     1       0.031  -2.089   1.186  0.00  0.00    +0.034 A 
ATOM     27  C   UNL     1       0.763  -0.915   1.056  0.00  0.00    +0.026 A 
ENDBRANCH  17  26
ENDBRANCH  16  18
ENDBRANCH  15  16
ENDBRANCH   1  15
BRANCH  11  28
ATOM     28  C   UNL     1      -1.823 -11.777   4.362  0.00  0.00    +0.045 C 
BRANCH  28  29
ATOM     29  C   UNL     1      -1.890 -13.129   5.075  0.00  0.00    +0.098 C 
BRANCH  29  30
ATOM     30  C   UNL     1      -3.155 -13.844   4.678  0.00  0.00    +0.213 C 
ATOM     31  O   UNL     1      -3.928 -13.324   3.902  0.00  0.00    -0.276 OA
ATOM     32  N   UNL     1      -3.429 -15.062   5.187  0.00  0.00    -0.308 N 
ATOM     33  H   UNL     1      -2.811 -15.478   5.809  0.00  0.00    +0.149 HD
BRANCH  32  34
ATOM     34  C   UNL     1      -4.660 -15.757   4.802  0.00  0.00    +0.178 C 
BRANCH  34  35
ATOM     35  C   UNL     1      -4.726 -17.088   5.505  0.00  0.00    +0.122 A 
ATOM     36  C   UNL     1      -5.290 -17.318   6.704  0.00  0.00    +0.046 A 
ATOM     37  C   UNL     1      -5.126 -18.695   6.978  0.00  0.00    +0.041 A 
ATOM     38  C   UNL     1      -4.471 -19.225   5.929  0.00  0.00    +0.195 A 
ATOM     39  O   UNL     1      -4.236 -18.248   5.037  0.00  0.00    -0.466 OA
ENDBRANCH  34  35
ENDBRANCH  32  34
ENDBRANCH  29  30
ENDBRANCH  28  29
ENDBRANCH  11  28
TORSDOF 9
