REMARK  Name = ZINC29051053
REMARK  12 active torsions:
REMARK  status: ('A' for Active; 'I' for Inactive)
REMARK    1  A    between atoms: C_1  and  C_2
REMARK    2  A    between atoms: C_2  and  O_3
REMARK    3  A    between atoms: O_3  and  C_4
REMARK    4  A    between atoms: C_4  and  C_6
REMARK    5  A    between atoms: C_7  and  C_24
REMARK    6  A    between atoms: C_12  and  C_14
REMARK    7  A    between atoms: C_19  and  O_20
REMARK    8  A    between atoms: O_20  and  C_21
REMARK    9  A    between atoms: C_24  and  N_25
REMARK   10  A    between atoms: N_25  and  C_26
REMARK   11  A    between atoms: N_25  and  C_27
REMARK   12  A    between atoms: C_27  and  C_28
REMARK                            x       y       z     vdW  Elec       q    Type
REMARK                         _______ _______ _______ _____ _____    ______ ____
ROOT
ATOM      1  C   UNL     1       0.388   2.020   0.220  0.00  0.00    +0.076 C 
ATOM      2  C   UNL     1       1.473   2.819   0.131  0.00  0.00    +0.008 C 
ATOM      3  N   UNL     1       1.344   4.169  -0.028  0.00  0.00    -0.274 N 
ATOM      4  C   UNL     1       0.164   4.798  -0.106  0.00  0.00    +0.304 C 
ATOM      5  O   UNL     1       0.150   6.005  -0.247  0.00  0.00    -0.252 OA
ATOM      6  N   UNL     1      -1.008   4.136  -0.032  0.00  0.00    -0.288 N 
ATOM      7  C   UNL     1      -0.977   2.673   0.134  0.00  0.00    +0.147 C 
ATOM      8  H   UNL     1       2.240   4.803  -0.099  0.00  0.00    +0.156 HD
ATOM      9  H   UNL     1      -1.971   4.663  -0.092  0.00  0.00    +0.151 HD
ENDROOT
BRANCH   7  10
ATOM     10  C   UNL     1      -1.715   2.055  -1.026  0.00  0.00    +0.019 A 
ATOM     11  C   UNL     1      -1.651   2.638  -2.277  0.00  0.00    +0.009 A 
ATOM     12  C   UNL     1      -2.326   2.071  -3.341  0.00  0.00    +0.001 A 
ATOM     13  C   UNL     1      -3.069   0.919  -3.157  0.00  0.00    +0.004 A 
ATOM     14  C   UNL     1      -3.136   0.332  -1.908  0.00  0.00    +0.046 A 
ATOM     15  C   UNL     1      -2.454   0.896  -0.840  0.00  0.00    +0.132 A 
BRANCH  15  16
ATOM     16  O   UNL     1      -2.514   0.317   0.388  0.00  0.00    -0.434 OA
BRANCH  16  17
ATOM     17  C   UNL     1      -3.287  -0.880   0.504  0.00  0.00    +0.541 C 
ATOM     18  F   UNL     1      -4.619  -0.609   0.173  0.00  0.00    -0.166 F 
ATOM     19  F   UNL     1      -2.778  -1.849  -0.367  0.00  0.00    -0.166 F 
ENDBRANCH  16  17
ENDBRANCH  15  16
ENDBRANCH   7  10
BRANCH   1  20
ATOM     20  C   UNL     1       0.520   0.622   0.384  0.00  0.00    +0.339 C 
ATOM     21  O   UNL     1       0.376   0.121   1.483  0.00  0.00    -0.245 OA
BRANCH  20  22
ATOM     22  O   UNL     1       0.807  -0.158  -0.680  0.00  0.00    -0.462 OA
BRANCH  22  24
ATOM     23  C   UNL     1       1.283  -2.276  -1.742  0.00  0.00    +0.048 C 
ATOM     24  C   UNL     1       0.827  -1.570  -0.463  0.00  0.00    +0.229 C 
ENDBRANCH  22  24
ENDBRANCH  20  22
ENDBRANCH   1  20
BRANCH   2  25
ATOM     25  C   UNL     1       2.850   2.210   0.206  0.00  0.00    -0.026 C 
BRANCH  25  26
ATOM     26  N   UNL     1       3.536   2.699   1.410  0.00  0.00    +0.384 N 
ATOM     27  C   UNL     1       2.970   2.091   2.622  0.00  0.00    -0.095 C 
ATOM     28  H   UNL     1       3.377   3.785   1.472  0.00  0.00    -0.081 HD
BRANCH  26  29
ATOM     29  C   UNL     1       4.982   2.457   1.326  0.00  0.00    -0.043 C 
BRANCH  29  30
ATOM     30  C   UNL     1       5.679   3.182   2.449  0.00  0.00    -0.060 A 
ATOM     31  C   UNL     1       6.123   4.478   2.263  0.00  0.00    +0.005 A 
ATOM     32  C   UNL     1       6.757   5.149   3.292  0.00  0.00    +0.050 A 
ATOM     33  C   UNL     1       6.960   4.519   4.509  0.00  0.00    +0.166 A 
ATOM     34  C   UNL     1       6.517   3.212   4.695  0.00  0.00    +0.166 A 
ATOM     35  C   UNL     1       5.877   2.547   3.661  0.00  0.00    +0.051 A 
ATOM     36  O   UNL     1       6.832   2.820   5.964  0.00  0.00    -0.453 OA
ATOM     37  C   UNL     1       7.831   3.753   6.417  0.00  0.00    +0.466 C 
ATOM     38  O   UNL     1       7.552   4.947   5.662  0.00  0.00    -0.453 OA
ENDBRANCH  29  30
ENDBRANCH  26  29
ENDBRANCH  25  26
ENDBRANCH   2  25
TORSDOF 10
