REMARK  Name = ZINC38546348
REMARK  12 active torsions:
REMARK  status: ('A' for Active; 'I' for Inactive)
REMARK    1  A    between atoms: C_1  and  C_2
REMARK    2  A    between atoms: C_2  and  O_3
REMARK    3  A    between atoms: O_3  and  C_4
REMARK    4  A    between atoms: C_4  and  C_6
REMARK    5  A    between atoms: N_9  and  C_12
REMARK    6  A    between atoms: C_12  and  C_14
REMARK    7  A    between atoms: C_12  and  C_22
REMARK    8  A    between atoms: C_19  and  O_20
REMARK    9  A    between atoms: O_20  and  C_21
REMARK   10  A    between atoms: C_24  and  C_35
REMARK   11  A    between atoms: C_26  and  N_27
REMARK   12  A    between atoms: C_28  and  C_30
REMARK                            x       y       z     vdW  Elec       q    Type
REMARK                         _______ _______ _______ _____ _____    ______ ____
ROOT
ATOM      1  C   UNL     1       4.471  -4.471  -4.838  0.00  0.00    -0.001 C 
ENDROOT
BRANCH   1   5
ATOM      2  C   UNL     1       2.310  -1.653  -2.484  0.00  0.00    +0.094 C 
ATOM      3  C   UNL     1       3.723  -1.307  -2.964  0.00  0.00    -0.004 C 
ATOM      4  C   UNL     1       4.089  -2.209  -4.145  0.00  0.00    -0.077 C 
ATOM      5  N   UNL     1       4.044  -3.614  -3.724  0.00  0.00    +0.387 N 
ATOM      6  C   UNL     1       2.676  -3.973  -3.330  0.00  0.00    -0.077 C 
ATOM      7  C   UNL     1       2.256  -3.139  -2.118  0.00  0.00    -0.004 C 
ATOM      8  H   UNL     1       4.665  -3.750  -2.941  0.00  0.00    -0.080 HD
BRANCH   2   9
ATOM      9  C   UNL     1       1.973  -0.823  -1.272  0.00  0.00    +0.310 C 
ATOM     10  O   UNL     1       1.715  -1.363  -0.223  0.00  0.00    -0.251 OA
BRANCH   9  11
ATOM     11  O   UNL     1       1.959   0.516  -1.358  0.00  0.00    -0.465 OA
BRANCH  11  13
ATOM     12  C   UNL     1       1.665   2.741  -0.462  0.00  0.00    +0.048 C 
ATOM     13  C   UNL     1       1.631   1.240  -0.171  0.00  0.00    +0.229 C 
ENDBRANCH  11  13
ENDBRANCH   9  11
ENDBRANCH   2   9
ENDBRANCH   1   5
BRANCH   1  14
ATOM     14  C   UNL     1       5.879  -4.110  -5.238  0.00  0.00    -0.015 A 
ATOM     15  C   UNL     1       6.767  -3.639  -4.291  0.00  0.00    +0.006 A 
ATOM     16  C   UNL     1       8.059  -3.308  -4.657  0.00  0.00    +0.000 A 
ATOM     17  C   UNL     1       8.464  -3.447  -5.971  0.00  0.00    +0.004 A 
ATOM     18  C   UNL     1       7.580  -3.918  -6.922  0.00  0.00    +0.046 A 
ATOM     19  C   UNL     1       6.285  -4.257  -6.556  0.00  0.00    +0.122 A 
BRANCH  19  20
ATOM     20  O   UNL     1       5.415  -4.726  -7.489  0.00  0.00    -0.495 OA
ATOM     21  C   UNL     1       5.933  -4.960  -8.800  0.00  0.00    +0.277 C 
ENDBRANCH  19  20
ENDBRANCH   1  14
BRANCH   1  22
ATOM     22  C   UNL     1       4.426  -5.915  -4.408  0.00  0.00    -0.028 A 
ATOM     23  C   UNL     1       4.772  -6.276  -3.119  0.00  0.00    +0.015 A 
ATOM     24  C   UNL     1       4.719  -7.583  -2.765  0.00  0.00    -0.011 A 
ATOM     25  S   UNL     1       4.167  -8.357  -4.276  0.00  0.00    -0.078 S 
ATOM     26  C   UNL     1       4.037  -6.886  -5.280  0.00  0.00    +0.074 A 
ATOM     27  C   UNL     1       5.044  -8.219  -1.438  0.00  0.00    +0.051 C 
BRANCH  26  28
ATOM     28  N   UNL     1       3.642  -6.765  -6.614  0.00  0.00    -0.273 N 
ATOM     29  C   UNL     1       3.192  -7.843  -7.285  0.00  0.00    +0.284 C 
ATOM     30  O   UNL     1       3.044  -8.903  -6.705  0.00  0.00    -0.266 OA
ATOM     31  H   UNL     1       3.691  -5.903  -7.058  0.00  0.00    +0.156 HD
BRANCH  29  32
ATOM     32  C   UNL     1       2.881  -7.741  -8.714  0.00  0.00    +0.189 A 
ATOM     33  C   UNL     1       2.340  -8.726  -9.490  0.00  0.00    +0.054 A 
ATOM     34  C   UNL     1       2.214  -8.196 -10.784  0.00  0.00    +0.042 A 
ATOM     35  C   UNL     1       2.677  -6.928 -10.742  0.00  0.00    +0.196 A 
ATOM     36  O   UNL     1       3.074  -6.655  -9.492  0.00  0.00    -0.458 OA
ENDBRANCH  29  32
ENDBRANCH  26  28
ENDBRANCH   1  22
TORSDOF 9
