REMARK  Name = ZINC64623225
REMARK  9 active torsions:
REMARK  status: ('A' for Active; 'I' for Inactive)
REMARK    1  A    between atoms: C_1  and  C_2
REMARK    2  A    between atoms: C_5  and  C_8
REMARK    3  A    between atoms: C_15  and  O_20
REMARK    4  A    between atoms: O_20  and  C_21
REMARK    5  A    between atoms: N_27  and  C_28
REMARK    6  A    between atoms: C_31  and  O_36
REMARK    7  A    between atoms: C_32  and  O_34
REMARK    8  A    between atoms: O_34  and  C_35
REMARK    9  A    between atoms: O_36  and  C_37
REMARK                            x       y       z     vdW  Elec       q    Type
REMARK                         _______ _______ _______ _____ _____    ______ ____
ROOT
ATOM      1  C   UNL     1       0.651  -5.053   0.372  0.00  0.00    +0.134 C 
ATOM      2  C   UNL     1       1.946  -5.455   1.088  0.00  0.00    +0.131 C 
ATOM      3  C   UNL     1       1.993  -4.655   2.384  0.00  0.00    -0.035 C 
ATOM      4  C   UNL     1       3.140  -3.988   2.372  0.00  0.00    +0.003 A 
ATOM      5  C   UNL     1       3.776  -3.110   3.366  0.00  0.00    +0.055 A 
ATOM      6  C   UNL     1       4.976  -2.567   3.022  0.00  0.00    +0.121 A 
ATOM      7  C   UNL     1       5.619  -2.798   1.797  0.00  0.00    +0.047 A 
ATOM      8  C   UNL     1       5.125  -3.592   0.813  0.00  0.00    +0.029 A 
ATOM      9  C   UNL     1       3.832  -4.241   1.070  0.00  0.00    +0.043 A 
ATOM     10  N   UNL     1       3.133  -5.072   0.320  0.00  0.00    -0.375 N 
ATOM     11  C   UNL     1       0.851  -4.645   3.371  0.00  0.00    +0.052 C 
ATOM     12  C   UNL     1      -0.424  -4.325   2.570  0.00  0.00    +0.114 C 
ATOM     13  N   UNL     1      -0.448  -5.136   1.347  0.00  0.00    -0.276 N 
ATOM     14  C   UNL     1      -1.485  -5.965   1.113  0.00  0.00    +0.307 C 
ATOM     15  O   UNL     1      -1.467  -6.705   0.149  0.00  0.00    -0.252 OA
ATOM     16  N   UNL     1      -2.543  -5.972   1.949  0.00  0.00    -0.269 N 
ATOM     17  H   UNL     1      -2.577  -5.351   2.693  0.00  0.00    +0.156 HD
ATOM     18  H   UNL     1       3.352  -5.375  -0.575  0.00  0.00    +0.160 HD
ENDROOT
BRANCH   1  23
ATOM     19  C   UNL     1       1.110   0.356  -1.607  0.00  0.00    +0.044 C 
ATOM     20  C   UNL     1       0.991  -1.054  -1.091  0.00  0.00    -0.050 A 
ATOM     21  C   UNL     1       1.319  -1.340   0.221  0.00  0.00    +0.004 A 
ATOM     22  C   UNL     1       1.209  -2.634   0.694  0.00  0.00    +0.006 A 
ATOM     23  C   UNL     1       0.770  -3.642  -0.144  0.00  0.00    -0.025 A 
ATOM     24  C   UNL     1       0.441  -3.356  -1.455  0.00  0.00    +0.006 A 
ATOM     25  C   UNL     1       0.546  -2.061  -1.928  0.00  0.00    +0.004 A 
ENDBRANCH   1  23
BRANCH  16  26
ATOM     26  C   UNL     1      -3.592  -6.877   1.742  0.00  0.00    +0.038 A 
ATOM     27  C   UNL     1      -3.906  -7.294   0.456  0.00  0.00    +0.027 A 
ATOM     28  C   UNL     1      -4.941  -8.187   0.250  0.00  0.00    +0.051 A 
ATOM     29  C   UNL     1      -5.668  -8.667   1.328  0.00  0.00    +0.162 A 
ATOM     30  C   UNL     1      -5.355  -8.251   2.618  0.00  0.00    +0.163 A 
ATOM     31  C   UNL     1      -4.314  -7.361   2.825  0.00  0.00    +0.072 A 
BRANCH  30  32
ATOM     32  O   UNL     1      -6.068  -8.722   3.676  0.00  0.00    -0.491 OA
ATOM     33  C   UNL     1      -5.692  -8.252   4.973  0.00  0.00    +0.277 C 
ENDBRANCH  30  32
BRANCH  29  34
ATOM     34  O   UNL     1      -6.687  -9.546   1.124  0.00  0.00    -0.491 OA
ATOM     35  C   UNL     1      -6.952  -9.929  -0.227  0.00  0.00    +0.277 C 
ENDBRANCH  29  34
ENDBRANCH  16  26
BRANCH   6  36
ATOM     36  O   UNL     1       5.588  -1.750   3.920  0.00  0.00    -0.495 OA
ATOM     37  C   UNL     1       6.847  -1.192   3.537  0.00  0.00    +0.277 C 
ENDBRANCH   6  36
TORSDOF 5
