REMARK  Name = ZINC12338646
REMARK  8 active torsions:
REMARK  status: ('A' for Active; 'I' for Inactive)
REMARK    1  A    between atoms: C_1  and  C_2
REMARK    2  A    between atoms: C_5  and  C_30
REMARK    3  A    between atoms: N_6  and  C_7
REMARK    4  A    between atoms: C_11  and  C_12
REMARK    5  A    between atoms: C_16  and  C_22
REMARK    6  A    between atoms: C_18  and  O_21
REMARK    7  A    between atoms: C_22  and  S_23
REMARK    8  A    between atoms: S_23  and  C_24
REMARK                            x       y       z     vdW  Elec       q    Type
REMARK                         _______ _______ _______ _____ _____    ______ ____
ROOT
ATOM      1  C   UNL     1      -1.132  -0.951   0.007  0.00  0.00    +0.104 A 
ATOM      2  C   UNL     1      -2.489  -0.601   0.022  0.00  0.00    +0.079 A 
ATOM      3  C   UNL     1      -3.223  -1.776   0.022  0.00  0.00    +0.160 A 
ATOM      4  N   UNL     1      -4.543  -2.016   0.033  0.00  0.00    -0.232 NA
ATOM      5  C   UNL     1      -5.007  -3.246   0.030  0.00  0.00    +0.059 A 
ATOM      6  C   UNL     1      -4.129  -4.331   0.016  0.00  0.00    +0.091 A 
ATOM      7  C   UNL     1      -2.782  -4.104   0.005  0.00  0.00    +0.217 A 
ATOM      8  N   UNL     1      -2.326  -2.814   0.008  0.00  0.00    -0.182 N 
ATOM      9  N   UNL     1      -1.037  -2.270  -0.007  0.00  0.00    -0.161 NA
ENDROOT
BRANCH   1  14
ATOM     10  C   UNL     1       1.359  -0.270  -0.012  0.00  0.00    +0.063 A 
ATOM     11  C   UNL     1       2.236   0.799  -0.015  0.00  0.00    +0.034 A 
ATOM     12  C   UNL     1       1.740   2.062  -0.004  0.00  0.00    +0.048 A 
ATOM     13  S   UNL     1      -0.022   1.781   0.012  0.00  0.00    -0.093 S 
ATOM     14  C   UNL     1       0.002  -0.004   0.002  0.00  0.00    +0.063 A 
BRANCH  10  20
ATOM     15  C   UNL     1       1.905  -1.882  -2.565  0.00  0.00    +0.064 C 
ATOM     16  C   UNL     1       2.088  -2.336  -1.140  0.00  0.00    +0.021 A 
ATOM     17  C   UNL     1       2.533  -3.548  -0.747  0.00  0.00    +0.023 A 
ATOM     18  C   UNL     1       2.547  -3.556   0.662  0.00  0.00    +0.023 A 
ATOM     19  C   UNL     1       2.115  -2.347   1.078  0.00  0.00    +0.021 A 
ATOM     20  N   UNL     1       1.835  -1.592  -0.025  0.00  0.00    -0.317 N 
ATOM     21  C   UNL     1       1.968  -1.906   2.511  0.00  0.00    +0.064 C 
ENDBRANCH  10  20
ENDBRANCH   1  14
BRANCH   7  22
ATOM     22  O   UNL     1      -1.911  -5.139  -0.010  0.00  0.00    -0.492 OA
ATOM     23  H   UNL     1      -1.650  -5.446   0.869  0.00  0.00    +0.294 HD
ENDBRANCH   7  22
BRANCH   5  24
ATOM     24  C   UNL     1      -6.495  -3.486   0.043  0.00  0.00    +0.130 C 
BRANCH  24  25
ATOM     25  S   UNL     1      -7.076  -3.592   1.758  0.00  0.00    -0.119 S 
BRANCH  25  26
ATOM     26  C   UNL     1      -8.809  -3.870   1.604  0.00  0.00    +0.008 A 
ATOM     27  C   UNL     1      -9.393  -3.949   0.345  0.00  0.00    +0.015 A 
ATOM     28  C   UNL     1     -10.750  -4.174   0.229  0.00  0.00    +0.001 A 
ATOM     29  C   UNL     1     -11.531  -4.308   1.363  0.00  0.00    +0.000 A 
ATOM     30  C   UNL     1     -10.954  -4.224   2.617  0.00  0.00    +0.001 A 
ATOM     31  C   UNL     1      -9.596  -4.006   2.741  0.00  0.00    +0.015 A 
ENDBRANCH  25  26
ENDBRANCH  24  25
ENDBRANCH   5  24
TORSDOF 6
