REMARK  Name = ZINC04952176
REMARK  11 active torsions:
REMARK  status: ('A' for Active; 'I' for Inactive)
REMARK    1  A    between atoms: C_1  and  C_2
REMARK    2  A    between atoms: C_2  and  N_57
REMARK    3  A    between atoms: C_3  and  C_4
REMARK    4  A    between atoms: C_3  and  N_57
REMARK    5  A    between atoms: C_5  and  C_6
REMARK    6  A    between atoms: C_5  and  N_57
REMARK    7  A    between atoms: C_6  and  C_8
REMARK    8  A    between atoms: C_6  and  O_29
REMARK    9  A    between atoms: C_8  and  N_9
REMARK   10  A    between atoms: C_15  and  C_16
REMARK   11  A    between atoms: C_20  and  N_22
REMARK                            x       y       z     vdW  Elec       q    Type
REMARK                         _______ _______ _______ _____ _____    ______ ____
ROOT
ATOM      1  N   UNL     1      -1.194   5.739   0.073  0.00  0.00    -0.326 N 
ATOM      2  C   UNL     1      -1.180   7.033   0.528  0.00  0.00    +0.026 A 
ATOM      3  C   UNL     1      -0.072   7.501   1.127  0.00  0.00    +0.005 A 
ATOM      4  C   UNL     1       1.052   6.639   1.258  0.00  0.00    +0.115 A 
ATOM      5  S   UNL     1       2.484   7.207   2.006  0.00  0.00    -0.030 S 
ATOM      6  N   UNL     1       0.988   5.381   0.802  0.00  0.00    -0.222 NA
ATOM      7  C   UNL     1      -0.105   4.938   0.218  0.00  0.00    +0.142 A 
ATOM      8  C   UNL     1       0.038   8.899   1.673  0.00  0.00    +0.039 C 
ATOM      9  C   UNL     1      -1.046   9.795   1.077  0.00  0.00    +0.005 C 
ATOM     10  C   UNL     1      -2.398   9.089   1.240  0.00  0.00    +0.006 C 
ATOM     11  C   UNL     1      -2.415   7.868   0.322  0.00  0.00    +0.054 C 
ENDROOT
BRANCH   7  12
ATOM     12  C   UNL     1      -0.151   3.548  -0.281  0.00  0.00    +0.020 A 
ATOM     13  C   UNL     1      -1.366   2.861  -0.330  0.00  0.00    +0.011 A 
ATOM     14  C   UNL     1      -1.403   1.565  -0.801  0.00  0.00    +0.003 A 
ATOM     15  C   UNL     1      -0.239   0.942  -1.216  0.00  0.00    +0.033 A 
ATOM     16  C   UNL     1       0.968   1.617  -1.170  0.00  0.00    +0.127 A 
ATOM     17  C   UNL     1       1.018   2.916  -0.705  0.00  0.00    +0.044 A 
BRANCH  16  18
ATOM     18  N   UNL     1       2.208   0.945  -1.619  0.00  0.00    +0.056 N 
ATOM     19  O   UNL     1       2.165  -0.201  -2.029  0.00  0.00    -0.126 OA
ATOM     20  O   UNL     1       3.271   1.538  -1.580  0.00  0.00    -0.126 OA
ENDBRANCH  16  18
ENDBRANCH   7  12
BRANCH   1  21
ATOM     21  C   UNL     1      -2.397   5.214  -0.577  0.00  0.00    +0.153 C 
BRANCH  21  22
ATOM     22  C   UNL     1      -3.378   4.721   0.488  0.00  0.00    +0.118 C 
BRANCH  22  23
ATOM     23  O   UNL     1      -3.869   5.836   1.235  0.00  0.00    -0.392 OA
ATOM     24  H   UNL     1      -4.503   6.385   0.752  0.00  0.00    +0.210 HD
ENDBRANCH  22  23
BRANCH  22  25
ATOM     25  C   UNL     1      -4.549   4.006  -0.189  0.00  0.00    -0.045 C 
BRANCH  25  26
ATOM     26  N   UNL     1      -5.393   3.387   0.855  0.00  0.00    +0.381 N 
ATOM     27  H   UNL     1      -4.786   2.980   1.576  0.00  0.00    -0.082 HD
BRANCH  26  29
ATOM     28  C   UNL     1      -7.213   5.009   0.442  0.00  0.00    -0.017 C 
ATOM     29  C   UNL     1      -6.258   4.411   1.477  0.00  0.00    -0.082 C 
ENDBRANCH  26  29
BRANCH  26  30
ATOM     30  C   UNL     1      -6.222   2.316   0.264  0.00  0.00    -0.082 C 
ATOM     31  C   UNL     1      -6.982   1.603   1.385  0.00  0.00    -0.017 C 
ENDBRANCH  26  30
ENDBRANCH  25  26
ENDBRANCH  22  25
ENDBRANCH  21  22
ENDBRANCH   1  21
TORSDOF 9
