REMARK  Name = ZINC09217709
REMARK  6 active torsions:
REMARK  status: ('A' for Active; 'I' for Inactive)
REMARK    1  A    between atoms: C_1  and  C_2
REMARK    2  A    between atoms: C_2  and  O_3
REMARK    3  A    between atoms: O_3  and  C_4
REMARK    4  A    between atoms: C_6  and  C_14
REMARK    5  A    between atoms: C_9  and  O_10
REMARK    6  A    between atoms: O_10  and  C_11
REMARK                            x       y       z     vdW  Elec       q    Type
REMARK                         _______ _______ _______ _____ _____    ______ ____
ROOT
ATOM      1  C   UNL     1      -0.018   1.464   0.010  0.00  0.00    +0.209 C 
ATOM      2  N   UNL     1       1.387   1.908  -0.001  0.00  0.00    -0.293 N 
ATOM      3  C   UNL     1       2.333   1.205   0.697  0.00  0.00    +0.183 C 
ATOM      4  N   UNL     1       2.216  -0.096   0.897  0.00  0.00    -0.183 NA
ATOM      5  C   UNL     1       1.098  -0.719   0.457  0.00  0.00    +0.236 A 
ATOM      6  N   UNL     1       0.002  -0.004   0.002  0.00  0.00    -0.285 N 
ATOM      7  C   UNL     1      -0.938  -0.906  -0.397  0.00  0.00    +0.072 A 
ATOM      8  C   UNL     1      -2.209  -0.770  -0.942  0.00  0.00    +0.028 A 
ATOM      9  C   UNL     1      -2.901  -1.935  -1.230  0.00  0.00    +0.002 A 
ATOM     10  C   UNL     1      -2.362  -3.188  -0.992  0.00  0.00    +0.002 A 
ATOM     11  C   UNL     1      -1.099  -3.351  -0.452  0.00  0.00    +0.030 A 
ATOM     12  C   UNL     1      -0.380  -2.188  -0.153  0.00  0.00    +0.091 A 
ATOM     13  N   UNL     1       0.850  -2.004   0.365  0.00  0.00    -0.210 NA
ATOM     14  N   UNL     1       3.421   1.864   1.199  0.00  0.00    -0.331 N 
ATOM     15  H   UNL     1       1.643   2.697  -0.503  0.00  0.00    +0.151 HD
ATOM     16  H   UNL     1       4.097   1.377   1.695  0.00  0.00    +0.145 HD
ATOM     17  H   UNL     1       3.518   2.819   1.059  0.00  0.00    +0.145 HD
ENDROOT
BRANCH   1  20
ATOM     18  C   UNL     1      -2.658   2.836   2.338  0.00  0.00    +0.162 A 
ATOM     19  C   UNL     1      -2.024   2.377   1.195  0.00  0.00    +0.056 A 
ATOM     20  C   UNL     1      -0.706   1.963   1.254  0.00  0.00    -0.003 A 
ATOM     21  C   UNL     1      -0.020   2.001   2.454  0.00  0.00    +0.011 A 
ATOM     22  C   UNL     1      -0.645   2.463   3.597  0.00  0.00    +0.050 A 
ATOM     23  C   UNL     1      -1.966   2.880   3.544  0.00  0.00    +0.168 A 
BRANCH  18  24
ATOM     24  O   UNL     1      -3.954   3.244   2.281  0.00  0.00    -0.489 OA
BRANCH  24  26
ATOM     25  C   UNL     1      -6.043   3.669   1.141  0.00  0.00    +0.048 C 
ATOM     26  C   UNL     1      -4.602   3.172   1.009  0.00  0.00    +0.226 C 
ENDBRANCH  24  26
ENDBRANCH  18  24
BRANCH  23  27
ATOM     27  O   UNL     1      -2.584   3.329   4.669  0.00  0.00    -0.431 OA
BRANCH  27  28
ATOM     28  C   UNL     1      -1.812   3.346   5.871  0.00  0.00    +0.541 C 
ATOM     29  F   UNL     1      -1.387   2.047   6.170  0.00  0.00    -0.166 F 
ATOM     30  F   UNL     1      -0.698   4.174   5.698  0.00  0.00    -0.166 F 
ENDBRANCH  27  28
ENDBRANCH  23  27
ENDBRANCH   1  20
TORSDOF 5
