REMARK  Name = ZINC39965702
REMARK  13 active torsions:
REMARK  status: ('A' for Active; 'I' for Inactive)
REMARK    1  A    between atoms: C_1  and  C_2
REMARK    2  A    between atoms: C_2  and  C_3
REMARK    3  A    between atoms: C_4  and  C_34
REMARK    4  A    between atoms: C_6  and  N_12
REMARK    5  A    between atoms: C_7  and  C_8
REMARK    6  A    between atoms: C_8  and  O_10
REMARK    7  A    between atoms: O_10  and  C_11
REMARK    8  A    between atoms: C_13  and  C_15
REMARK    9  A    between atoms: C_15  and  S_16
REMARK   10  A    between atoms: S_16  and  C_17
REMARK   11  A    between atoms: C_20  and  C_25
REMARK   12  A    between atoms: N_21  and  C_22
REMARK   13  A    between atoms: C_22  and  C_23
REMARK                            x       y       z     vdW  Elec       q    Type
REMARK                         _______ _______ _______ _____ _____    ______ ____
ROOT
ATOM      1  S   UNL     1      -7.994  -3.088  -2.326  0.00  0.00    -0.077 S 
ENDROOT
BRANCH   1   2
ATOM      2  C   UNL     1      -9.147  -3.393  -3.623  0.00  0.00    +0.193 A 
ATOM      3  N   UNL     1      -9.102  -2.896  -4.838  0.00  0.00    -0.122 NA
ATOM      4  N   UNL     1     -10.098  -3.325  -5.527  0.00  0.00    -0.128 NA
ATOM      5  C   UNL     1     -10.841  -4.121  -4.794  0.00  0.00    +0.165 A 
ATOM      6  N   UNL     1     -10.252  -4.194  -3.553  0.00  0.00    -0.298 N 
BRANCH   5   7
ATOM      7  C   UNL     1     -12.075  -4.814  -5.223  0.00  0.00    +0.023 A 
ATOM      8  C   UNL     1     -13.107  -5.033  -4.310  0.00  0.00    +0.015 A 
ATOM      9  C   UNL     1     -14.258  -5.679  -4.712  0.00  0.00    +0.050 A 
ATOM     10  C   UNL     1     -14.393  -6.113  -6.023  0.00  0.00    +0.166 A 
ATOM     11  C   UNL     1     -13.365  -5.897  -6.940  0.00  0.00    +0.167 A 
ATOM     12  C   UNL     1     -12.212  -5.245  -6.543  0.00  0.00    +0.061 A 
ATOM     13  O   UNL     1     -13.742  -6.413  -8.146  0.00  0.00    -0.453 OA
ATOM     14  C   UNL     1     -14.834  -7.306  -7.858  0.00  0.00    +0.466 C 
ATOM     15  O   UNL     1     -15.412  -6.763  -6.657  0.00  0.00    -0.453 OA
ENDBRANCH   5   7
BRANCH   6  16
ATOM     16  C   UNL     1     -10.713  -4.967  -2.398  0.00  0.00    +0.152 C 
BRANCH  16  17
ATOM     17  C   UNL     1     -11.521  -4.077  -1.488  0.00  0.00    -0.013 C 
ATOM     18  C   UNL     1     -12.725  -4.438  -1.119  0.00  0.00    +0.005 C 
ENDBRANCH  16  17
ENDBRANCH   6  16
ENDBRANCH   1   2
BRANCH   1  19
ATOM     19  C   UNL     1      -6.788  -1.954  -3.068  0.00  0.00    +0.173 C 
BRANCH  19  21
ATOM     20  N   UNL     1      -4.725  -0.775  -2.381  0.00  0.00    -0.279 N 
ATOM     21  C   UNL     1      -5.731  -1.608  -2.051  0.00  0.00    +0.228 C 
ATOM     22  O   UNL     1      -5.786  -2.080  -0.935  0.00  0.00    -0.275 OA
ATOM     23  H   UNL     1      -4.681  -0.397  -3.274  0.00  0.00    +0.155 HD
BRANCH  20  27
ATOM     24  C   UNL     1      -1.792   0.535  -0.457  0.00  0.00    -0.022 A 
ATOM     25  C   UNL     1      -2.152  -0.146   0.646  0.00  0.00    -0.008 A 
ATOM     26  S   UNL     1      -3.635  -0.990   0.141  0.00  0.00    -0.078 S 
ATOM     27  C   UNL     1      -3.753  -0.457  -1.446  0.00  0.00    +0.086 A 
ATOM     28  C   UNL     1      -2.658   0.381  -1.604  0.00  0.00    +0.091 A 
ATOM     29  C   UNL     1      -1.464  -0.185   1.986  0.00  0.00    +0.052 C 
BRANCH  24  31
ATOM     30  C   UNL     1      -0.938   2.829  -0.060  0.00  0.00    +0.009 C 
ATOM     31  C   UNL     1      -0.565   1.410  -0.492  0.00  0.00    +0.033 C 
ENDBRANCH  24  31
BRANCH  28  32
ATOM     32  C   UNL     1      -2.390   1.069  -2.869  0.00  0.00    +0.342 C 
ATOM     33  O   UNL     1      -1.703   0.534  -3.719  0.00  0.00    -0.245 OA
BRANCH  32  34
ATOM     34  O   UNL     1      -2.906   2.295  -3.092  0.00  0.00    -0.464 OA
ATOM     35  C   UNL     1      -2.604   2.907  -4.348  0.00  0.00    +0.280 C 
ENDBRANCH  32  34
ENDBRANCH  28  32
ENDBRANCH  20  27
ENDBRANCH  19  21
ENDBRANCH   1  19
TORSDOF 10
