REMARK  Name = ZINC59437179
REMARK  10 active torsions:
REMARK  status: ('A' for Active; 'I' for Inactive)
REMARK    1  A    between atoms: C_1  and  C_2
REMARK    2  A    between atoms: C_2  and  O_3
REMARK    3  A    between atoms: O_3  and  C_4
REMARK    4  A    between atoms: C_10  and  C_11
REMARK    5  A    between atoms: C_13  and  O_19
REMARK    6  A    between atoms: C_14  and  O_18
REMARK    7  A    between atoms: O_19  and  C_20
REMARK    8  A    between atoms: N_23  and  C_24
REMARK    9  A    between atoms: C_27  and  O_30
REMARK   10  A    between atoms: O_30  and  C_31
REMARK                            x       y       z     vdW  Elec       q    Type
REMARK                         _______ _______ _______ _____ _____    ______ ____
ROOT
ATOM      1  C   UNL     1       0.442  -1.756   1.535  0.00  0.00    +0.346 C 
ATOM      2  O   UNL     1      -0.194  -2.567   0.669  0.00  0.00    -0.245 OA
ATOM      3  C   UNL     1       1.174  -2.299   2.585  0.00  0.00    +0.139 C 
ATOM      4  C   UNL     1       1.282  -3.749   2.791  0.00  0.00    +0.120 C 
ATOM      5  S   UNL     1       2.308  -3.901   4.238  0.00  0.00    -0.065 S 
ATOM      6  C   UNL     1       2.605  -2.182   4.594  0.00  0.00    +0.062 C 
ATOM      7  C   UNL     1       3.338  -1.652   5.606  0.00  0.00    +0.028 C 
ATOM      8  C   UNL     1       1.877  -1.471   3.534  0.00  0.00    +0.209 C 
ATOM      9  O   UNL     1       1.865  -0.253   3.463  0.00  0.00    -0.286 OA
ATOM     10  N   UNL     1       0.745  -4.714   2.071  0.00  0.00    -0.240 NA
ENDROOT
BRANCH   7  11
ATOM     11  C   UNL     1       3.853  -2.520   6.672  0.00  0.00    -0.006 A 
ATOM     12  C   UNL     1       3.289  -3.784   6.883  0.00  0.00    +0.058 A 
ATOM     13  C   UNL     1       3.778  -4.596   7.887  0.00  0.00    +0.162 A 
ATOM     14  C   UNL     1       4.832  -4.157   8.689  0.00  0.00    +0.160 A 
ATOM     15  C   UNL     1       5.393  -2.905   8.482  0.00  0.00    +0.065 A 
ATOM     16  C   UNL     1       4.915  -2.088   7.478  0.00  0.00    +0.029 A 
ATOM     17 BR   UNL     1       5.687  -0.386   7.195  0.00  0.00    -0.050 Br
BRANCH  14  18
ATOM     18  O   UNL     1       5.310  -4.958   9.677  0.00  0.00    -0.503 OA
ATOM     19  H   UNL     1       6.027  -5.543   9.396  0.00  0.00    +0.292 HD
ENDBRANCH  14  18
BRANCH  13  20
ATOM     20  O   UNL     1       3.232  -5.824   8.095  0.00  0.00    -0.491 OA
ATOM     21  C   UNL     1       2.156  -6.208   7.237  0.00  0.00    +0.277 C 
ENDBRANCH  13  20
ENDBRANCH   7  11
BRANCH  10  22
ATOM     22  C   UNL     1       0.955  -6.021   2.414  0.00  0.00    +0.065 A 
ATOM     23  C   UNL     1       2.236  -6.457   2.763  0.00  0.00    +0.031 A 
ATOM     24  C   UNL     1       2.442  -7.776   3.108  0.00  0.00    +0.048 A 
ATOM     25  C   UNL     1       1.381  -8.670   3.110  0.00  0.00    +0.120 A 
ATOM     26  C   UNL     1       0.106  -8.242   2.763  0.00  0.00    +0.048 A 
ATOM     27  C   UNL     1      -0.112  -6.924   2.423  0.00  0.00    +0.031 A 
BRANCH  25  28
ATOM     28  O   UNL     1       1.589  -9.970   3.450  0.00  0.00    -0.495 OA
ATOM     29  C   UNL     1       0.453 -10.836   3.431  0.00  0.00    +0.277 C 
ENDBRANCH  25  28
ENDBRANCH  10  22
BRANCH   1  30
ATOM     30  O   UNL     1       0.370  -0.421   1.385  0.00  0.00    -0.461 OA
BRANCH  30  32
ATOM     31  C   UNL     1      -0.365   1.596   0.276  0.00  0.00    +0.048 C 
ATOM     32  C   UNL     1      -0.399   0.067   0.284  0.00  0.00    +0.229 C 
ENDBRANCH  30  32
ENDBRANCH   1  30
TORSDOF 7
