REMARK  Name = ZINC00973753
REMARK  6 active torsions:
REMARK  status: ('A' for Active; 'I' for Inactive)
REMARK    1  A    between atoms: C_3  and  O_20
REMARK    2  A    between atoms: C_6  and  C_7
REMARK    3  A    between atoms: N_8  and  C_9
REMARK    4  A    between atoms: C_12  and  N_15
REMARK    5  A    between atoms: O_20  and  C_21
REMARK    6  A    between atoms: C_21  and  C_23
REMARK                            x       y       z     vdW  Elec       q    Type
REMARK                         _______ _______ _______ _____ _____    ______ ____
ROOT
ATOM      1  C   UNL     1       3.263  -6.349  -0.092  0.00  0.00    +0.013 A 
ATOM      2  C   UNL     1       3.406  -4.980  -0.051  0.00  0.00    +0.047 A 
ATOM      3  C   UNL     1       2.283  -4.161  -0.075  0.00  0.00    +0.132 A 
ATOM      4  C   UNL     1       1.012  -4.718  -0.134  0.00  0.00    +0.047 A 
ATOM      5  C   UNL     1       0.859  -6.086  -0.179  0.00  0.00    +0.013 A 
ATOM      6  C   UNL     1       1.986  -6.915  -0.156  0.00  0.00    -0.007 A 
ENDROOT
BRANCH   6   7
ATOM      7  C   UNL     1       1.827  -8.377  -0.200  0.00  0.00    +0.119 C 
ATOM      8  N   UNL     1       0.636  -8.902  -0.260  0.00  0.00    -0.255 NA
BRANCH   8   9
ATOM      9  C   UNL     1       0.489 -10.262  -0.301  0.00  0.00    +0.064 A 
ATOM     10  C   UNL     1       1.293 -11.028  -1.149  0.00  0.00    +0.029 A 
ATOM     11  C   UNL     1       1.145 -12.398  -1.184  0.00  0.00    +0.025 A 
ATOM     12  C   UNL     1       0.190 -13.016  -0.384  0.00  0.00    +0.030 A 
ATOM     13  C   UNL     1      -0.615 -12.257   0.458  0.00  0.00    +0.025 A 
ATOM     14  C   UNL     1      -0.469 -10.887   0.502  0.00  0.00    +0.029 A 
BRANCH  12  15
ATOM     15  N   UNL     1       0.040 -14.403  -0.426  0.00  0.00    -0.333 N 
ATOM     16  C   UNL     1      -1.343 -14.774  -0.756  0.00  0.00    +0.086 C 
ATOM     17  C   UNL     1      -1.485 -16.297  -0.714  0.00  0.00    -0.063 C 
ATOM     18  C   UNL     1       0.843 -16.530  -1.334  0.00  0.00    -0.063 C 
ATOM     19  C   UNL     1       0.985 -15.007  -1.377  0.00  0.00    +0.086 C 
ATOM     20  N   UNL     1      -0.543 -16.906  -1.672  0.00  0.00    +0.381 N 
ATOM     21  H   UNL     1      -0.762 -16.577  -2.619  0.00  0.00    -0.086 HD
ATOM     22  H   UNL     1      -0.636 -17.928  -1.635  0.00  0.00    -0.086 HD
ENDBRANCH  12  15
ENDBRANCH   8   9
ENDBRANCH   6   7
BRANCH   3  23
ATOM     23  O   UNL     1       2.429  -2.811  -0.036  0.00  0.00    -0.422 OA
BRANCH  23  24
ATOM     24  C   UNL     1       2.808  -2.203  -1.177  0.00  0.00    +0.344 C 
ATOM     25  O   UNL     1       3.088  -2.867  -2.155  0.00  0.00    -0.245 OA
BRANCH  24  26
ATOM     26  C   UNL     1       2.881  -0.730  -1.239  0.00  0.00    +0.059 A 
ATOM     27  C   UNL     1       3.273  -0.096  -2.421  0.00  0.00    +0.016 A 
ATOM     28  C   UNL     1       3.340   1.280  -2.473  0.00  0.00    +0.016 A 
ATOM     29  C   UNL     1       3.019   2.034  -1.356  0.00  0.00    +0.018 A 
ATOM     30  C   UNL     1       2.630   1.412  -0.182  0.00  0.00    +0.016 A 
ATOM     31  C   UNL     1       2.559   0.037  -0.117  0.00  0.00    +0.016 A 
ATOM     32 BR   UNL     1       3.114   3.921  -1.436  0.00  0.00    -0.050 Br
ENDBRANCH  24  26
ENDBRANCH  23  24
ENDBRANCH   3  23
TORSDOF 6
