REMARK  Name = ZINC33626392
REMARK  10 active torsions:
REMARK  status: ('A' for Active; 'I' for Inactive)
REMARK    1  A    between atoms: C_1  and  C_2
REMARK    2  A    between atoms: C_2  and  C_3
REMARK    3  A    between atoms: C_7  and  C_38
REMARK    4  A    between atoms: C_8  and  N_9
REMARK    5  A    between atoms: C_14  and  C_27
REMARK    6  A    between atoms: C_17  and  C_22
REMARK    7  A    between atoms: C_17  and  C_24
REMARK    8  A    between atoms: C_22  and  O_23
REMARK    9  A    between atoms: C_30  and  N_33
REMARK   10  A    between atoms: C_38  and  C_39
REMARK                            x       y       z     vdW  Elec       q    Type
REMARK                         _______ _______ _______ _____ _____    ______ ____
ROOT
ATOM      1  N   UNL     1       0.620  -2.122   2.855  0.00  0.00    -0.209 N 
ATOM      2  C   UNL     1       0.954  -0.929   2.276  0.00  0.00    +0.229 C 
ATOM      3  O   UNL     1       1.980  -0.303   2.434  0.00  0.00    -0.275 OA
ATOM      4  C   UNL     1      -0.206  -0.554   1.409  0.00  0.00    +0.077 C 
ATOM      5  C   UNL     1       0.002  -0.004   0.002  0.00  0.00    -0.027 C 
ATOM      6  N   UNL     1      -1.178  -0.547  -0.749  0.00  0.00    +0.397 N 
ATOM      7  C   UNL     1      -1.610  -1.808  -0.061  0.00  0.00    +0.071 C 
ATOM      8  C   UNL     1      -0.601  -2.021   0.987  0.00  0.00    +0.088 C 
ATOM      9  C   UNL     1      -0.436  -2.737   2.231  0.00  0.00    +0.229 C 
ATOM     10  O   UNL     1      -1.087  -3.677   2.635  0.00  0.00    -0.275 OA
ATOM     11  H   UNL     1      -1.991   0.194  -0.739  0.00  0.00    -0.083 HD
ATOM     12  H   UNL     1      -0.886  -0.757  -1.788  0.00  0.00    -0.083 HD
ENDROOT
BRANCH   1  18
ATOM     13  C   UNL     1       2.375  -3.498   3.788  0.00  0.00    -0.026 A 
ATOM     14  C   UNL     1       3.031  -4.020   4.886  0.00  0.00    +0.005 A 
ATOM     15  C   UNL     1       2.595  -3.716   6.162  0.00  0.00    +0.001 A 
ATOM     16  C   UNL     1       1.506  -2.883   6.344  0.00  0.00    +0.005 A 
ATOM     17  C   UNL     1       0.850  -2.354   5.250  0.00  0.00    -0.026 A 
ATOM     18  C   UNL     1       1.285  -2.657   3.968  0.00  0.00    +0.050 A 
BRANCH  13  20
ATOM     19  C   UNL     1       3.794  -2.741   1.900  0.00  0.00    +0.009 C 
ATOM     20  C   UNL     1       2.847  -3.835   2.397  0.00  0.00    +0.033 C 
ENDBRANCH  13  20
BRANCH  17  21
ATOM     21  C   UNL     1      -0.337  -1.446   5.450  0.00  0.00    +0.033 C 
ATOM     22  C   UNL     1      -1.626  -2.266   5.365  0.00  0.00    +0.009 C 
ENDBRANCH  17  21
ENDBRANCH   1  18
BRANCH   5  23
ATOM     23  C   UNL     1      -0.018   1.503   0.010  0.00  0.00    -0.060 A 
ATOM     24  C   UNL     1      -1.226   2.176   0.036  0.00  0.00    +0.004 A 
ATOM     25  C   UNL     1      -1.248   3.557   0.049  0.00  0.00    +0.023 A 
ATOM     26  C   UNL     1      -0.056   4.269   0.025  0.00  0.00    +0.030 A 
ATOM     27  C   UNL     1       1.155   3.590  -0.006  0.00  0.00    +0.023 A 
ATOM     28  C   UNL     1       1.170   2.209  -0.014  0.00  0.00    +0.004 A 
BRANCH  26  29
ATOM     29  N   UNL     1      -0.075   5.666   0.034  0.00  0.00    -0.330 N 
ATOM     30  C   UNL     1       0.572   6.200   1.260  0.00  0.00    +0.105 C 
ATOM     31  C   UNL     1       0.930   7.655   0.866  0.00  0.00    +0.020 C 
ATOM     32  C   UNL     1       1.355   7.519  -0.614  0.00  0.00    +0.020 C 
ATOM     33  C   UNL     1       0.699   6.213  -1.102  0.00  0.00    +0.105 C 
ENDBRANCH  26  29
ENDBRANCH   5  23
BRANCH   7  34
ATOM     34  C   UNL     1      -1.613  -2.961  -1.031  0.00  0.00    +0.348 C 
ATOM     35  O   UNL     1      -1.222  -4.048  -0.677  0.00  0.00    -0.248 OA
ATOM     36  O   UNL     1      -2.049  -2.780  -2.287  0.00  0.00    -0.248 OA
ENDBRANCH   7  34
BRANCH   7  37
ATOM     37  C   UNL     1      -2.996  -1.631   0.561  0.00  0.00    +0.155 C 
BRANCH  37  38
ATOM     38  O   UNL     1      -3.960  -1.425  -0.474  0.00  0.00    -0.396 OA
ATOM     39  H   UNL     1      -5.019  -1.278  -0.217  0.00  0.00    +0.209 HD
ENDBRANCH  37  38
ENDBRANCH   7  37
TORSDOF 8
