REMARK  Name = ZINC05668187
REMARK  6 active torsions:
REMARK  status: ('A' for Active; 'I' for Inactive)
REMARK    1  A    between atoms: C_2  and  C_3
REMARK    2  A    between atoms: C_3  and  C_4
REMARK    3  A    between atoms: C_8  and  C_11
REMARK    4  A    between atoms: C_9  and  O_10
REMARK    5  A    between atoms: N_12  and  N_13
REMARK    6  A    between atoms: C_14  and  C_19
REMARK                            x       y       z     vdW  Elec       q    Type
REMARK                         _______ _______ _______ _____ _____    ______ ____
ROOT
ATOM      1  N   UNL     1       1.023  -6.817  -0.818  0.00  0.00    -0.186 N 
ATOM      2  C   UNL     1       0.420  -7.986  -0.405  0.00  0.00    +0.187 A 
ATOM      3  N   UNL     1       1.332  -8.930  -0.459  0.00  0.00    -0.126 NA
ATOM      4  N   UNL     1       2.447  -8.441  -0.872  0.00  0.00    -0.119 NA
ATOM      5  C   UNL     1       2.316  -7.155  -1.113  0.00  0.00    +0.223 A 
ATOM      6  S   UNL     1       3.573  -6.069  -1.701  0.00  0.00    -0.007 SA
ENDROOT
BRANCH   2   7
ATOM      7  C   UNL     1      -0.986  -8.146   0.020  0.00  0.00    +0.039 A 
ATOM      8  C   UNL     1      -1.847  -7.047   0.022  0.00  0.00    +0.014 A 
ATOM      9  C   UNL     1      -3.159  -7.204   0.418  0.00  0.00    +0.021 A 
ATOM     10  C   UNL     1      -3.623  -8.447   0.815  0.00  0.00    +0.042 A 
ATOM     11  C   UNL     1      -2.774  -9.541   0.816  0.00  0.00    +0.040 A 
ATOM     12  C   UNL     1      -1.460  -9.399   0.415  0.00  0.00    +0.053 A 
ATOM     13 CL   UNL     1      -0.399 -10.773   0.410  0.00  0.00    -0.083 Cl
ATOM     14 CL   UNL     1      -5.275  -8.634   1.313  0.00  0.00    -0.083 Cl
ENDBRANCH   2   7
BRANCH   1  16
ATOM     15  C   UNL     1      -0.139  -5.189  -2.028  0.00  0.00    +0.145 C 
ATOM     16  N   UNL     1       0.434  -5.551  -0.921  0.00  0.00    -0.170 NA
BRANCH  15  21
ATOM     17  C   UNL     1      -1.318  -1.726  -1.159  0.00  0.00    -0.002 A 
ATOM     18  C   UNL     1      -1.926  -1.349  -2.341  0.00  0.00    +0.007 A 
ATOM     19  C   UNL     1      -1.955  -2.216  -3.421  0.00  0.00    +0.001 A 
ATOM     20  C   UNL     1      -1.376  -3.464  -3.326  0.00  0.00    +0.013 A 
ATOM     21  C   UNL     1      -0.759  -3.857  -2.137  0.00  0.00    +0.036 A 
ATOM     22  C   UNL     1      -0.728  -2.974  -1.048  0.00  0.00    +0.129 A 
BRANCH  22  23
ATOM     23  O   UNL     1      -0.126  -3.343   0.112  0.00  0.00    -0.506 OA
ATOM     24  H   UNL     1      -0.715  -3.786   0.738  0.00  0.00    +0.292 HD
ENDBRANCH  22  23
BRANCH  17  25
ATOM     25  C   UNL     1      -1.293  -0.775   0.010  0.00  0.00    +0.065 C 
BRANCH  25  27
ATOM     26  C   UNL     1      -0.016   1.306   0.009  0.00  0.00    +0.004 C 
ATOM     27  C   UNL     1       0.002  -0.004   0.002  0.00  0.00    -0.030 C 
ENDBRANCH  25  27
ENDBRANCH  17  25
ENDBRANCH  15  21
ENDBRANCH   1  16
TORSDOF 6
