REMARK  Name = ZINC02278431
REMARK  7 active torsions:
REMARK  status: ('A' for Active; 'I' for Inactive)
REMARK    1  A    between atoms: C_1  and  C_2
REMARK    2  A    between atoms: C_5  and  N_8
REMARK    3  A    between atoms: C_9  and  C_20
REMARK    4  A    between atoms: C_23  and  O_38
REMARK    5  A    between atoms: C_24  and  C_26
REMARK    6  A    between atoms: C_26  and  N_27
REMARK    7  A    between atoms: O_38  and  C_39
REMARK                            x       y       z     vdW  Elec       q    Type
REMARK                         _______ _______ _______ _____ _____    ______ ____
ROOT
ATOM      1  C   UNL     1       1.487   2.376   1.414  0.00  0.00    -0.008 A 
ATOM      2  C   UNL     1       2.149   3.584   1.533  0.00  0.00    +0.010 A 
ATOM      3  C   UNL     1       2.357   4.139   2.781  0.00  0.00    +0.046 A 
ATOM      4  C   UNL     1       1.912   3.477   3.916  0.00  0.00    +0.125 A 
ATOM      5  C   UNL     1       1.253   2.262   3.794  0.00  0.00    +0.012 A 
ATOM      6  C   UNL     1       1.042   1.715   2.543  0.00  0.00    +0.016 A 
ENDROOT
BRANCH   1   8
ATOM      7  N   UNL     1       1.146   2.849  -0.939  0.00  0.00    -0.244 N 
ATOM      8  C   UNL     1       1.255   1.776   0.051  0.00  0.00    +0.198 C 
ATOM      9  N   UNL     1       0.024   0.979   0.073  0.00  0.00    -0.321 N 
ATOM     10  C   UNL     1      -1.200   1.637   0.032  0.00  0.00    +0.041 A 
ATOM     11  C   UNL     1      -2.337   1.095   0.614  0.00  0.00    +0.024 A 
ATOM     12  C   UNL     1      -3.535   1.780   0.540  0.00  0.00    +0.002 A 
ATOM     13  C   UNL     1      -3.608   3.002  -0.109  0.00  0.00    +0.001 A 
ATOM     14  C   UNL     1      -2.485   3.559  -0.684  0.00  0.00    +0.015 A 
ATOM     15  C   UNL     1      -1.268   2.886  -0.605  0.00  0.00    +0.058 A 
ATOM     16  C   UNL     1      -0.038   3.439  -1.198  0.00  0.00    +0.254 C 
ATOM     17  O   UNL     1      -0.090   4.420  -1.917  0.00  0.00    -0.270 OA
ATOM     18  H   UNL     1       0.063   0.011   0.112  0.00  0.00    +0.148 HD
BRANCH   7  23
ATOM     19  C   UNL     1       5.782   4.553  -3.729  0.00  0.00    +0.044 C 
ATOM     20  C   UNL     1       4.550   4.100  -2.987  0.00  0.00    -0.050 A 
ATOM     21  C   UNL     1       4.148   2.779  -3.059  0.00  0.00    +0.005 A 
ATOM     22  C   UNL     1       3.020   2.361  -2.381  0.00  0.00    +0.024 A 
ATOM     23  C   UNL     1       2.289   3.269  -1.626  0.00  0.00    +0.039 A 
ATOM     24  C   UNL     1       2.693   4.597  -1.560  0.00  0.00    +0.024 A 
ATOM     25  C   UNL     1       3.825   5.007  -2.236  0.00  0.00    +0.005 A 
ENDBRANCH   7  23
ENDBRANCH   1   8
BRANCH   4  26
ATOM     26  O   UNL     1       2.121   4.017   5.145  0.00  0.00    -0.495 OA
ATOM     27  C   UNL     1       2.806   5.270   5.195  0.00  0.00    +0.277 C 
ENDBRANCH   4  26
BRANCH   5  28
ATOM     28  C   UNL     1       0.767   1.540   5.025  0.00  0.00    +0.155 C 
BRANCH  28  29
ATOM     29  N   UNL     1       1.906   0.927   5.712  0.00  0.00    -0.230 N 
ATOM     30  C   UNL     1       2.357  -0.318   5.477  0.00  0.00    +0.254 C 
ATOM     31  O   UNL     1       1.891  -1.100   4.673  0.00  0.00    -0.270 OA
ATOM     32  C   UNL     1       3.515  -0.575   6.359  0.00  0.00    +0.049 A 
ATOM     33  C   UNL     1       4.364  -1.653   6.553  0.00  0.00    +0.014 A 
ATOM     34  C   UNL     1       5.380  -1.567   7.493  0.00  0.00    +0.001 A 
ATOM     35  C   UNL     1       5.551  -0.414   8.236  0.00  0.00    +0.001 A 
ATOM     36  C   UNL     1       4.710   0.672   8.052  0.00  0.00    +0.014 A 
ATOM     37  C   UNL     1       3.690   0.601   7.117  0.00  0.00    +0.049 A 
ATOM     38  C   UNL     1       2.636   1.534   6.666  0.00  0.00    +0.254 C 
ATOM     39  O   UNL     1       2.458   2.659   7.087  0.00  0.00    -0.270 OA
ENDBRANCH  28  29
ENDBRANCH   5  28
TORSDOF 5
