REMARK  Name = ZINC37642631
REMARK  6 active torsions:
REMARK  status: ('A' for Active; 'I' for Inactive)
REMARK    1  A    between atoms: C_1  and  C_2
REMARK    2  A    between atoms: C_3  and  C_11
REMARK    3  A    between atoms: C_8  and  C_10
REMARK    4  A    between atoms: C_11  and  C_13
REMARK    5  A    between atoms: C_11  and  N_14
REMARK    6  A    between atoms: N_14  and  C_15
REMARK                            x       y       z     vdW  Elec       q    Type
REMARK                         _______ _______ _______ _____ _____    ______ ____
ROOT
ATOM      1  C   UNL     1      -2.579  -0.086  -0.077  0.00  0.00    -0.037 C 
ATOM      2  C   UNL     1      -3.447  -0.417  -1.293  0.00  0.00    -0.009 C 
ENDROOT
BRANCH   1   5
ATOM      3  C   UNL     1      -0.063   1.293  -0.388  0.00  0.00    +0.066 C 
ATOM      4  C   UNL     1      -0.098  -0.211  -0.303  0.00  0.00    +0.047 A 
ATOM      5  C   UNL     1      -1.287  -0.858  -0.157  0.00  0.00    +0.024 A 
ATOM      6  C   UNL     1      -1.284  -2.267  -0.081  0.00  0.00    +0.253 A 
ATOM      7  O   UNL     1      -2.328  -2.885   0.050  0.00  0.00    -0.268 OA
ATOM      8  N   UNL     1      -0.103  -2.915  -0.156  0.00  0.00    -0.311 N 
ATOM      9  H   UNL     1      -0.076  -3.884  -0.106  0.00  0.00    +0.170 HD
ATOM     10  C   UNL     1       1.040  -2.216  -0.301  0.00  0.00    +0.107 A 
ATOM     11  N   UNL     1       1.036  -0.911  -0.376  0.00  0.00    -0.239 NA
ATOM     12  C   UNL     1       2.351  -2.954  -0.383  0.00  0.00    +0.086 C 
ENDBRANCH   1   5
BRANCH   1  13
ATOM     13  N   UNL     1      -3.296  -0.455   1.151  0.00  0.00    +0.385 N 
ATOM     14  H   UNL     1      -3.587  -1.420   1.093  0.00  0.00    -0.085 HD
ATOM     15  H   UNL     1      -2.685  -0.335   1.945  0.00  0.00    -0.085 HD
BRANCH  13  16
ATOM     16  C   UNL     1      -4.477   0.404   1.306  0.00  0.00    -0.071 C 
ATOM     17  C   UNL     1      -4.029   1.845   1.561  0.00  0.00    -0.016 C 
ATOM     18  C   UNL     1      -5.207   2.793   1.330  0.00  0.00    -0.002 C 
ATOM     19  C   UNL     1      -5.942   2.391   0.050  0.00  0.00    -0.000 C 
ATOM     20  C   UNL     1      -7.338   1.874   0.405  0.00  0.00    -0.000 C 
ATOM     21  C   UNL     1      -7.226   0.460   0.977  0.00  0.00    -0.000 C 
ATOM     22  C   UNL     1      -6.711   0.530   2.416  0.00  0.00    -0.002 C 
ATOM     23  C   UNL     1      -5.314  -0.087   2.489  0.00  0.00    -0.016 C 
ENDBRANCH  13  16
ENDBRANCH   1  13
TORSDOF 3
