REMARK  Name = ZINC05634055
REMARK  5 active torsions:
REMARK  status: ('A' for Active; 'I' for Inactive)
REMARK    1  A    between atoms: C_1  and  C_2
REMARK    2  A    between atoms: C_2  and  C_3
REMARK    3  A    between atoms: C_3  and  C_4
REMARK    4  A    between atoms: C_11  and  N_25
REMARK    5  A    between atoms: C_12  and  C_23
REMARK                            x       y       z     vdW  Elec       q    Type
REMARK                         _______ _______ _______ _____ _____    ______ ____
ROOT
ATOM      1  C   UNL     1      -1.413  -2.041   0.005  0.00  0.00    +0.071 A 
ATOM      2  C   UNL     1      -1.407  -2.849  -1.124  0.00  0.00    +0.061 A 
ATOM      3  C   UNL     1      -1.386  -4.154  -0.710  0.00  0.00    +0.223 A 
ATOM      4  N   UNL     1      -1.380  -4.152   0.633  0.00  0.00    -0.246 N 
ATOM      5  H   UNL     1      -1.367  -4.936   1.204  0.00  0.00    +0.192 HD
ATOM      6  N   UNL     1      -1.392  -2.816   1.062  0.00  0.00    -0.176 NA
ATOM      7  O   UNL     1      -1.374  -5.195  -1.578  0.00  0.00    -0.423 OA
ATOM      8  C   UNL     1      -1.115  -4.933  -2.875  0.00  0.00    +0.201 C 
ATOM      9  C   UNL     1      -1.119  -3.688  -3.405  0.00  0.00    +0.110 C 
ATOM     10  C   UNL     1      -1.421  -2.469  -2.577  0.00  0.00    +0.144 C 
ATOM     11  C   UNL     1      -2.728  -1.856  -2.966  0.00  0.00    -0.002 A 
ATOM     12  C   UNL     1      -4.013  -2.353  -2.948  0.00  0.00    +0.007 A 
ATOM     13  C   UNL     1      -5.024  -1.503  -3.385  0.00  0.00    +0.000 A 
ATOM     14  C   UNL     1      -4.749  -0.221  -3.816  0.00  0.00    +0.002 A 
ATOM     15  C   UNL     1      -3.459   0.285  -3.839  0.00  0.00    +0.023 A 
ATOM     16  C   UNL     1      -2.435  -0.557  -3.403  0.00  0.00    +0.038 A 
ATOM     17  N   UNL     1      -1.075  -0.317  -3.321  0.00  0.00    -0.284 N 
ATOM     18  C   UNL     1      -0.400  -1.386  -2.847  0.00  0.00    +0.238 C 
ATOM     19  O   UNL     1       0.798  -1.463  -2.672  0.00  0.00    -0.274 OA
ATOM     20  H   UNL     1      -0.656   0.520  -3.574  0.00  0.00    +0.155 HD
ENDROOT
BRANCH   8  21
ATOM     21  N   UNL     1      -0.831  -5.989  -3.705  0.00  0.00    -0.328 N 
ATOM     22  H   UNL     1      -0.821  -6.893  -3.353  0.00  0.00    +0.145 HD
ATOM     23  H   UNL     1      -0.641  -5.832  -4.643  0.00  0.00    +0.145 HD
ENDBRANCH   8  21
BRANCH   9  24
ATOM     24  C   UNL     1      -0.827  -3.526  -4.798  0.00  0.00    +0.102 C 
ATOM     25  N   UNL     1      -0.595  -3.397  -5.902  0.00  0.00    -0.191 NA
ENDBRANCH   9  24
BRANCH   1  26
ATOM     26  C   UNL     1      -1.433  -0.534   0.013  0.00  0.00    +0.057 C 
BRANCH  26  28
ATOM     27  C   UNL     1      -0.019   1.526   0.010  0.00  0.00    +0.004 C 
ATOM     28  C   UNL     1       0.002  -0.004   0.002  0.00  0.00    +0.003 C 
ENDBRANCH  26  28
ENDBRANCH   1  26
TORSDOF 4
