REMARK  Name = ZINC16534164
REMARK  8 active torsions:
REMARK  status: ('A' for Active; 'I' for Inactive)
REMARK    1  A    between atoms: C_1  and  O_2
REMARK    2  A    between atoms: O_2  and  C_3
REMARK    3  A    between atoms: C_3  and  C_4
REMARK    4  A    between atoms: C_5  and  C_17
REMARK    5  A    between atoms: N_7  and  C_9
REMARK    6  A    between atoms: N_21  and  C_25
REMARK    7  A    between atoms: C_25  and  C_26
REMARK    8  A    between atoms: C_29  and  N_32
REMARK                            x       y       z     vdW  Elec       q    Type
REMARK                         _______ _______ _______ _____ _____    ______ ____
ROOT
ATOM      1  C   UNL     1      -1.132  -2.475  -2.543  0.00  0.00    +0.044 C 
ATOM      2  C   UNL     1      -0.190  -2.901  -3.428  0.00  0.00    +0.099 C 
ATOM      3  C   UNL     1      -0.090  -2.558  -4.803  0.00  0.00    +0.269 C 
ATOM      4  O   UNL     1      -0.837  -1.821  -5.421  0.00  0.00    -0.268 OA
ATOM      5  N   UNL     1       0.987  -3.202  -5.293  0.00  0.00    -0.216 N 
ATOM      6  C   UNL     1       1.565  -3.922  -4.318  0.00  0.00    +0.313 C 
ATOM      7  O   UNL     1       2.558  -4.611  -4.455  0.00  0.00    -0.252 OA
ATOM      8  N   UNL     1       0.887  -3.764  -3.167  0.00  0.00    -0.265 N 
ATOM      9  H   UNL     1       1.101  -4.172  -2.313  0.00  0.00    +0.157 HD
ENDROOT
BRANCH   1  11
ATOM     10  C   UNL     1      -1.156  -2.103   0.002  0.00  0.00    +0.100 A 
ATOM     11  C   UNL     1      -1.085  -2.924  -1.151  0.00  0.00    +0.068 A 
ATOM     12  C   UNL     1      -0.961  -4.238  -0.707  0.00  0.00    +0.281 A 
ATOM     13  N   UNL     1      -0.958  -4.203   0.644  0.00  0.00    -0.196 N 
ATOM     14  N   UNL     1      -1.075  -2.870   1.053  0.00  0.00    -0.165 NA
ATOM     15  O   UNL     1      -0.862  -5.343  -1.483  0.00  0.00    -0.265 OA
BRANCH  13  16
ATOM     16  C   UNL     1      -0.852  -5.314   1.492  0.00  0.00    +0.069 A 
ATOM     17  C   UNL     1      -1.428  -6.524   1.129  0.00  0.00    +0.029 A 
ATOM     18  C   UNL     1      -1.322  -7.617   1.966  0.00  0.00    +0.022 A 
ATOM     19  C   UNL     1      -0.641  -7.507   3.166  0.00  0.00    +0.041 A 
ATOM     20  C   UNL     1      -0.066  -6.302   3.530  0.00  0.00    +0.022 A 
ATOM     21  C   UNL     1      -0.164  -5.208   2.693  0.00  0.00    +0.029 A 
ATOM     22 CL   UNL     1      -0.509  -8.883   4.216  0.00  0.00    -0.084 Cl
ENDBRANCH  13  16
BRANCH  10  23
ATOM     23  C   UNL     1      -1.295  -0.603   0.011  0.00  0.00    +0.217 C 
BRANCH  23  25
ATOM     24  C   UNL     1      -0.017   1.425   0.010  0.00  0.00    +0.194 C 
ATOM     25  O   UNL     1       0.002  -0.004   0.002  0.00  0.00    -0.377 OA
ENDBRANCH  23  25
ENDBRANCH  10  23
ENDBRANCH   1  11
BRANCH   5  26
ATOM     26  C   UNL     1       1.455  -3.127  -6.679  0.00  0.00    +0.153 C 
BRANCH  26  27
ATOM     27  C   UNL     1       2.433  -1.990  -6.819  0.00  0.00    -0.029 A 
ATOM     28  C   UNL     1       1.980  -0.724  -7.142  0.00  0.00    +0.007 A 
ATOM     29  C   UNL     1       2.878   0.320  -7.269  0.00  0.00    +0.033 A 
ATOM     30  C   UNL     1       4.228   0.098  -7.074  0.00  0.00    +0.126 A 
ATOM     31  C   UNL     1       4.681  -1.167  -6.750  0.00  0.00    +0.033 A 
ATOM     32  C   UNL     1       3.783  -2.210  -6.618  0.00  0.00    +0.007 A 
BRANCH  30  33
ATOM     33  N   UNL     1       5.189   1.215  -7.212  0.00  0.00    +0.056 N 
ATOM     34  O   UNL     1       4.793   2.322  -7.495  0.00  0.00    -0.126 OA
ATOM     35  O   UNL     1       6.370   1.021  -7.040  0.00  0.00    -0.126 OA
ENDBRANCH  30  33
ENDBRANCH  26  27
ENDBRANCH   5  26
TORSDOF 7
