REMARK  Name = ZINC59418576
REMARK  11 active torsions:
REMARK  status: ('A' for Active; 'I' for Inactive)
REMARK    1  A    between atoms: C_1  and  C_2
REMARK    2  A    between atoms: C_2  and  O_3
REMARK    3  A    between atoms: O_3  and  C_4
REMARK    4  A    between atoms: C_4  and  C_6
REMARK    5  A    between atoms: C_7  and  C_38
REMARK    6  A    between atoms: C_14  and  C_15
REMARK    7  A    between atoms: C_18  and  N_20
REMARK    8  A    between atoms: C_23  and  N_26
REMARK    9  A    between atoms: N_26  and  C_27
REMARK   10  A    between atoms: N_26  and  C_28
REMARK   11  A    between atoms: C_30  and  C_32
REMARK                            x       y       z     vdW  Elec       q    Type
REMARK                         _______ _______ _______ _____ _____    ______ ____
ROOT
ATOM      1  C   UNL     1      -2.790  -2.429   0.238  0.00  0.00    +0.085 C 
ATOM      2  C   UNL     1      -2.974  -3.745  -0.086  0.00  0.00    +0.053 C 
ATOM      3  N   UNL     1      -4.192  -4.227  -0.291  0.00  0.00    -0.228 NA
ATOM      4  C   UNL     1      -5.300  -3.527  -0.210  0.00  0.00    +0.178 A 
ATOM      5  N   UNL     1      -5.335  -2.191   0.102  0.00  0.00    -0.275 N 
ATOM      6  C   UNL     1      -6.531  -1.585   0.154  0.00  0.00    +0.268 A 
ATOM      7  O   UNL     1      -6.636  -0.402   0.425  0.00  0.00    -0.266 OA
ATOM      8  C   UNL     1      -7.664  -2.389  -0.121  0.00  0.00    +0.084 A 
ATOM      9  C   UNL     1      -8.999  -2.041  -0.140  0.00  0.00    +0.067 C 
ATOM     10  S   UNL     1      -6.904  -3.970  -0.435  0.00  0.00    -0.046 S 
ATOM     11  C   UNL     1      -4.015  -1.551   0.358  0.00  0.00    +0.162 C 
ATOM     12  C   UNL     1      -1.781  -4.657  -0.211  0.00  0.00    +0.066 C 
ENDROOT
BRANCH  11  13
ATOM     13  C   UNL     1      -3.863  -0.407  -0.611  0.00  0.00    -0.020 A 
ATOM     14  C   UNL     1      -4.153  -0.593  -1.950  0.00  0.00    +0.006 A 
ATOM     15  C   UNL     1      -4.014   0.456  -2.839  0.00  0.00    +0.000 A 
ATOM     16  C   UNL     1      -3.585   1.691  -2.389  0.00  0.00    +0.000 A 
ATOM     17  C   UNL     1      -3.296   1.877  -1.050  0.00  0.00    +0.000 A 
ATOM     18  C   UNL     1      -3.439   0.829  -0.160  0.00  0.00    +0.006 A 
ENDBRANCH  11  13
BRANCH   9  19
ATOM     19  C   UNL     1      -9.973  -3.008  -0.441  0.00  0.00    +0.131 A 
ATOM     20  C   UNL     1     -11.342  -2.796  -0.501  0.00  0.00    +0.051 A 
ATOM     21  C   UNL     1     -11.923  -4.022  -0.831  0.00  0.00    +0.066 A 
ATOM     22  C   UNL     1     -10.909  -4.928  -0.961  0.00  0.00    +0.189 A 
ATOM     23  O   UNL     1      -9.741  -4.308  -0.731  0.00  0.00    -0.442 OA
BRANCH  22  24
ATOM     24  N   UNL     1     -11.061  -6.262  -1.282  0.00  0.00    -0.302 N 
ATOM     25  C   UNL     1     -12.396  -6.826  -1.524  0.00  0.00    +0.106 C 
ATOM     26  C   UNL     1     -12.396  -7.525  -2.888  0.00  0.00    +0.004 C 
ATOM     27  C   UNL     1     -11.261  -8.552  -2.930  0.00  0.00    -0.066 C 
ATOM     28  C   UNL     1      -9.919  -7.839  -2.753  0.00  0.00    +0.004 C 
ATOM     29  C   UNL     1      -9.890  -7.143  -1.394  0.00  0.00    +0.106 C 
BRANCH  27  30
ATOM     30  N   UNL     1     -11.279  -9.246  -4.225  0.00  0.00    +0.378 N 
ATOM     31  C   UNL     1     -10.191 -10.232  -4.266  0.00  0.00    -0.096 C 
ATOM     32  C   UNL     1     -12.567  -9.932  -4.395  0.00  0.00    -0.096 C 
ATOM     33  H   UNL     1     -11.154  -8.576  -4.968  0.00  0.00    -0.082 HD
ENDBRANCH  27  30
ENDBRANCH  22  24
ENDBRANCH   9  19
BRANCH   1  34
ATOM     34  C   UNL     1      -1.504  -1.911   0.457  0.00  0.00    +0.339 C 
ATOM     35  O   UNL     1      -0.541  -2.657   0.470  0.00  0.00    -0.245 OA
BRANCH  34  36
ATOM     36  O   UNL     1      -1.335  -0.585   0.652  0.00  0.00    -0.462 OA
BRANCH  36  38
ATOM     37  C   UNL     1      -0.005   1.389   1.070  0.00  0.00    +0.048 C 
ATOM     38  C   UNL     1       0.002  -0.127   0.869  0.00  0.00    +0.229 C 
ENDBRANCH  36  38
ENDBRANCH  34  36
ENDBRANCH   1  34
TORSDOF 7
