REMARK  Name = ZINC14549061
REMARK  6 active torsions:
REMARK  status: ('A' for Active; 'I' for Inactive)
REMARK    1  A    between atoms: C_1  and  C_2
REMARK    2  A    between atoms: C_2  and  N_3
REMARK    3  A    between atoms: N_3  and  C_4
REMARK    4  A    between atoms: N_3  and  C_6
REMARK    5  A    between atoms: C_4  and  C_5
REMARK    6  A    between atoms: C_19  and  C_22
REMARK                            x       y       z     vdW  Elec       q    Type
REMARK                         _______ _______ _______ _____ _____    ______ ____
ROOT
ATOM      1  C   UNL     1      -1.454  -1.789   0.259  0.00  0.00    +0.030 A 
ATOM      2  C   UNL     1      -0.338  -2.599   0.098  0.00  0.00    +0.025 A 
ATOM      3  C   UNL     1       0.901  -2.024  -0.098  0.00  0.00    +0.025 A 
ATOM      4  C   UNL     1       1.029  -0.640  -0.132  0.00  0.00    +0.031 A 
ATOM      5  C   UNL     1      -0.077   0.173   0.030  0.00  0.00    -0.018 A 
ATOM      6  C   UNL     1      -1.323  -0.410   0.225  0.00  0.00    +0.029 A 
ATOM      7  C   UNL     1       0.002   1.676   0.007  0.00  0.00    +0.049 C 
ATOM      8  C   UNL     1      -0.513   2.180   1.349  0.00  0.00    -0.023 C 
ATOM      9  C   UNL     1       0.486   2.409   2.165  0.00  0.00    -0.030 C 
ATOM     10  C   UNL     1       1.808   2.095   1.487  0.00  0.00    +0.033 C 
ATOM     11  C   UNL     1       1.454   2.186  -0.017  0.00  0.00    +0.029 C 
ATOM     12  C   UNL     1       2.361   1.297  -0.846  0.00  0.00    +0.106 C 
ATOM     13  N   UNL     1       2.298  -0.078  -0.339  0.00  0.00    -0.336 N 
ATOM     14  H   UNL     1       3.106  -0.582  -0.152  0.00  0.00    +0.147 HD
ENDROOT
BRANCH  12  15
ATOM     15  C   UNL     1       1.911   1.323  -2.284  0.00  0.00    -0.012 A 
ATOM     16  C   UNL     1       1.704   0.131  -2.976  0.00  0.00    -0.012 A 
ATOM     17  C   UNL     1       1.898  -1.118  -2.348  0.00  0.00    +0.009 A 
ATOM     18  C   UNL     1       1.682  -2.260  -3.049  0.00  0.00    +0.001 A 
ATOM     19  C   UNL     1       1.266  -2.236  -4.381  0.00  0.00    +0.001 A 
ATOM     20  C   UNL     1       1.055  -1.070  -5.042  0.00  0.00    +0.008 A 
ATOM     21  C   UNL     1       1.261   0.157  -4.373  0.00  0.00    -0.017 A 
ATOM     22  C   UNL     1       1.054   1.373  -5.022  0.00  0.00    +0.017 A 
ATOM     23  C   UNL     1       1.266   2.565  -4.331  0.00  0.00    -0.017 A 
ATOM     24  C   UNL     1       1.704   2.539  -2.932  0.00  0.00    -0.012 A 
ATOM     25  C   UNL     1       1.909   3.766  -2.263  0.00  0.00    +0.009 A 
ATOM     26  C   UNL     1       1.698   4.932  -2.924  0.00  0.00    +0.001 A 
ATOM     27  C   UNL     1       1.282   4.957  -4.256  0.00  0.00    +0.001 A 
ATOM     28  C   UNL     1       1.067   3.814  -4.957  0.00  0.00    +0.008 A 
ENDBRANCH  12  15
BRANCH   1  29
ATOM     29  N   UNL     1      -2.715  -2.366   0.456  0.00  0.00    -0.330 N 
BRANCH  29  31
ATOM     30  C   UNL     1      -2.688  -4.316   1.931  0.00  0.00    +0.024 C 
ATOM     31  C   UNL     1      -2.855  -3.824   0.492  0.00  0.00    +0.102 C 
ENDBRANCH  29  31
BRANCH  29  32
ATOM     32  C   UNL     1      -3.893  -1.512   0.626  0.00  0.00    +0.102 C 
ATOM     33  C   UNL     1      -4.519  -1.229  -0.741  0.00  0.00    +0.024 C 
ENDBRANCH  29  32
ENDBRANCH   1  29
TORSDOF 4
