REMARK  Name = ZINC40363407
REMARK  6 active torsions:
REMARK  status: ('A' for Active; 'I' for Inactive)
REMARK    1  A    between atoms: C_1  and  C_2
REMARK    2  A    between atoms: C_5  and  C_8
REMARK    3  A    between atoms: C_22  and  C_24
REMARK    4  A    between atoms: C_24  and  N_25
REMARK    5  A    between atoms: N_25  and  C_26
REMARK    6  A    between atoms: N_31  and  C_32
REMARK                            x       y       z     vdW  Elec       q    Type
REMARK                         _______ _______ _______ _____ _____    ______ ____
ROOT
ATOM      1  C   UNL     1       0.322  -4.143  -2.360  0.00  0.00    +0.159 C 
ATOM      2  C   UNL     1      -1.137  -4.527  -2.297  0.00  0.00    +0.049 A 
ATOM      3  C   UNL     1      -1.909  -5.094  -3.230  0.00  0.00    +0.025 A 
ATOM      4  C   UNL     1      -3.200  -5.241  -2.676  0.00  0.00    +0.020 A 
ATOM      5  C   UNL     1      -3.161  -4.754  -1.415  0.00  0.00    +0.092 A 
ATOM      6  N   UNL     1      -1.902  -4.318  -1.170  0.00  0.00    -0.316 N 
ATOM      7  C   UNL     1      -1.353  -3.743  -0.015  0.00  0.00    +0.068 A 
ATOM      8  C   UNL     1      -2.146  -3.292   1.022  0.00  0.00    +0.028 A 
ATOM      9  C   UNL     1      -1.558  -2.723   2.138  0.00  0.00    +0.002 A 
ATOM     10  C   UNL     1      -0.182  -2.606   2.215  0.00  0.00    +0.002 A 
ATOM     11  C   UNL     1       0.617  -3.059   1.183  0.00  0.00    +0.025 A 
ATOM     12  C   UNL     1       0.040  -3.635   0.062  0.00  0.00    +0.061 A 
ATOM     13  N   UNL     1       0.841  -4.121  -0.982  0.00  0.00    -0.255 N 
ATOM     14  C   UNL     1       2.086  -4.569  -0.725  0.00  0.00    +0.238 C 
ATOM     15  O   UNL     1       2.542  -4.482   0.396  0.00  0.00    -0.273 OA
ENDROOT
BRANCH   1  20
ATOM     16  C   UNL     1       0.863   1.094  -4.742  0.00  0.00    +0.044 C 
ATOM     17  C   UNL     1       0.722  -0.272  -4.121  0.00  0.00    -0.050 A 
ATOM     18  C   UNL     1       0.965  -1.403  -4.877  0.00  0.00    +0.004 A 
ATOM     19  C   UNL     1       0.836  -2.656  -4.306  0.00  0.00    +0.006 A 
ATOM     20  C   UNL     1       0.464  -2.777  -2.981  0.00  0.00    -0.021 A 
ATOM     21  C   UNL     1       0.221  -1.646  -2.225  0.00  0.00    +0.006 A 
ATOM     22  C   UNL     1       0.354  -0.393  -2.794  0.00  0.00    +0.004 A 
ENDBRANCH   1  20
BRANCH  14  23
ATOM     23  C   UNL     1       2.911  -5.177  -1.829  0.00  0.00    +0.205 C 
BRANCH  23  24
ATOM     24  N   UNL     1       4.159  -5.706  -1.272  0.00  0.00    -0.274 N 
ATOM     25  C   UNL     1       5.250  -4.918  -1.197  0.00  0.00    +0.307 C 
ATOM     26  O   UNL     1       5.229  -3.802  -1.678  0.00  0.00    -0.252 OA
ATOM     27  N   UNL     1       6.365  -5.368  -0.588  0.00  0.00    -0.269 N 
ATOM     28  H   UNL     1       6.418  -6.291  -0.294  0.00  0.00    +0.156 HD
BRANCH  27  29
ATOM     29  C   UNL     1       7.445  -4.504  -0.379  0.00  0.00    +0.035 A 
ATOM     30  C   UNL     1       7.220  -3.159  -0.114  0.00  0.00    +0.023 A 
ATOM     31  C   UNL     1       8.289  -2.309   0.092  0.00  0.00    +0.002 A 
ATOM     32  C   UNL     1       9.582  -2.795   0.035  0.00  0.00    +0.000 A 
ATOM     33  C   UNL     1       9.810  -4.133  -0.229  0.00  0.00    +0.002 A 
ATOM     34  C   UNL     1       8.745  -4.990  -0.430  0.00  0.00    +0.023 A 
ENDBRANCH  27  29
BRANCH  24  35
ATOM     35  C   UNL     1       4.220  -7.090  -0.797  0.00  0.00    +0.078 C 
ATOM     36  C   UNL     1       3.061  -8.017  -1.170  0.00  0.00    +0.024 C 
ATOM     37  C   UNL     1       3.209  -7.517   0.269  0.00  0.00    +0.024 C 
ENDBRANCH  24  35
ENDBRANCH  23  24
ENDBRANCH  14  23
TORSDOF 5
