REMARK  Name = ZINC43527182
REMARK  6 active torsions:
REMARK  status: ('A' for Active; 'I' for Inactive)
REMARK    1  A    between atoms: N_15  and  C_17
REMARK    2  A    between atoms: C_17  and  C_18
REMARK    3  A    between atoms: C_27  and  C_29
REMARK    4  A    between atoms: C_29  and  N_30
REMARK    5  A    between atoms: N_30  and  S_31
REMARK    6  A    between atoms: S_31  and  C_34
REMARK                            x       y       z     vdW  Elec       q    Type
REMARK                         _______ _______ _______ _____ _____    ______ ____
ROOT
ATOM      1  C   UNL     1       3.195   1.695   4.220  0.00  0.00    -0.041 C 
ATOM      2  C   UNL     1       1.924   0.851   4.096  0.00  0.00    -0.077 C 
ATOM      3  N   UNL     1       1.438   0.479   5.427  0.00  0.00    +0.383 N 
ATOM      4  C   UNL     1       2.436  -0.330   6.133  0.00  0.00    -0.078 C 
ATOM      5  C   UNL     1       3.723   0.475   6.324  0.00  0.00    -0.015 C 
ATOM      6  C   UNL     1       3.534   1.870   5.706  0.00  0.00    -0.015 C 
ATOM      7  C   UNL     1       2.343   2.547   6.397  0.00  0.00    -0.011 C 
ATOM      8  C   UNL     1       1.099   1.673   6.205  0.00  0.00    -0.053 C 
ATOM      9  H   UNL     1       0.605  -0.079   5.318  0.00  0.00    -0.081 HD
ENDROOT
BRANCH   1  10
ATOM     10  C   UNL     1       4.351   0.988   3.510  0.00  0.00    -0.077 C 
BRANCH  10  23
ATOM     11  C   UNL     1      -0.016   1.360   0.009  0.00  0.00    +0.007 A 
ATOM     12  C   UNL     1       1.200   2.052   0.002  0.00  0.00    +0.022 A 
ATOM     13  C   UNL     1       2.378   1.377  -0.044  0.00  0.00    +0.023 A 
ATOM     14  N   UNL     1       2.394   0.027  -0.138  0.00  0.00    -0.312 N 
ATOM     15  C   UNL     1       1.235  -0.670  -0.035  0.00  0.00    +0.251 A 
ATOM     16  O   UNL     1       1.266  -1.889   0.028  0.00  0.00    -0.268 OA
ATOM     17  C   UNL     1       0.002  -0.004   0.002  0.00  0.00    +0.070 A 
ATOM     18  C   UNL     1       3.609  -0.743  -0.407  0.00  0.00    +0.126 C 
ATOM     19  C   UNL     1       4.871   0.042  -0.091  0.00  0.00    -0.007 C 
ATOM     20  C   UNL     1       4.767   1.440  -0.710  0.00  0.00    +0.011 C 
ATOM     21  C   UNL     1       3.652   2.188   0.031  0.00  0.00    +0.020 C 
ATOM     22  C   UNL     1       4.050   2.284   1.513  0.00  0.00    -0.069 C 
ATOM     23  N   UNL     1       4.074   0.923   2.068  0.00  0.00    +0.380 N 
ATOM     24  C   UNL     1       5.111   0.146   1.407  0.00  0.00    -0.074 C 
ATOM     25  H   UNL     1       3.178   0.484   1.920  0.00  0.00    -0.082 HD
ENDBRANCH  10  23
ENDBRANCH   1  10
BRANCH   8  26
ATOM     26  C   UNL     1       0.556   1.251   7.572  0.00  0.00    +0.091 C 
BRANCH  26  27
ATOM     27  N   UNL     1      -0.570   0.332   7.388  0.00  0.00    -0.191 NA
ATOM     28  H   UNL     1      -0.995   0.254   6.520  0.00  0.00    +0.148 HD
BRANCH  27  29
ATOM     29  S   UNL     1      -1.116  -0.573   8.663  0.00  0.00    +0.065 S 
ATOM     30  O   UNL     1      -2.216  -1.332   8.181  0.00  0.00    -0.153 OA
ATOM     31  O   UNL     1       0.028  -1.178   9.251  0.00  0.00    -0.153 OA
BRANCH  29  32
ATOM     32  C   UNL     1      -1.763   0.548   9.858  0.00  0.00    +0.142 A 
ATOM     33  C   UNL     1      -3.026   1.022   9.988  0.00  0.00    +0.036 A 
ATOM     34  C   UNL     1      -3.310   1.904  11.015  0.00  0.00    +0.010 A 
ATOM     35  C   UNL     1      -2.316   2.268  11.861  0.00  0.00    +0.047 A 
ATOM     36  S   UNL     1      -0.927   1.349  11.218  0.00  0.00    -0.077 S 
ENDBRANCH  29  32
ENDBRANCH  27  29
ENDBRANCH  26  27
ENDBRANCH   8  26
TORSDOF 6
