REMARK  Name = ZINC06753015
REMARK  6 active torsions:
REMARK  status: ('A' for Active; 'I' for Inactive)
REMARK    1  A    between atoms: C_4  and  O_28
REMARK    2  A    between atoms: C_5  and  C_7
REMARK    3  A    between atoms: N_15  and  C_25
REMARK    4  A    between atoms: C_16  and  C_18
REMARK    5  A    between atoms: C_25  and  C_26
REMARK    6  A    between atoms: C_26  and  O_27
REMARK                            x       y       z     vdW  Elec       q    Type
REMARK                         _______ _______ _______ _____ _____    ______ ____
ROOT
ATOM      1  C   UNL     1       1.328  -2.617  -0.322  0.00  0.00    +0.102 A 
ATOM      2  C   UNL     1       0.118  -3.266  -0.053  0.00  0.00    +0.035 A 
ATOM      3  C   UNL     1       0.413  -4.615  -0.020  0.00  0.00    +0.126 A 
ATOM      4  N   UNL     1       1.753  -4.717  -0.264  0.00  0.00    -0.272 N 
ATOM      5  H   UNL     1       2.251  -5.548  -0.303  0.00  0.00    +0.189 HD
ATOM      6  N   UNL     1       2.256  -3.546  -0.439  0.00  0.00    -0.173 NA
ATOM      7  C   UNL     1      -0.822  -5.357   0.259  0.00  0.00    +0.266 C 
ATOM      8  O   UNL     1      -0.899  -6.567   0.352  0.00  0.00    -0.268 OA
ATOM      9  N   UNL     1      -1.857  -4.508   0.396  0.00  0.00    -0.283 N 
ATOM     10  C   UNL     1      -1.357  -3.139   0.213  0.00  0.00    +0.141 C 
ENDROOT
BRANCH  10  11
ATOM     11  C   UNL     1      -2.043  -2.490  -0.961  0.00  0.00    -0.022 A 
ATOM     12  C   UNL     1      -2.237  -3.203  -2.129  0.00  0.00    +0.007 A 
ATOM     13  C   UNL     1      -2.866  -2.607  -3.206  0.00  0.00    +0.015 A 
ATOM     14  C   UNL     1      -3.301  -1.297  -3.115  0.00  0.00    +0.018 A 
ATOM     15  C   UNL     1      -3.106  -0.584  -1.946  0.00  0.00    +0.015 A 
ATOM     16  C   UNL     1      -2.482  -1.182  -0.867  0.00  0.00    +0.007 A 
ATOM     17 BR   UNL     1      -4.161  -0.481  -4.588  0.00  0.00    -0.050 Br
ENDBRANCH  10  11
BRANCH   1  22
ATOM     18  C   UNL     1       1.157   1.079   0.347  0.00  0.00    +0.001 A 
ATOM     19  C   UNL     1       1.902   1.582  -0.705  0.00  0.00    +0.004 A 
ATOM     20  C   UNL     1       2.463   0.727  -1.634  0.00  0.00    +0.046 A 
ATOM     21  C   UNL     1       2.281  -0.642  -1.517  0.00  0.00    +0.126 A 
ATOM     22  C   UNL     1       1.529  -1.153  -0.455  0.00  0.00    +0.044 A 
ATOM     23  C   UNL     1       0.968  -0.282   0.476  0.00  0.00    +0.014 A 
BRANCH  21  24
ATOM     24  O   UNL     1       2.831  -1.484  -2.430  0.00  0.00    -0.506 OA
ATOM     25  H   UNL     1       3.722  -1.783  -2.203  0.00  0.00    +0.292 HD
ENDBRANCH  21  24
ENDBRANCH   1  22
BRANCH   9  26
ATOM     26  C   UNL     1      -3.244  -4.886   0.680  0.00  0.00    +0.137 C 
BRANCH  26  27
ATOM     27  C   UNL     1      -3.462  -4.923   2.194  0.00  0.00    +0.175 C 
BRANCH  27  28
ATOM     28  O   UNL     1      -3.311  -3.608   2.730  0.00  0.00    -0.393 OA
ATOM     29  H   UNL     1      -3.436  -3.556   3.688  0.00  0.00    +0.209 HD
ENDBRANCH  27  28
ENDBRANCH  26  27
ENDBRANCH   9  26
TORSDOF 6
