REMARK  Name = ZINC11663847
REMARK  8 active torsions:
REMARK  status: ('A' for Active; 'I' for Inactive)
REMARK    1  A    between atoms: C_1  and  C_2
REMARK    2  A    between atoms: C_9  and  C_25
REMARK    3  A    between atoms: C_10  and  C_11
REMARK    4  A    between atoms: C_11  and  N_62
REMARK    5  A    between atoms: C_12  and  C_13
REMARK    6  A    between atoms: C_12  and  N_62
REMARK    7  A    between atoms: N_16  and  C_18
REMARK    8  A    between atoms: C_18  and  C_19
REMARK                            x       y       z     vdW  Elec       q    Type
REMARK                         _______ _______ _______ _____ _____    ______ ____
ROOT
ATOM      1  C   UNL     1       5.720   1.660  -7.440  0.00  0.00    +0.047 C 
ATOM      2  C   UNL     1       5.761   2.137  -6.011  0.00  0.00    -0.008 A 
ATOM      3  C   UNL     1       6.176   3.398  -5.720  0.00  0.00    +0.008 A 
ATOM      4  C   UNL     1       6.210   3.830  -4.383  0.00  0.00    +0.018 A 
ATOM      5  C   UNL     1       5.833   2.999  -3.389  0.00  0.00    +0.093 A 
ATOM      6  N   UNL     1       5.414   1.728  -3.665  0.00  0.00    -0.304 N 
ATOM      7  C   UNL     1       5.370   1.278  -4.961  0.00  0.00    +0.141 A 
ATOM      8  N   UNL     1       4.934   0.029  -4.954  0.00  0.00    -0.223 NA
ATOM      9  C   UNL     1       4.698  -0.346  -3.683  0.00  0.00    +0.146 A 
ATOM     10  C   UNL     1       4.989   0.710  -2.866  0.00  0.00    +0.039 A 
ENDROOT
BRANCH   9  11
ATOM     11  C   UNL     1       4.206  -1.667  -3.247  0.00  0.00    +0.267 C 
ATOM     12  O   UNL     1       3.915  -1.854  -2.082  0.00  0.00    -0.268 OA
ATOM     13  N   UNL     1       4.081  -2.668  -4.141  0.00  0.00    -0.296 N 
ATOM     14  C   UNL     1       4.571  -2.508  -5.517  0.00  0.00    +0.108 C 
ATOM     15  C   UNL     1       5.516  -3.676  -5.838  0.00  0.00    +0.019 C 
ATOM     16  C   UNL     1       4.790  -4.998  -5.579  0.00  0.00    +0.003 C 
ATOM     17  C   UNL     1       4.399  -5.087  -4.103  0.00  0.00    +0.019 C 
ATOM     18  C   UNL     1       3.446  -3.937  -3.761  0.00  0.00    +0.108 C 
ENDBRANCH   9  11
BRANCH  10  19
ATOM     19  C   UNL     1       4.869   0.740  -1.365  0.00  0.00    -0.025 C 
BRANCH  19  20
ATOM     20  N   UNL     1       3.519   1.207  -0.997  0.00  0.00    +0.385 N 
ATOM     21  H   UNL     1       2.820   0.566  -1.389  0.00  0.00    -0.085 HD
ATOM     22  H   UNL     1       3.371   2.149  -1.377  0.00  0.00    -0.085 HD
BRANCH  20  23
ATOM     23  C   UNL     1       3.373   1.246   0.471  0.00  0.00    -0.043 C 
BRANCH  23  24
ATOM     24  C   UNL     1       1.987   1.726   0.816  0.00  0.00    -0.027 A 
ATOM     25  C   UNL     1       0.858   0.920   0.997  0.00  0.00    +0.136 A 
ATOM     26  N   UNL     1      -0.157   1.696   1.280  0.00  0.00    -0.179 NA
ATOM     27  N   UNL     1       0.297   3.021   1.298  0.00  0.00    -0.267 N 
ATOM     28  C   UNL     1       1.614   3.013   1.007  0.00  0.00    +0.110 A 
BRANCH  27  29
ATOM     29  C   UNL     1      -0.517   4.207   1.577  0.00  0.00    +0.178 C 
BRANCH  29  30
ATOM     30  C   UNL     1      -1.700   4.236   0.644  0.00  0.00    -0.026 A 
ATOM     31  C   UNL     1      -1.604   4.880  -0.575  0.00  0.00    +0.005 A 
ATOM     32  C   UNL     1      -2.688   4.902  -1.432  0.00  0.00    +0.000 A 
ATOM     33  C   UNL     1      -3.872   4.288  -1.066  0.00  0.00    +0.000 A 
ATOM     34  C   UNL     1      -3.969   3.648   0.155  0.00  0.00    +0.000 A 
ATOM     35  C   UNL     1      -2.884   3.622   1.011  0.00  0.00    +0.005 A 
ENDBRANCH  29  30
ENDBRANCH  27  29
ENDBRANCH  23  24
ENDBRANCH  20  23
ENDBRANCH  19  20
ENDBRANCH  10  19
TORSDOF 7
