REMARK  Name = ZINC39327451
REMARK  10 active torsions:
REMARK  status: ('A' for Active; 'I' for Inactive)
REMARK    1  A    between atoms: C_1  and  C_2
REMARK    2  A    between atoms: C_2  and  C_3
REMARK    3  A    between atoms: C_3  and  N_4
REMARK    4  A    between atoms: N_13  and  C_14
REMARK    5  A    between atoms: C_14  and  C_15
REMARK    6  A    between atoms: C_18  and  N_21
REMARK    7  A    between atoms: C_22  and  C_35
REMARK    8  A    between atoms: C_24  and  C_33
REMARK    9  A    between atoms: C_24  and  C_34
REMARK   10  A    between atoms: C_25  and  C_27
REMARK                            x       y       z     vdW  Elec       q    Type
REMARK                         _______ _______ _______ _____ _____    ______ ____
ROOT
ATOM      1  C   UNL     1      -1.356  -2.632   4.823  0.00  0.00    -0.030 A 
ATOM      2  C   UNL     1      -0.155  -2.279   5.412  0.00  0.00    +0.007 A 
ATOM      3  C   UNL     1      -0.148  -1.615   6.623  0.00  0.00    +0.025 A 
ATOM      4  C   UNL     1      -1.348  -1.300   7.249  0.00  0.00    +0.052 A 
ATOM      5  C   UNL     1      -2.553  -1.656   6.653  0.00  0.00    +0.025 A 
ATOM      6  C   UNL     1      -2.553  -2.316   5.440  0.00  0.00    +0.007 A 
ENDROOT
BRANCH   4   7
ATOM      7  N   UNL     1      -1.345  -0.629   8.472  0.00  0.00    -0.216 N 
ATOM      8  C   UNL     1      -2.539  -0.243   9.240  0.00  0.00    +0.140 C 
ATOM      9  C   UNL     1      -1.958   0.457  10.485  0.00  0.00    +0.034 C 
ATOM     10  C   UNL     1      -0.462   0.387  10.277  0.00  0.00    +0.074 C 
ATOM     11  N   UNL     1      -0.209  -0.221   9.169  0.00  0.00    -0.183 NA
ATOM     12  C   UNL     1      -2.359  -0.292  11.757  0.00  0.00    +0.020 C 
ATOM     13  C   UNL     1      -2.424   1.913  10.548  0.00  0.00    +0.020 C 
BRANCH  10  14
ATOM     14  C   UNL     1       0.552   0.925  11.203  0.00  0.00    -0.002 A 
ATOM     15  C   UNL     1       0.158   1.555  12.386  0.00  0.00    +0.010 A 
ATOM     16  C   UNL     1       1.111   2.056  13.247  0.00  0.00    +0.001 A 
ATOM     17  C   UNL     1       2.456   1.934  12.943  0.00  0.00    +0.000 A 
ATOM     18  C   UNL     1       2.853   1.311  11.773  0.00  0.00    +0.001 A 
ATOM     19  C   UNL     1       1.911   0.801  10.905  0.00  0.00    +0.010 A 
ENDBRANCH  10  14
BRANCH   8  20
ATOM     20  C   UNL     1      -3.396   0.708   8.445  0.00  0.00    -0.024 A 
ATOM     21  C   UNL     1      -2.805   1.678   7.657  0.00  0.00    +0.005 A 
ATOM     22  C   UNL     1      -3.591   2.550   6.928  0.00  0.00    +0.000 A 
ATOM     23  C   UNL     1      -4.969   2.452   6.986  0.00  0.00    +0.000 A 
ATOM     24  C   UNL     1      -5.560   1.481   7.773  0.00  0.00    +0.000 A 
ATOM     25  C   UNL     1      -4.774   0.606   8.499  0.00  0.00    +0.005 A 
ENDBRANCH   8  20
ENDBRANCH   4   7
BRANCH   1  26
ATOM     26  C   UNL     1      -1.360  -3.357   3.502  0.00  0.00    +0.139 C 
BRANCH  26  36
ATOM     27  N   UNL     1      -1.413  -1.998   0.005  0.00  0.00    -0.313 N 
ATOM     28  C   UNL     1      -1.407  -2.814  -1.115  0.00  0.00    +0.068 A 
ATOM     29  C   UNL     1      -1.417  -2.572  -2.480  0.00  0.00    +0.028 A 
ATOM     30  C   UNL     1      -1.408  -3.631  -3.365  0.00  0.00    +0.002 A 
ATOM     31  C   UNL     1      -1.388  -4.937  -2.898  0.00  0.00    +0.002 A 
ATOM     32  C   UNL     1      -1.378  -5.195  -1.546  0.00  0.00    +0.028 A 
ATOM     33  C   UNL     1      -1.387  -4.134  -0.637  0.00  0.00    +0.065 A 
ATOM     34  N   UNL     1      -1.382  -4.068   0.721  0.00  0.00    -0.327 N 
ATOM     35  C   UNL     1      -1.391  -2.814   1.100  0.00  0.00    +0.174 A 
ATOM     36  N   UNL     1      -1.384  -2.382   2.409  0.00  0.00    -0.312 N 
ATOM     37  H   UNL     1      -1.394  -1.433   2.607  0.00  0.00    +0.149 HD
ATOM     38  H   UNL     1      -1.369  -4.832   1.318  0.00  0.00    +0.169 HD
BRANCH  27  39
ATOM     39  C   UNL     1      -1.433  -0.534   0.013  0.00  0.00    +0.125 C 
BRANCH  39  41
ATOM     40  C   UNL     1      -0.019   1.526   0.010  0.00  0.00    +0.005 C 
ATOM     41  C   UNL     1       0.002  -0.004   0.002  0.00  0.00    +0.018 C 
ENDBRANCH  39  41
ENDBRANCH  27  39
ENDBRANCH  26  36
ENDBRANCH   1  26
TORSDOF 7
