REMARK  Name = ZINC39669745
REMARK  12 active torsions:
REMARK  status: ('A' for Active; 'I' for Inactive)
REMARK    1  A    between atoms: C_1  and  C_2
REMARK    2  A    between atoms: C_4  and  C_11
REMARK    3  A    between atoms: N_5  and  C_7
REMARK    4  A    between atoms: C_7  and  C_8
REMARK    5  A    between atoms: C_7  and  C_9
REMARK    6  A    between atoms: C_7  and  C_10
REMARK    7  A    between atoms: C_15  and  C_24
REMARK    8  A    between atoms: N_26  and  C_27
REMARK    9  A    between atoms: C_27  and  C_28
REMARK   10  A    between atoms: C_28  and  C_29
REMARK   11  A    between atoms: C_28  and  C_30
REMARK   12  A    between atoms: C_28  and  N_31
REMARK                            x       y       z     vdW  Elec       q    Type
REMARK                         _______ _______ _______ _____ _____    ______ ____
ROOT
ATOM      1  C   UNL     1      -0.025  -3.635  -1.229  0.00  0.00    +0.265 C 
ATOM      2  O   UNL     1      -0.269  -3.854  -2.400  0.00  0.00    -0.268 OA
ATOM      3  N   UNL     1       0.018  -4.653  -0.347  0.00  0.00    -0.295 N 
ATOM      4  C   UNL     1       0.170  -4.574   1.125  0.00  0.00    +0.121 C 
ATOM      5  C   UNL     1      -0.778  -5.664   1.674  0.00  0.00    +0.100 C 
ATOM      6  C   UNL     1      -0.935  -6.666   0.518  0.00  0.00    -0.004 C 
ATOM      7  C   UNL     1      -0.084  -6.105  -0.630  0.00  0.00    +0.115 C 
ATOM      8  C   UNL     1      -0.420  -8.040   0.937  0.00  0.00    -0.010 C 
ATOM      9  C   UNL     1      -0.640  -9.033  -0.208  0.00  0.00    -0.082 C 
ATOM     10  N   UNL     1      -2.070  -9.102  -0.530  0.00  0.00    +0.379 N 
ATOM     11  C   UNL     1      -2.537  -7.799  -1.020  0.00  0.00    -0.082 C 
ATOM     12  C   UNL     1      -2.397  -6.754   0.091  0.00  0.00    -0.010 C 
ATOM     13  H   UNL     1      -2.220  -9.801  -1.242  0.00  0.00    -0.086 HD
ATOM     14  H   UNL     1      -2.588  -9.354   0.298  0.00  0.00    -0.086 HD
ENDROOT
BRANCH   1  18
ATOM     15  C   UNL     1       1.193   0.442   1.531  0.00  0.00    +0.067 C 
ATOM     16  C   UNL     1       0.753  -0.469   0.414  0.00  0.00    +0.061 A 
ATOM     17  C   UNL     1       0.674  -1.863   0.473  0.00  0.00    +0.057 A 
ATOM     18  C   UNL     1       0.226  -2.257  -0.775  0.00  0.00    +0.124 A 
ATOM     19  N   UNL     1       0.063  -1.112  -1.502  0.00  0.00    -0.254 N 
ATOM     20  N   UNL     1       0.373  -0.096  -0.781  0.00  0.00    -0.175 NA
BRANCH  19  21
ATOM     21  C   UNL     1      -0.399  -1.052  -2.891  0.00  0.00    +0.056 C 
ATOM     22  C   UNL     1      -1.750  -1.761  -3.010  0.00  0.00    +0.036 C 
ATOM     23  C   UNL     1      -0.552   0.410  -3.315  0.00  0.00    +0.036 C 
ATOM     24  C   UNL     1       0.621  -1.743  -3.799  0.00  0.00    +0.036 C 
ENDBRANCH  19  21
ENDBRANCH   1  18
BRANCH   5  25
ATOM     25  C   UNL     1      -2.112  -5.064   2.037  0.00  0.00    +0.218 C 
ATOM     26  O   UNL     1      -2.559  -4.142   1.388  0.00  0.00    -0.275 OA
ATOM     27  N   UNL     1      -2.809  -5.553   3.082  0.00  0.00    -0.313 N 
ATOM     28  H   UNL     1      -2.420  -6.241   3.645  0.00  0.00    +0.149 HD
BRANCH  27  29
ATOM     29  C   UNL     1      -4.153  -5.045   3.368  0.00  0.00    +0.126 C 
BRANCH  29  30
ATOM     30  C   UNL     1      -4.667  -5.666   4.668  0.00  0.00    +0.032 C 
ATOM     31  C   UNL     1      -3.737  -5.279   5.820  0.00  0.00    +0.029 C 
ATOM     32  C   UNL     1      -6.078  -5.151   4.957  0.00  0.00    +0.029 C 
BRANCH  30  33
ATOM     33  N   UNL     1      -4.697  -7.129   4.534  0.00  0.00    -0.291 NA
ATOM     34  C   UNL     1      -5.459  -7.532   3.343  0.00  0.00    +0.113 C 
ATOM     35  C   UNL     1      -5.415  -9.057   3.208  0.00  0.00    +0.175 C 
ATOM     36  O   UNL     1      -5.926  -9.651   4.405  0.00  0.00    -0.377 OA
ATOM     37  C   UNL     1      -5.208  -9.280   5.584  0.00  0.00    +0.175 C 
ATOM     38  C   UNL     1      -5.250  -7.757   5.743  0.00  0.00    +0.113 C 
ENDBRANCH  30  33
ENDBRANCH  29  30
ENDBRANCH  27  29
ENDBRANCH   5  25
TORSDOF 6
