REMARK  Name = ZINC49169172
REMARK  7 active torsions:
REMARK  status: ('A' for Active; 'I' for Inactive)
REMARK    1  A    between atoms: C_1  and  C_2
REMARK    2  A    between atoms: C_3  and  C_7
REMARK    3  A    between atoms: C_9  and  C_10
REMARK    4  A    between atoms: C_9  and  C_12
REMARK    5  A    between atoms: C_12  and  C_14
REMARK    6  A    between atoms: C_17  and  N_20
REMARK    7  A    between atoms: C_23  and  C_25
REMARK                            x       y       z     vdW  Elec       q    Type
REMARK                         _______ _______ _______ _____ _____    ______ ____
ROOT
ATOM      1  C   UNL     1      -3.963   1.658  -0.065  0.00  0.00    +0.207 C 
ATOM      2  O   UNL     1      -4.859   0.905  -0.403  0.00  0.00    -0.286 OA
ENDROOT
BRANCH   1   3
ATOM      3  C   UNL     1      -4.189   3.117  -0.058  0.00  0.00    +0.023 A 
ATOM      4  C   UNL     1      -3.115   3.993  -0.239  0.00  0.00    +0.013 A 
ATOM      5  C   UNL     1      -3.328   5.352  -0.233  0.00  0.00    +0.025 A 
ATOM      6  C   UNL     1      -4.613   5.856  -0.044  0.00  0.00    +0.052 A 
ATOM      7  C   UNL     1      -5.685   4.985   0.137  0.00  0.00    +0.025 A 
ATOM      8  C   UNL     1      -5.478   3.625   0.126  0.00  0.00    +0.013 A 
BRANCH   6   9
ATOM      9  N   UNL     1      -4.826   7.229  -0.037  0.00  0.00    -0.224 N 
ATOM     10  C   UNL     1      -6.125   7.896   0.156  0.00  0.00    +0.138 C 
ATOM     11  C   UNL     1      -5.769   9.394   0.071  0.00  0.00    +0.073 C 
ATOM     12  C   UNL     1      -4.276   9.398  -0.166  0.00  0.00    +0.036 C 
ATOM     13  N   UNL     1      -3.845   8.204  -0.206  0.00  0.00    -0.189 NA
ATOM     14  C   UNL     1      -3.426  10.632  -0.324  0.00  0.00    +0.062 C 
ENDBRANCH   6   9
ENDBRANCH   1   3
BRANCH   1  17
ATOM     15  C   UNL     1      -2.404  -0.247   0.199  0.00  0.00    +0.210 C 
ATOM     16  O   UNL     1      -3.303  -1.047  -0.411  0.00  0.00    -0.286 OA
ATOM     17  C   UNL     1      -2.663   1.117   0.334  0.00  0.00    +0.146 C 
BRANCH  15  20
ATOM     18  C   UNL     1      -0.443  -2.152  -1.344  0.00  0.00    +0.087 C 
ATOM     19  C   UNL     1      -0.285  -1.642   0.065  0.00  0.00    +0.113 A 
ATOM     20  C   UNL     1      -1.153  -0.811   0.719  0.00  0.00    +0.064 A 
ATOM     21  C   UNL     1      -0.570  -0.603   2.054  0.00  0.00    +0.053 A 
ATOM     22  C   UNL     1       0.568  -1.313   2.074  0.00  0.00    +0.196 A 
ATOM     23  O   UNL     1       0.725  -1.929   0.892  0.00  0.00    -0.467 OA
ENDBRANCH  15  20
BRANCH  17  24
ATOM     24  C   UNL     1      -1.656   1.987   0.862  0.00  0.00    +0.107 C 
ATOM     25  N   UNL     1      -0.858   2.678   1.282  0.00  0.00    -0.191 NA
ENDBRANCH  17  24
ENDBRANCH   1  17
TORSDOF 5
