REMARK  Name = ZINC08791117
REMARK  3 active torsions:
REMARK  status: ('A' for Active; 'I' for Inactive)
REMARK    1  A    between atoms: C_1  and  C_2
REMARK    2  A    between atoms: C_5  and  C_8
REMARK    3  A    between atoms: C_8  and  C_10
REMARK                            x       y       z     vdW  Elec       q    Type
REMARK                         _______ _______ _______ _____ _____    ______ ____
ROOT
ATOM      1  C   UNL     1      -0.013   1.086   0.008  0.00  0.00    +0.066 C 
ATOM      2  C   UNL     1      -0.782   1.523  -1.262  0.00  0.00    -0.055 C 
ATOM      3  C   UNL     1       0.210   1.726  -2.414  0.00  0.00    -0.016 C 
ATOM      4  C   UNL     1       0.642   3.203  -2.333  0.00  0.00    -0.020 C 
ATOM      5  C   UNL     1      -0.102   3.774  -1.110  0.00  0.00    -0.076 C 
ATOM      6  C   UNL     1      -1.632   2.845   0.511  0.00  0.00    +0.060 C 
ATOM      7  C   UNL     1      -0.835   1.712   1.147  0.00  0.00    +0.085 C 
ATOM      8  C   UNL     1       0.058   2.204   2.252  0.00  0.00    -0.011 A 
ATOM      9  C   UNL     1       1.075   3.131   2.307  0.00  0.00    +0.006 A 
ATOM     10  C   UNL     1       1.726   3.374   3.504  0.00  0.00    +0.000 A 
ATOM     11  C   UNL     1       1.354   2.683   4.643  0.00  0.00    +0.002 A 
ATOM     12  C   UNL     1       0.336   1.754   4.592  0.00  0.00    +0.023 A 
ATOM     13  C   UNL     1      -0.327   1.504   3.392  0.00  0.00    +0.038 A 
ATOM     14  N   UNL     1      -1.371   0.628   3.091  0.00  0.00    -0.285 N 
ATOM     15  C   UNL     1      -1.729   0.690   1.794  0.00  0.00    +0.228 C 
ATOM     16  O   UNL     1      -2.603   0.046   1.253  0.00  0.00    -0.275 OA
ATOM     17  C   UNL     1      -3.113   2.645   0.692  0.00  0.00    -0.027 A 
ATOM     18  C   UNL     1      -3.984   1.648   0.314  0.00  0.00    +0.004 A 
ATOM     19  C   UNL     1      -5.327   1.746   0.630  0.00  0.00    +0.000 A 
ATOM     20  C   UNL     1      -5.792   2.848   1.325  0.00  0.00    +0.002 A 
ATOM     21  C   UNL     1      -4.922   3.849   1.706  0.00  0.00    +0.023 A 
ATOM     22  C   UNL     1      -3.568   3.757   1.392  0.00  0.00    +0.036 A 
ATOM     23  N   UNL     1      -2.508   4.625   1.662  0.00  0.00    -0.286 N 
ATOM     24  C   UNL     1      -1.339   4.164   1.180  0.00  0.00    +0.212 C 
ATOM     25  O   UNL     1      -0.258   4.707   1.266  0.00  0.00    -0.277 OA
ATOM     26  H   UNL     1      -1.791   0.043   3.741  0.00  0.00    +0.155 HD
ATOM     27  H   UNL     1      -2.603   5.463   2.142  0.00  0.00    +0.155 HD
ATOM     28  N   UNL     1      -1.238   2.856  -0.906  0.00  0.00    +0.395 N 
ATOM     29  H   UNL     1      -2.033   3.137  -1.492  0.00  0.00    -0.079 HD
ENDROOT
BRANCH   1  30
ATOM     30  C   UNL     1       1.390   1.636  -0.002  0.00  0.00    +0.166 C 
ATOM     31  O   UNL     1       1.647   2.630  -0.648  0.00  0.00    -0.292 OA
BRANCH  30  36
ATOM     32  C   UNL     1       5.525  -0.977   3.017  0.00  0.00    +0.044 C 
ATOM     33  C   UNL     1       4.441  -0.292   2.226  0.00  0.00    -0.050 A 
ATOM     34  C   UNL     1       4.738   0.842   1.491  0.00  0.00    +0.004 A 
ATOM     35  C   UNL     1       3.752   1.475   0.764  0.00  0.00    +0.011 A 
ATOM     36  C   UNL     1       2.449   0.967   0.771  0.00  0.00    +0.018 A 
ATOM     37  C   UNL     1       2.155  -0.176   1.521  0.00  0.00    +0.011 A 
ATOM     38  C   UNL     1       3.154  -0.801   2.238  0.00  0.00    +0.004 A 
ENDBRANCH  30  36
ENDBRANCH   1  30
TORSDOF 2
