REMARK  Name = ZINC38079203
REMARK  4 active torsions:
REMARK  status: ('A' for Active; 'I' for Inactive)
REMARK    1  A    between atoms: C_3  and  S_8
REMARK    2  A    between atoms: C_6  and  O_7
REMARK    3  A    between atoms: S_8  and  C_9
REMARK    4  A    between atoms: C_12  and  N_19
REMARK                            x       y       z     vdW  Elec       q    Type
REMARK                         _______ _______ _______ _____ _____    ______ ____
ROOT
ATOM      1  C   UNL     1       5.134   1.066   0.109  0.00  0.00    +0.021 A 
ATOM      2  C   UNL     1       4.781  -0.269   0.133  0.00  0.00    +0.018 A 
ATOM      3  C   UNL     1       5.752  -1.260   0.234  0.00  0.00    +0.034 A 
ATOM      4  C   UNL     1       7.076  -0.945   0.313  0.00  0.00    +0.135 A 
ATOM      5  C   UNL     1       7.477   0.400   0.292  0.00  0.00    +0.031 A 
ATOM      6  C   UNL     1       6.496   1.419   0.183  0.00  0.00    +0.001 A 
ATOM      7  C   UNL     1       6.925   2.756   0.159  0.00  0.00    +0.029 A 
ATOM      8  C   UNL     1       8.261   3.016   0.235  0.00  0.00    +0.111 A 
ATOM      9  N   UNL     1       9.158   2.044   0.331  0.00  0.00    -0.263 NA
ATOM     10  C   UNL     1       8.828   0.775   0.371  0.00  0.00    +0.121 A 
ENDROOT
BRANCH   4  11
ATOM     11  N   UNL     1       8.092  -2.023   0.421  0.00  0.00    +0.057 N 
ATOM     12  O   UNL     1       7.946  -3.055  -0.191  0.00  0.00    -0.126 OA
ATOM     13  O   UNL     1       9.065  -1.868   1.123  0.00  0.00    -0.126 OA
ENDBRANCH   4  11
BRANCH   1  14
ATOM     14  S   UNL     1       3.896   2.313  -0.020  0.00  0.00    -0.089 S 
BRANCH  14  17
ATOM     15  C   UNL     1       0.645   0.403   1.379  0.00  0.00    +0.046 A 
ATOM     16  C   UNL     1       1.833   1.102   1.308  0.00  0.00    +0.018 A 
ATOM     17  C   UNL     1       2.380   1.420   0.071  0.00  0.00    +0.013 A 
ATOM     18  C   UNL     1       1.730   1.032  -1.094  0.00  0.00    +0.018 A 
ATOM     19  C   UNL     1       0.542   0.332  -1.022  0.00  0.00    +0.046 A 
ATOM     20  C   UNL     1      -0.003   0.016   0.214  0.00  0.00    +0.117 A 
BRANCH  20  21
ATOM     21  O   UNL     1      -1.173  -0.673   0.285  0.00  0.00    -0.507 OA
ATOM     22  H   UNL     1      -1.960  -0.111   0.302  0.00  0.00    +0.292 HD
ENDBRANCH  20  21
ENDBRANCH  14  17
ENDBRANCH   1  14
TORSDOF 4
