REMARK  Name = ZINC39942846
REMARK  5 active torsions:
REMARK  status: ('A' for Active; 'I' for Inactive)
REMARK    1  A    between atoms: C_1  and  C_2
REMARK    2  A    between atoms: C_4  and  C_12
REMARK    3  A    between atoms: N_13  and  N_14
REMARK    4  A    between atoms: C_15  and  C_17
REMARK    5  A    between atoms: C_19  and  C_23
REMARK                            x       y       z     vdW  Elec       q    Type
REMARK                         _______ _______ _______ _____ _____    ______ ____
ROOT
ATOM      1  C   UNL     1      -6.893  -0.998  -2.510  0.00  0.00    +0.149 A 
ATOM      2  C   UNL     1      -8.208  -1.507  -2.456  0.00  0.00    +0.062 A 
ATOM      3  C   UNL     1      -8.825  -1.043  -3.586  0.00  0.00    +0.067 A 
ATOM      4  N   UNL     1      -7.902  -0.298  -4.261  0.00  0.00    -0.276 N 
ATOM      5  H   UNL     1      -8.061   0.156  -5.103  0.00  0.00    +0.189 HD
ATOM      6  N   UNL     1      -6.792  -0.283  -3.614  0.00  0.00    -0.169 NA
ENDROOT
BRANCH   3   7
ATOM      7  C   UNL     1     -10.220  -1.300  -3.997  0.00  0.00    +0.008 A 
ATOM      8  C   UNL     1     -10.795  -2.552  -3.818  0.00  0.00    +0.011 A 
ATOM      9  C   UNL     1     -12.108  -2.821  -4.196  0.00  0.00    +0.005 A 
ATOM     10  C   UNL     1     -12.881  -1.849  -4.761  0.00  0.00    -0.039 A 
ATOM     11  C   UNL     1     -12.323  -0.588  -4.948  0.00  0.00    -0.011 A 
ATOM     12  C   UNL     1     -11.005  -0.274  -4.576  0.00  0.00    -0.008 A 
ATOM     13  C   UNL     1     -10.551   1.032  -4.805  0.00  0.00    +0.009 A 
ATOM     14  C   UNL     1     -11.403   1.936  -5.372  0.00  0.00    +0.001 A 
ATOM     15  C   UNL     1     -12.712   1.605  -5.729  0.00  0.00    +0.004 A 
ATOM     16  C   UNL     1     -13.180   0.342  -5.530  0.00  0.00    -0.039 A 
ATOM     17  C   UNL     1     -14.497  -0.352  -5.781  0.00  0.00    +0.040 C 
ATOM     18  C   UNL     1     -14.300  -1.797  -5.274  0.00  0.00    +0.040 C 
ENDBRANCH   3   7
BRANCH   1  20
ATOM     19  N   UNL     1      -4.613  -0.664  -1.688  0.00  0.00    -0.202 N 
ATOM     20  C   UNL     1      -5.828  -1.219  -1.511  0.00  0.00    +0.283 C 
ATOM     21  O   UNL     1      -6.048  -1.902  -0.529  0.00  0.00    -0.267 OA
ATOM     22  H   UNL     1      -4.438  -0.119  -2.471  0.00  0.00    +0.178 HD
BRANCH  19  24
ATOM     23  C   UNL     1      -2.421  -0.334  -0.912  0.00  0.00    +0.136 C 
ATOM     24  N   UNL     1      -3.602  -0.874  -0.740  0.00  0.00    -0.188 NA
BRANCH  23  27
ATOM     25  C   UNL     1      -0.019   1.526   0.010  0.00  0.00    +0.035 C 
ATOM     26  C   UNL     1       0.002  -0.004   0.002  0.00  0.00    +0.109 C 
ATOM     27  C   UNL     1      -1.411  -0.544   0.036  0.00  0.00    +0.003 C 
ATOM     28  C   UNL     1      -1.496  -1.295   1.207  0.00  0.00    +0.005 A 
ATOM     29  C   UNL     1      -2.547  -2.038   1.790  0.00  0.00    +0.010 A 
ATOM     30  C   UNL     1      -2.343  -2.684   2.965  0.00  0.00    +0.001 A 
ATOM     31  C   UNL     1      -1.111  -2.635   3.624  0.00  0.00    +0.002 A 
ATOM     32  C   UNL     1      -0.059  -1.942   3.124  0.00  0.00    +0.026 A 
ATOM     33  C   UNL     1      -0.196  -1.240   1.897  0.00  0.00    +0.043 A 
ATOM     34  N   UNL     1       0.659  -0.507   1.212  0.00  0.00    -0.377 N 
ATOM     35  H   UNL     1       1.577  -0.327   1.468  0.00  0.00    +0.160 HD
ENDBRANCH  23  27
ENDBRANCH  19  24
ENDBRANCH   1  20
TORSDOF 4
