REMARK  Name = ZINC35707669
REMARK  12 active torsions:
REMARK  status: ('A' for Active; 'I' for Inactive)
REMARK    1  A    between atoms: C_1  and  C_2
REMARK    2  A    between atoms: C_5  and  N_9
REMARK    3  A    between atoms: C_6  and  C_8
REMARK    4  A    between atoms: N_12  and  C_13
REMARK    5  A    between atoms: C_17  and  C_19
REMARK    6  A    between atoms: C_21  and  C_29
REMARK    7  A    between atoms: C_22  and  C_28
REMARK    8  A    between atoms: N_23  and  C_27
REMARK    9  A    between atoms: C_29  and  O_31
REMARK   10  A    between atoms: O_31  and  C_32
REMARK   11  A    between atoms: C_32  and  C_33
REMARK   12  A    between atoms: C_32  and  C_34
REMARK                            x       y       z     vdW  Elec       q    Type
REMARK                         _______ _______ _______ _____ _____    ______ ____
ROOT
ATOM      1  C   UNL     1       1.599  -7.636  -1.579  0.00  0.00    +0.035 A 
ATOM      2  C   UNL     1       1.778  -6.751  -2.633  0.00  0.00    +0.023 A 
ATOM      3  C   UNL     1       1.484  -7.147  -3.923  0.00  0.00    +0.002 A 
ATOM      4  C   UNL     1       1.011  -8.424  -4.165  0.00  0.00    +0.006 A 
ATOM      5  C   UNL     1       0.830  -9.307  -3.117  0.00  0.00    -0.021 A 
ATOM      6  C   UNL     1       1.128  -8.919  -1.825  0.00  0.00    +0.029 A 
ENDROOT
BRANCH   5   7
ATOM      7  C   UNL     1       0.313 -10.697  -3.385  0.00  0.00    +0.144 C 
ATOM      8  C   UNL     1       1.490 -11.563  -3.788  0.00  0.00    +0.078 C 
ATOM      9  C   UNL     1       1.438 -12.173  -4.992  0.00  0.00    +0.024 C 
ATOM     10  N   UNL     1       0.361 -12.014  -5.817  0.00  0.00    -0.262 N 
ATOM     11  C   UNL     1      -0.703 -11.261  -5.512  0.00  0.00    +0.307 C 
ATOM     12  O   UNL     1      -1.615 -11.181  -6.312  0.00  0.00    -0.252 OA
ATOM     13  N   UNL     1      -0.797 -10.591  -4.347  0.00  0.00    -0.288 N 
ATOM     14  C   UNL     1       0.372 -12.704  -7.109  0.00  0.00    +0.139 C 
ATOM     15  C   UNL     1       2.587 -13.043  -5.432  0.00  0.00    +0.061 C 
ATOM     16  H   UNL     1      -1.578 -10.052  -4.147  0.00  0.00    +0.151 HD
BRANCH   8  17
ATOM     17  C   UNL     1       2.604 -11.727  -2.933  0.00  0.00    +0.339 C 
ATOM     18  O   UNL     1       3.589 -12.325  -3.325  0.00  0.00    -0.245 OA
BRANCH  17  19
ATOM     19  O   UNL     1       2.575 -11.221  -1.683  0.00  0.00    -0.459 OA
BRANCH  19  20
ATOM     20  C   UNL     1       3.736 -11.424  -0.873  0.00  0.00    +0.171 C 
ATOM     21  C   UNL     1       4.707 -10.258  -1.073  0.00  0.00    +0.052 C 
ATOM     22  C   UNL     1       3.324 -11.498   0.598  0.00  0.00    +0.052 C 
ENDBRANCH  19  20
ENDBRANCH  17  19
ENDBRANCH   8  17
ENDBRANCH   5   7
BRANCH   1  26
ATOM     23  N   UNL     1       2.103  -5.548   1.326  0.00  0.00    -0.269 N 
ATOM     24  C   UNL     1       1.714  -5.956   0.102  0.00  0.00    +0.308 C 
ATOM     25  O   UNL     1       1.197  -5.168  -0.666  0.00  0.00    -0.252 OA
ATOM     26  N   UNL     1       1.896  -7.239  -0.270  0.00  0.00    -0.269 N 
ATOM     27  H   UNL     1       2.563  -6.163   1.919  0.00  0.00    +0.156 HD
ATOM     28  H   UNL     1       2.234  -7.886   0.368  0.00  0.00    +0.156 HD
BRANCH  23  33
ATOM     29  C   UNL     1       1.055  -0.232   3.009  0.00  0.00    +0.044 C 
ATOM     30  C   UNL     1       1.333  -1.644   2.562  0.00  0.00    -0.050 A 
ATOM     31  C   UNL     1       1.596  -1.907   1.229  0.00  0.00    +0.005 A 
ATOM     32  C   UNL     1       1.852  -3.200   0.817  0.00  0.00    +0.024 A 
ATOM     33  C   UNL     1       1.845  -4.237   1.741  0.00  0.00    +0.038 A 
ATOM     34  C   UNL     1       1.581  -3.969   3.078  0.00  0.00    -0.029 A 
ATOM     35  C   UNL     1       1.331  -2.673   3.485  0.00  0.00    +0.008 A 
ATOM     36  C   UNL     1       1.572  -5.091   4.084  0.00  0.00    +0.045 C 
ENDBRANCH  23  33
ENDBRANCH   1  26
TORSDOF 6
