REMARK  Name = ZINC06732524
REMARK  5 active torsions:
REMARK  status: ('A' for Active; 'I' for Inactive)
REMARK    1  A    between atoms: C_1  and  N_2
REMARK    2  A    between atoms: N_2  and  C_3
REMARK    3  A    between atoms: N_2  and  C_4
REMARK    4  A    between atoms: C_7  and  C_10
REMARK    5  A    between atoms: C_15  and  C_25
REMARK                            x       y       z     vdW  Elec       q    Type
REMARK                         _______ _______ _______ _____ _____    ______ ____
ROOT
ATOM      1  C   UNL     1      -1.899   5.481  -0.816  0.00  0.00    +0.183 A 
ATOM      2  N   UNL     1      -2.325   4.228  -0.579  0.00  0.00    -0.193 NA
ATOM      3  C   UNL     1      -1.308   3.473  -0.270  0.00  0.00    +0.219 A 
ATOM      4  N   UNL     1      -0.188   4.239  -0.296  0.00  0.00    -0.220 N 
ATOM      5  N   UNL     1      -0.591   5.526  -0.653  0.00  0.00    -0.147 NA
ATOM      6  C   UNL     1       1.142   3.726   0.007  0.00  0.00    +0.175 C 
ATOM      7  C   UNL     1       1.126   2.213   0.006  0.00  0.00    +0.041 C 
ATOM      8  C   UNL     1      -0.025   1.508   0.029  0.00  0.00    +0.020 C 
ATOM      9  N   UNL     1      -1.253   2.125   0.044  0.00  0.00    -0.287 N 
ATOM     10  C   UNL     1      -0.009  -0.003   0.033  0.00  0.00    +0.052 C 
ATOM     11  C   UNL     1       1.249  -0.503   0.746  0.00  0.00    +0.014 C 
ATOM     12  C   UNL     1       2.473   0.061   0.017  0.00  0.00    +0.080 C 
ATOM     13  C   UNL     1       2.372   1.561  -0.015  0.00  0.00    +0.163 C 
ATOM     14  O   UNL     1       3.390   2.224  -0.061  0.00  0.00    -0.292 OA
ATOM     15  H   UNL     1      -2.057   1.631   0.267  0.00  0.00    +0.155 HD
ENDROOT
BRANCH   1  19
ATOM     16  C   UNL     1      -4.368   8.766  -1.913  0.00  0.00    +0.029 A 
ATOM     17  C   UNL     1      -4.934   7.515  -1.695  0.00  0.00    +0.024 A 
ATOM     18  C   UNL     1      -4.135   6.449  -1.339  0.00  0.00    +0.013 A 
ATOM     19  C   UNL     1      -2.760   6.626  -1.198  0.00  0.00    +0.021 A 
ATOM     20  C   UNL     1      -2.195   7.883  -1.412  0.00  0.00    +0.013 A 
ATOM     21  C   UNL     1      -2.997   8.945  -1.773  0.00  0.00    +0.024 A 
BRANCH  16  23
ATOM     22  C   UNL     1      -6.603   9.632  -2.543  0.00  0.00    +0.129 C 
ATOM     23  N   UNL     1      -5.178   9.844  -2.273  0.00  0.00    -0.336 N 
ATOM     24  C   UNL     1      -4.605  11.188  -2.380  0.00  0.00    +0.129 C 
ENDBRANCH  16  23
ENDBRANCH   1  19
BRANCH   6  25
ATOM     25  C   UNL     1       1.572   4.221   1.364  0.00  0.00    -0.018 A 
ATOM     26  C   UNL     1       0.829   3.898   2.484  0.00  0.00    +0.006 A 
ATOM     27  C   UNL     1       1.226   4.349   3.730  0.00  0.00    +0.000 A 
ATOM     28  C   UNL     1       2.360   5.129   3.854  0.00  0.00    +0.000 A 
ATOM     29  C   UNL     1       3.099   5.457   2.732  0.00  0.00    +0.000 A 
ATOM     30  C   UNL     1       2.705   5.003   1.488  0.00  0.00    +0.006 A 
ENDBRANCH   6  25
TORSDOF 3
