REMARK  Name = ZINC39631577
REMARK  15 active torsions:
REMARK  status: ('A' for Active; 'I' for Inactive)
REMARK    1  A    between atoms: C_1  and  C_2
REMARK    2  A    between atoms: C_2  and  C_3
REMARK    3  A    between atoms: C_3  and  C_4
REMARK    4  A    between atoms: C_3  and  C_6
REMARK    5  A    between atoms: C_4  and  C_5
REMARK    6  A    between atoms: C_10  and  C_19
REMARK    7  A    between atoms: N_21  and  C_22
REMARK    8  A    between atoms: C_22  and  C_24
REMARK    9  A    between atoms: C_22  and  C_25
REMARK   10  A    between atoms: C_25  and  C_26
REMARK   11  A    between atoms: C_26  and  C_27
REMARK   12  A    between atoms: C_27  and  C_28
REMARK   13  A    between atoms: C_28  and  C_29
REMARK   14  A    between atoms: C_28  and  C_30
REMARK   15  A    between atoms: C_28  and  O_31
REMARK                            x       y       z     vdW  Elec       q    Type
REMARK                         _______ _______ _______ _____ _____    ______ ____
ROOT
ATOM      1  C   UNL     1       1.849  -1.392  -3.639  0.00  0.00    +0.219 C 
ATOM      2  O   UNL     1       2.766  -2.069  -4.052  0.00  0.00    -0.275 OA
ATOM      3  N   UNL     1       0.680  -1.974  -3.303  0.00  0.00    -0.300 N 
ATOM      4  C   UNL     1      -0.578  -1.311  -2.887  0.00  0.00    +0.121 C 
ATOM      5  C   UNL     1      -1.696  -2.130  -3.569  0.00  0.00    +0.100 C 
ATOM      6  C   UNL     1      -1.073  -3.515  -3.815  0.00  0.00    -0.004 C 
ATOM      7  C   UNL     1       0.361  -3.421  -3.274  0.00  0.00    +0.115 C 
ATOM      8  C   UNL     1      -1.048  -3.825  -5.309  0.00  0.00    -0.010 C 
ATOM      9  C   UNL     1      -0.477  -5.230  -5.524  0.00  0.00    -0.082 C 
ATOM     10  N   UNL     1      -1.307  -6.211  -4.813  0.00  0.00    +0.379 N 
ATOM     11  C   UNL     1      -1.251  -5.961  -3.368  0.00  0.00    -0.082 C 
ATOM     12  C   UNL     1      -1.854  -4.587  -3.062  0.00  0.00    -0.010 C 
ATOM     13  H   UNL     1      -2.261  -6.134  -5.130  0.00  0.00    -0.086 HD
ATOM     14  H   UNL     1      -0.965  -7.141  -5.006  0.00  0.00    -0.086 HD
ENDROOT
BRANCH   5  15
ATOM     15  C   UNL     1      -2.093  -1.491  -4.875  0.00  0.00    +0.218 C 
ATOM     16  O   UNL     1      -1.274  -0.872  -5.520  0.00  0.00    -0.275 OA
ATOM     17  N   UNL     1      -3.357  -1.608  -5.326  0.00  0.00    -0.312 N 
ATOM     18  H   UNL     1      -4.031  -2.037  -4.775  0.00  0.00    +0.149 HD
BRANCH  17  19
ATOM     19  C   UNL     1      -3.715  -1.088  -6.648  0.00  0.00    +0.070 C 
ATOM     20  C   UNL     1      -3.392  -2.138  -7.714  0.00  0.00    +0.028 C 
BRANCH  19  21
ATOM     21  C   UNL     1      -5.211  -0.769  -6.684  0.00  0.00    +0.022 C 
BRANCH  21  22
ATOM     22  C   UNL     1      -5.514   0.363  -5.701  0.00  0.00    +0.005 C 
BRANCH  22  23
ATOM     23  C   UNL     1      -7.023   0.611  -5.658  0.00  0.00    +0.034 C 
BRANCH  23  24
ATOM     24  C   UNL     1      -7.327   1.738  -4.669  0.00  0.00    +0.061 C 
ATOM     25  C   UNL     1      -8.830   2.024  -4.668  0.00  0.00    +0.041 C 
ATOM     26  C   UNL     1      -6.888   1.317  -3.265  0.00  0.00    +0.041 C 
BRANCH  24  27
ATOM     27  O   UNL     1      -6.618   2.916  -5.056  0.00  0.00    -0.389 OA
ATOM     28  H   UNL     1      -6.764   3.673  -4.473  0.00  0.00    +0.210 HD
ENDBRANCH  24  27
ENDBRANCH  23  24
ENDBRANCH  22  23
ENDBRANCH  21  22
ENDBRANCH  19  21
ENDBRANCH  17  19
ENDBRANCH   5  15
BRANCH   1  29
ATOM     29  C   UNL     1       2.015   0.099  -3.499  0.00  0.00    +0.075 C 
BRANCH  29  31
ATOM     30  C   UNL     1       3.575  -0.333  -1.596  0.00  0.00    +0.004 C 
ATOM     31  C   UNL     1       2.334   0.443  -2.043  0.00  0.00    +0.009 C 
ENDBRANCH  29  31
BRANCH  29  32
ATOM     32  C   UNL     1       3.161   0.570  -4.397  0.00  0.00    +0.009 C 
ATOM     33  C   UNL     1       3.292   2.091  -4.301  0.00  0.00    +0.004 C 
ENDBRANCH  29  32
ENDBRANCH   1  29
TORSDOF 10
