REMARK  Name = ZINC67457023
REMARK  9 active torsions:
REMARK  status: ('A' for Active; 'I' for Inactive)
REMARK    1  A    between atoms: C_1  and  C_2
REMARK    2  A    between atoms: C_2  and  C_3
REMARK    3  A    between atoms: C_6  and  C_8
REMARK    4  A    between atoms: C_8  and  N_9
REMARK    5  A    between atoms: N_9  and  C_10
REMARK    6  A    between atoms: N_13  and  C_14
REMARK    7  A    between atoms: C_14  and  C_15
REMARK    8  A    between atoms: C_15  and  C_16
REMARK    9  A    between atoms: N_19  and  C_21
REMARK                            x       y       z     vdW  Elec       q    Type
REMARK                         _______ _______ _______ _____ _____    ______ ____
ROOT
ATOM      1  N   UNL     1       3.617  -3.262   3.880  0.00  0.00    -0.284 N 
ATOM      2  C   UNL     1       4.516  -3.822   2.868  0.00  0.00    +0.134 C 
ATOM      3  C   UNL     1       2.933  -4.082   4.702  0.00  0.00    +0.302 C 
ATOM      4  O   UNL     1       2.187  -3.617   5.542  0.00  0.00    -0.253 OA
ATOM      5  N   UNL     1       3.076  -5.418   4.593  0.00  0.00    -0.299 N 
ATOM      6  H   UNL     1       3.671  -5.789   3.923  0.00  0.00    +0.150 HD
ENDROOT
BRANCH   1   7
ATOM      7  C   UNL     1       3.462  -1.810   3.998  0.00  0.00    +0.152 C 
BRANCH   7  11
ATOM      8  C   UNL     1       0.731  -0.503   1.223  0.00  0.00    +0.078 A 
ATOM      9  N   UNL     1       0.240  -0.793   2.402  0.00  0.00    -0.252 NA
ATOM     10  C   UNL     1       1.012  -1.223   3.380  0.00  0.00    +0.124 A 
ATOM     11  C   UNL     1       2.336  -1.351   3.107  0.00  0.00    +0.027 A 
ATOM     12  S   UNL     1       2.372  -0.831   1.400  0.00  0.00    -0.075 S 
BRANCH   8  14
ATOM     13  C   UNL     1      -0.019   1.526   0.010  0.00  0.00    +0.011 C 
ATOM     14  C   UNL     1       0.002  -0.004   0.002  0.00  0.00    +0.059 C 
ENDBRANCH   8  14
ENDBRANCH   7  11
ENDBRANCH   1   7
BRANCH   5  15
ATOM     15  C   UNL     1       2.332  -6.309   5.487  0.00  0.00    +0.110 C 
BRANCH  15  16
ATOM     16  C   UNL     1       2.673  -7.763   5.156  0.00  0.00    +0.057 C 
BRANCH  16  17
ATOM     17  C   UNL     1       1.908  -8.681   6.075  0.00  0.00    -0.008 A 
ATOM     18  C   UNL     1       2.342  -9.146   7.321  0.00  0.00    +0.138 A 
ATOM     19  N   UNL     1       1.408  -9.916   7.819  0.00  0.00    -0.175 NA
ATOM     20  N   UNL     1       0.349  -9.967   6.904  0.00  0.00    -0.240 N 
ATOM     21  C   UNL     1       0.678  -9.195   5.844  0.00  0.00    +0.118 A 
BRANCH  20  22
ATOM     22  C   UNL     1      -0.844 -10.687   7.061  0.00  0.00    +0.065 A 
ATOM     23  C   UNL     1      -1.813 -10.654   6.068  0.00  0.00    +0.028 A 
ATOM     24  C   UNL     1      -2.987 -11.364   6.226  0.00  0.00    +0.002 A 
ATOM     25  C   UNL     1      -3.197 -12.108   7.372  0.00  0.00    +0.000 A 
ATOM     26  C   UNL     1      -2.234 -12.143   8.364  0.00  0.00    +0.002 A 
ATOM     27  C   UNL     1      -1.056 -11.439   8.209  0.00  0.00    +0.028 A 
ENDBRANCH  20  22
ENDBRANCH  16  17
ENDBRANCH  15  16
ENDBRANCH   5  15
TORSDOF 7
