REMARK  Name = ZINC34708244
REMARK  9 active torsions:
REMARK  status: ('A' for Active; 'I' for Inactive)
REMARK    1  A    between atoms: C_1  and  C_2
REMARK    2  A    between atoms: C_6  and  C_8
REMARK    3  A    between atoms: C_12  and  O_27
REMARK    4  A    between atoms: C_19  and  C_21
REMARK    5  A    between atoms: O_27  and  C_28
REMARK    6  A    between atoms: C_28  and  C_30
REMARK    7  A    between atoms: C_28  and  C_31
REMARK    8  A    between atoms: N_33  and  C_34
REMARK    9  A    between atoms: C_38  and  C_40
REMARK                            x       y       z     vdW  Elec       q    Type
REMARK                         _______ _______ _______ _____ _____    ______ ____
ROOT
ATOM      1  C   UNL     1      -0.238  -2.487   2.657  0.00  0.00    +0.137 C 
ATOM      2  C   UNL     1       0.894  -2.925   3.551  0.00  0.00    -0.016 A 
ATOM      3  C   UNL     1       2.082  -2.211   3.486  0.00  0.00    +0.051 A 
ATOM      4  C   UNL     1       3.155  -2.558   4.290  0.00  0.00    +0.122 A 
ATOM      5  C   UNL     1       3.037  -3.627   5.167  0.00  0.00    +0.046 A 
ATOM      6  C   UNL     1       1.857  -4.337   5.225  0.00  0.00    +0.007 A 
ATOM      7  C   UNL     1       0.781  -3.992   4.414  0.00  0.00    -0.040 A 
ATOM      8  C   UNL     1      -0.465  -4.832   4.516  0.00  0.00    +0.054 C 
ATOM      9  C   UNL     1      -1.674  -4.079   3.962  0.00  0.00    +0.113 C 
ATOM     10  N   UNL     1      -1.293  -3.506   2.661  0.00  0.00    -0.286 N 
ATOM     11  C   UNL     1      -1.889  -3.902   1.519  0.00  0.00    +0.247 C 
ATOM     12  O   UNL     1      -1.578  -3.390   0.462  0.00  0.00    -0.270 OA
ENDROOT
BRANCH   1  18
ATOM     13  C   UNL     1       0.457   0.423  -1.355  0.00  0.00    +0.044 C 
ATOM     14  C   UNL     1       0.607  -0.910  -0.668  0.00  0.00    -0.050 A 
ATOM     15  C   UNL     1       1.216  -1.963  -1.325  0.00  0.00    +0.003 A 
ATOM     16  C   UNL     1       1.353  -3.185  -0.695  0.00  0.00    +0.001 A 
ATOM     17  C   UNL     1       0.883  -3.354   0.594  0.00  0.00    +0.006 A 
ATOM     18  C   UNL     1       0.275  -2.302   1.252  0.00  0.00    -0.022 A 
ATOM     19  C   UNL     1       0.141  -1.078   0.623  0.00  0.00    +0.009 A 
ENDBRANCH   1  18
BRANCH  11  20
ATOM     20  C   UNL     1      -2.923  -4.959   1.553  0.00  0.00    +0.037 A 
ATOM     21  C   UNL     1      -2.850  -5.980   2.502  0.00  0.00    +0.013 A 
ATOM     22  C   UNL     1      -3.818  -6.963   2.528  0.00  0.00    +0.001 A 
ATOM     23  C   UNL     1      -4.859  -6.938   1.616  0.00  0.00    +0.000 A 
ATOM     24  C   UNL     1      -4.936  -5.929   0.673  0.00  0.00    +0.001 A 
ATOM     25  C   UNL     1      -3.978  -4.937   0.640  0.00  0.00    +0.013 A 
ENDBRANCH  11  20
BRANCH   4  26
ATOM     26  O   UNL     1       4.316  -1.856   4.221  0.00  0.00    -0.480 OA
BRANCH  26  27
ATOM     27  C   UNL     1       5.417  -2.344   4.991  0.00  0.00    +0.256 C 
ATOM     28  C   UNL     1       5.317  -1.807   6.420  0.00  0.00    +0.062 C 
BRANCH  27  29
ATOM     29  C   UNL     1       6.709  -1.882   4.370  0.00  0.00    +0.258 C 
ATOM     30  O   UNL     1       6.690  -1.127   3.421  0.00  0.00    -0.271 OA
ATOM     31  N   UNL     1       7.887  -2.307   4.869  0.00  0.00    -0.282 N 
ATOM     32  H   UNL     1       7.902  -2.969   5.578  0.00  0.00    +0.155 HD
BRANCH  31  33
ATOM     33  C   UNL     1       9.087  -1.793   4.366  0.00  0.00    +0.034 A 
ATOM     34  C   UNL     1      10.211  -2.604   4.283  0.00  0.00    +0.023 A 
ATOM     35  C   UNL     1      11.394  -2.093   3.786  0.00  0.00    +0.002 A 
ATOM     36  C   UNL     1      11.460  -0.776   3.371  0.00  0.00    +0.003 A 
ATOM     37  C   UNL     1      10.342   0.035   3.452  0.00  0.00    -0.049 A 
ATOM     38  C   UNL     1       9.155  -0.472   3.943  0.00  0.00    +0.026 A 
ATOM     39  C   UNL     1      10.419   1.470   3.000  0.00  0.00    +0.044 C 
ENDBRANCH  31  33
ENDBRANCH  27  29
ENDBRANCH  26  27
ENDBRANCH   4  26
TORSDOF 6
