REMARK  Name = ZINC41084466
REMARK  4 active torsions:
REMARK  status: ('A' for Active; 'I' for Inactive)
REMARK    1  A    between atoms: C_1  and  C_2
REMARK    2  A    between atoms: C_5  and  C_8
REMARK    3  A    between atoms: C_8  and  N_9
REMARK    4  A    between atoms: C_11  and  C_18
REMARK                            x       y       z     vdW  Elec       q    Type
REMARK                         _______ _______ _______ _____ _____    ______ ____
ROOT
ATOM      1  C   UNL     1       4.439  -5.895  -1.669  0.00  0.00    +0.026 C 
ATOM      2  C   UNL     1       4.125  -6.612  -2.809  0.00  0.00    +0.081 C 
ATOM      3  C   UNL     1       5.179  -7.174  -3.696  0.00  0.00    +0.153 C 
ATOM      4  N   UNL     1       6.334  -7.604  -3.256  0.00  0.00    -0.283 NA
ATOM      5  N   UNL     1       4.812  -7.197  -5.057  0.00  0.00    -0.150 N 
ATOM      6  C   UNL     1       3.468  -7.198  -5.353  0.00  0.00    +0.182 C 
ATOM      7  N   UNL     1       2.467  -7.082  -4.517  0.00  0.00    -0.152 NA
ATOM      8  C   UNL     1       2.722  -6.867  -3.208  0.00  0.00    +0.273 C 
ATOM      9  O   UNL     1       1.824  -6.878  -2.380  0.00  0.00    -0.268 OA
ATOM     10  S   UNL     1       3.472  -7.369  -7.118  0.00  0.00    -0.018 S 
ATOM     11  C   UNL     1       5.244  -7.327  -7.354  0.00  0.00    +0.182 C 
ATOM     12  N   UNL     1       5.684  -7.230  -6.124  0.00  0.00    -0.149 NA
ATOM     13  N   UNL     1       5.966  -7.382  -8.535  0.00  0.00    -0.304 N 
ATOM     14  C   UNL     1       7.437  -7.340  -8.526  0.00  0.00    +0.135 C 
ATOM     15  C   UNL     1       7.959  -8.506  -9.373  0.00  0.00    +0.179 C 
ATOM     16  O   UNL     1       7.330  -8.474 -10.657  0.00  0.00    -0.377 OA
ATOM     17  C   UNL     1       5.912  -8.645 -10.618  0.00  0.00    +0.179 C 
ATOM     18  C   UNL     1       5.285  -7.491  -9.835  0.00  0.00    +0.135 C 
ATOM     19  H   UNL     1       6.987  -7.962  -3.877  0.00  0.00    +0.188 HD
ENDROOT
BRANCH   1  22
ATOM     20  N   UNL     1       1.553  -4.115  -0.462  0.00  0.00    -0.342 N 
ATOM     21  C   UNL     1       2.288  -4.636  -1.464  0.00  0.00    +0.095 A 
ATOM     22  C   UNL     1       3.419  -5.236  -0.945  0.00  0.00    +0.001 A 
ATOM     23  C   UNL     1       3.347  -5.052   0.519  0.00  0.00    +0.007 A 
ATOM     24  C   UNL     1       2.161  -4.340   0.758  0.00  0.00    +0.050 A 
ATOM     25  C   UNL     1       1.818  -4.008   2.064  0.00  0.00    +0.026 A 
ATOM     26  C   UNL     1       2.641  -4.376   3.107  0.00  0.00    +0.002 A 
ATOM     27  C   UNL     1       3.814  -5.076   2.867  0.00  0.00    +0.001 A 
ATOM     28  C   UNL     1       4.167  -5.421   1.580  0.00  0.00    +0.010 A 
BRANCH  20  29
ATOM     29  C   UNL     1       0.286  -3.402  -0.641  0.00  0.00    +0.157 C 
BRANCH  29  34
ATOM     30  C   UNL     1       1.288   2.283  -0.892  0.00  0.00    +0.044 C 
ATOM     31  C   UNL     1       1.027   0.801  -0.827  0.00  0.00    -0.050 A 
ATOM     32  C   UNL     1       1.035   0.046  -1.985  0.00  0.00    +0.004 A 
ATOM     33  C   UNL     1       0.795  -1.314  -1.925  0.00  0.00    +0.005 A 
ATOM     34  C   UNL     1       0.548  -1.920  -0.707  0.00  0.00    -0.028 A 
ATOM     35  C   UNL     1       0.542  -1.165   0.451  0.00  0.00    +0.005 A 
ATOM     36  C   UNL     1       0.786   0.195   0.392  0.00  0.00    +0.004 A 
ENDBRANCH  29  34
ENDBRANCH  20  29
ENDBRANCH   1  22
TORSDOF 3
