REMARK  Name = ZINC33553003
REMARK  9 active torsions:
REMARK  status: ('A' for Active; 'I' for Inactive)
REMARK    1  A    between atoms: C_1  and  C_2
REMARK    2  A    between atoms: C_2  and  C_3
REMARK    3  A    between atoms: C_2  and  C_4
REMARK    4  A    between atoms: C_2  and  N_5
REMARK    5  A    between atoms: C_10  and  C_29
REMARK    6  A    between atoms: C_13  and  C_18
REMARK    7  A    between atoms: C_13  and  C_26
REMARK    8  A    between atoms: C_18  and  C_19
REMARK    9  A    between atoms: C_22  and  O_25
REMARK                            x       y       z     vdW  Elec       q    Type
REMARK                         _______ _______ _______ _____ _____    ______ ____
ROOT
ATOM      1  N   UNL     1      -3.827   1.971   2.617  0.00  0.00    -0.236 N 
ATOM      2  C   UNL     1      -2.883   1.243   1.948  0.00  0.00    +0.225 C 
ATOM      3  O   UNL     1      -2.858   0.040   1.799  0.00  0.00    -0.275 OA
ATOM      4  C   UNL     1      -1.885   2.234   1.437  0.00  0.00    +0.077 C 
ATOM      5  C   UNL     1      -1.330   2.140   0.020  0.00  0.00    -0.026 C 
ATOM      6  N   UNL     1      -1.133   3.577  -0.364  0.00  0.00    +0.396 N 
ATOM      7  C   UNL     1      -2.102   4.394   0.443  0.00  0.00    +0.052 C 
ATOM      8  C   UNL     1      -2.910   3.402   1.167  0.00  0.00    +0.086 C 
ATOM      9  C   UNL     1      -3.769   3.311   2.325  0.00  0.00    +0.225 C 
ATOM     10  O   UNL     1      -4.317   4.219   2.912  0.00  0.00    -0.275 OA
ATOM     11  H   UNL     1      -0.098   3.877  -0.141  0.00  0.00    -0.083 HD
ATOM     12  H   UNL     1      -1.327   3.699  -1.439  0.00  0.00    -0.083 HD
ENDROOT
BRANCH   5  13
ATOM     13  C   UNL     1      -0.017   1.401   0.010  0.00  0.00    -0.053 A 
ATOM     14  C   UNL     1       0.666   1.204   1.170  0.00  0.00    +0.002 A 
ATOM     15  C   UNL     1       1.885   0.527   1.180  0.00  0.00    +0.001 A 
ATOM     16  C   UNL     1       2.426   0.044   0.029  0.00  0.00    +0.008 A 
ATOM     17  C   UNL     1       1.750   0.228  -1.189  0.00  0.00    -0.018 A 
ATOM     18  C   UNL     1       0.511   0.916  -1.199  0.00  0.00    -0.016 A 
ATOM     19  C   UNL     1      -0.165   1.100  -2.417  0.00  0.00    +0.009 A 
ATOM     20  C   UNL     1       0.377   0.617  -3.568  0.00  0.00    +0.001 A 
ATOM     21  C   UNL     1       1.596  -0.060  -3.558  0.00  0.00    +0.001 A 
ATOM     22  C   UNL     1       2.279  -0.257  -2.398  0.00  0.00    +0.008 A 
ENDBRANCH   5  13
BRANCH   1  24
ATOM     23  C   UNL     1      -4.573  -0.128   3.628  0.00  0.00    +0.031 C 
ATOM     24  C   UNL     1      -4.797   1.384   3.544  0.00  0.00    +0.036 C 
ATOM     25  C   UNL     1      -4.616   2.003   4.932  0.00  0.00    +0.031 C 
ATOM     26  C   UNL     1      -6.215   1.662   3.043  0.00  0.00    +0.031 C 
ENDBRANCH   1  24
BRANCH   7  27
ATOM     27  C   UNL     1      -2.975   5.218  -0.469  0.00  0.00    +0.347 C 
ATOM     28  O   UNL     1      -4.151   5.350  -0.223  0.00  0.00    -0.248 OA
ATOM     29  O   UNL     1      -2.446   5.806  -1.554  0.00  0.00    -0.248 OA
ENDBRANCH   7  27
BRANCH   7  30
ATOM     30  C   UNL     1      -1.357   5.298   1.427  0.00  0.00    +0.035 C 
BRANCH  30  31
ATOM     31  C   UNL     1      -0.538   6.305   0.663  0.00  0.00    -0.048 A 
ATOM     32  C   UNL     1       0.767   6.010   0.313  0.00  0.00    +0.007 A 
ATOM     33  C   UNL     1       1.519   6.930  -0.393  0.00  0.00    +0.045 A 
ATOM     34  C   UNL     1       0.968   8.155  -0.739  0.00  0.00    +0.117 A 
ATOM     35  C   UNL     1      -0.340   8.451  -0.382  0.00  0.00    +0.045 A 
ATOM     36  C   UNL     1      -1.090   7.525   0.318  0.00  0.00    +0.007 A 
BRANCH  34  37
ATOM     37  O   UNL     1       1.707   9.064  -1.428  0.00  0.00    -0.507 OA
ATOM     38  H   UNL     1       1.269  10.035  -1.702  0.00  0.00    +0.292 HD
ENDBRANCH  34  37
ENDBRANCH  30  31
ENDBRANCH   7  30
TORSDOF 6
