REMARK  Name = ZINC13013560
REMARK  11 active torsions:
REMARK  status: ('A' for Active; 'I' for Inactive)
REMARK    1  A    between atoms: C_1  and  C_2
REMARK    2  A    between atoms: C_2  and  C_4
REMARK    3  A    between atoms: C_2  and  N_6
REMARK    4  A    between atoms: N_6  and  S_7
REMARK    5  A    between atoms: S_7  and  C_10
REMARK    6  A    between atoms: C_13  and  C_16
REMARK    7  A    between atoms: C_16  and  C_33
REMARK    8  A    between atoms: N_17  and  N_18
REMARK    9  A    between atoms: C_19  and  C_21
REMARK   10  A    between atoms: C_22  and  N_32
REMARK   11  A    between atoms: C_24  and  C_26
REMARK                            x       y       z     vdW  Elec       q    Type
REMARK                         _______ _______ _______ _____ _____    ______ ____
ROOT
ATOM      1  C   UNL     1      -4.691   2.535   0.040  0.00  0.00    +0.063 C 
ATOM      2  N   UNL     1      -3.487   3.018   0.036  0.00  0.00    -0.184 NA
ATOM      3  C   UNL     1      -4.905   1.043   0.034  0.00  0.00    +0.068 C 
ENDROOT
BRANCH   1   7
ATOM      4  C   UNL     1      -8.029   5.156   0.070  0.00  0.00    +0.105 A 
ATOM      5  C   UNL     1      -6.746   5.675   0.067  0.00  0.00    +0.029 A 
ATOM      6  C   UNL     1      -5.657   4.829   0.057  0.00  0.00    +0.011 A 
ATOM      7  C   UNL     1      -5.851   3.446   0.051  0.00  0.00    -0.002 A 
ATOM      8  C   UNL     1      -7.149   2.929   0.049  0.00  0.00    +0.011 A 
ATOM      9  C   UNL     1      -8.229   3.787   0.065  0.00  0.00    +0.029 A 
BRANCH   4  10
ATOM     10  S   UNL     1      -9.415   6.245   0.083  0.00  0.00    +0.059 S 
ATOM     11  O   UNL     1     -10.501   5.513   0.636  0.00  0.00    -0.153 OA
ATOM     12  O   UNL     1      -8.962   7.472   0.638  0.00  0.00    -0.153 OA
BRANCH  10  13
ATOM     13  N   UNL     1      -9.808   6.555  -1.495  0.00  0.00    -0.176 NA
ATOM     14  H   UNL     1      -9.719   7.454  -1.849  0.00  0.00    +0.149 HD
BRANCH  13  16
ATOM     15  C   UNL     1     -11.820   5.466  -2.358  0.00  0.00    +0.038 C 
ATOM     16  C   UNL     1     -10.290   5.473  -2.356  0.00  0.00    +0.186 C 
BRANCH  16  17
ATOM     17  C   UNL     1      -9.787   5.686  -3.761  0.00  0.00    +0.374 C 
ATOM     18  O   UNL     1      -9.097   6.644  -4.016  0.00  0.00    -0.245 OA
ATOM     19  O   UNL     1     -10.106   4.812  -4.728  0.00  0.00    -0.245 OA
ENDBRANCH  16  17
ENDBRANCH  13  16
ENDBRANCH  10  13
ENDBRANCH   4  10
ENDBRANCH   1   7
BRANCH   2  20
ATOM     20  N   UNL     1      -2.385   2.152   0.026  0.00  0.00    -0.202 N 
ATOM     21  C   UNL     1      -1.134   2.654   0.022  0.00  0.00    +0.272 C 
ATOM     22  O   UNL     1      -0.962   3.860   0.027  0.00  0.00    -0.268 OA
ATOM     23  H   UNL     1      -2.523   1.192   0.022  0.00  0.00    +0.178 HD
BRANCH  21  24
ATOM     24  C   UNL     1      -0.022   1.781   0.012  0.00  0.00    +0.097 A 
ATOM     25  C   UNL     1       1.338   2.093   0.001  0.00  0.00    +0.045 A 
ATOM     26  C   UNL     1       2.244   1.060  -0.014  0.00  0.00    +0.039 A 
ATOM     27  C   UNL     1       1.771  -0.239  -0.016  0.00  0.00    +0.022 A 
ATOM     28  S   UNL     1       0.002  -0.004   0.002  0.00  0.00    -0.082 S 
BRANCH  27  29
ATOM     29  C   UNL     1       2.537  -1.504  -0.030  0.00  0.00    -0.011 A 
ATOM     30  C   UNL     1       3.933  -1.477  -0.048  0.00  0.00    +0.009 A 
ATOM     31  C   UNL     1       4.642  -2.661  -0.056  0.00  0.00    +0.001 A 
ATOM     32  C   UNL     1       3.972  -3.872  -0.056  0.00  0.00    +0.000 A 
ATOM     33  C   UNL     1       2.589  -3.905  -0.043  0.00  0.00    +0.001 A 
ATOM     34  C   UNL     1       1.868  -2.729  -0.030  0.00  0.00    +0.009 A 
ENDBRANCH  27  29
BRANCH  25  35
ATOM     35  N   UNL     1       1.767   3.418   0.003  0.00  0.00    -0.357 N 
ATOM     36  H   UNL     1       1.117   4.138   0.013  0.00  0.00    +0.142 HD
ATOM     37  H   UNL     1       2.715   3.621  -0.005  0.00  0.00    +0.142 HD
ENDBRANCH  25  35
ENDBRANCH  21  24
ENDBRANCH   2  20
TORSDOF 9
