REMARK  Name = ZINC19794895
REMARK  12 active torsions:
REMARK  status: ('A' for Active; 'I' for Inactive)
REMARK    1  A    between atoms: C_1  and  C_2
REMARK    2  A    between atoms: C_5  and  O_12
REMARK    3  A    between atoms: C_8  and  C_10
REMARK    4  A    between atoms: C_8  and  C_11
REMARK    5  A    between atoms: O_12  and  C_13
REMARK    6  A    between atoms: C_13  and  C_14
REMARK    7  A    between atoms: C_14  and  C_16
REMARK    8  A    between atoms: C_14  and  O_40
REMARK    9  A    between atoms: C_16  and  N_17
REMARK   10  A    between atoms: N_20  and  C_23
REMARK   11  A    between atoms: C_23  and  C_24
REMARK   12  A    between atoms: C_24  and  N_25
REMARK                            x       y       z     vdW  Elec       q    Type
REMARK                         _______ _______ _______ _____ _____    ______ ____
ROOT
ATOM      1  N   UNL     1      -4.556  -3.870   1.413  0.00  0.00    -0.303 NA
ATOM      2  C   UNL     1      -5.398  -2.899   2.126  0.00  0.00    +0.066 C 
ATOM      3  C   UNL     1      -6.866  -3.313   2.002  0.00  0.00    -0.063 C 
ATOM      4  N   UNL     1      -7.041  -4.663   2.555  0.00  0.00    +0.382 N 
ATOM      5  C   UNL     1      -6.199  -5.634   1.842  0.00  0.00    -0.063 C 
ATOM      6  C   UNL     1      -4.731  -5.221   1.966  0.00  0.00    +0.066 C 
ATOM      7  H   UNL     1      -6.720  -4.643   3.607  0.00  0.00    -0.082 HD
ENDROOT
BRANCH   1   8
ATOM      8  C   UNL     1      -3.144  -3.467   1.444  0.00  0.00    +0.117 C 
BRANCH   8   9
ATOM      9  C   UNL     1      -2.965  -2.176   0.642  0.00  0.00    +0.154 C 
BRANCH   9  10
ATOM     10  O   UNL     1      -3.367  -2.397  -0.711  0.00  0.00    -0.388 OA
ATOM     11  H   UNL     1      -4.398  -2.707  -0.935  0.00  0.00    +0.210 HD
ENDBRANCH   9  10
BRANCH   9  12
ATOM     12  C   UNL     1      -1.494  -1.756   0.676  0.00  0.00    +0.192 C 
BRANCH  12  13
ATOM     13  O   UNL     1      -1.345  -0.492   0.026  0.00  0.00    -0.374 OA
BRANCH  13  17
ATOM     14  C   UNL     1       3.006  -0.769  -0.377  0.00  0.00    +0.007 C 
ATOM     15  C   UNL     1       2.120   0.016  -1.343  0.00  0.00    -0.011 C 
ATOM     16  C   UNL     1       0.683  -0.482  -1.279  0.00  0.00    +0.035 C 
ATOM     17  C   UNL     1       0.002  -0.004   0.002  0.00  0.00    +0.119 C 
ATOM     18  C   UNL     1      -0.019   1.523   0.010  0.00  0.00    +0.038 C 
ATOM     19  C   UNL     1       1.399   2.084  -0.000  0.00  0.00    -0.032 C 
ATOM     20  C   UNL     1       2.241   1.511  -1.126  0.00  0.00    +0.009 C 
ATOM     21  C   UNL     1       1.298   3.611  -0.209  0.00  0.00    +0.011 C 
ATOM     22  C   UNL     1       2.065   1.850   1.359  0.00  0.00    +0.011 C 
ENDBRANCH  13  17
ENDBRANCH  12  13
ENDBRANCH   9  12
ENDBRANCH   8   9
ENDBRANCH   1   8
BRANCH   4  23
ATOM     23  C   UNL     1      -8.453  -5.067   2.523  0.00  0.00    -0.059 C 
BRANCH  23  24
ATOM     24  C   UNL     1      -9.258  -4.180   3.475  0.00  0.00    +0.098 C 
BRANCH  24  25
ATOM     25  N   UNL     1     -10.667  -4.582   3.443  0.00  0.00    -0.236 N 
ATOM     26  C   UNL     1     -11.489  -3.994   2.554  0.00  0.00    +0.254 C 
ATOM     27  O   UNL     1     -11.056  -3.145   1.799  0.00  0.00    -0.270 OA
ATOM     28  C   UNL     1     -12.908  -4.375   2.489  0.00  0.00    +0.046 A 
ATOM     29  C   UNL     1     -13.789  -3.797   1.587  0.00  0.00    +0.014 A 
ATOM     30  C   UNL     1     -15.123  -4.188   1.567  0.00  0.00    +0.001 A 
ATOM     31  C   UNL     1     -15.604  -5.137   2.422  0.00  0.00    +0.008 A 
ATOM     32  C   UNL     1     -14.743  -5.747   3.352  0.00  0.00    -0.016 A 
ATOM     33  C   UNL     1     -13.387  -5.360   3.382  0.00  0.00    +0.006 A 
ATOM     34  C   UNL     1     -12.498  -5.954   4.306  0.00  0.00    +0.046 A 
ATOM     35  C   UNL     1     -12.978  -6.919   5.178  0.00  0.00    +0.014 A 
ATOM     36  C   UNL     1     -14.316  -7.292   5.139  0.00  0.00    +0.001 A 
ATOM     37  C   UNL     1     -15.190  -6.729   4.253  0.00  0.00    +0.008 A 
ATOM     38  C   UNL     1     -11.092  -5.523   4.308  0.00  0.00    +0.254 C 
ATOM     39  O   UNL     1     -10.308  -6.021   5.094  0.00  0.00    -0.270 OA
ENDBRANCH  24  25
ENDBRANCH  23  24
ENDBRANCH   4  23
TORSDOF 9
