REMARK  Name = ZINC09807615
REMARK  9 active torsions:
REMARK  status: ('A' for Active; 'I' for Inactive)
REMARK    1  A    between atoms: C_1  and  C_2
REMARK    2  A    between atoms: C_2  and  O_3
REMARK    3  A    between atoms: O_3  and  C_4
REMARK    4  A    between atoms: C_4  and  C_6
REMARK    5  A    between atoms: N_9  and  C_12
REMARK    6  A    between atoms: C_12  and  C_14
REMARK    7  A    between atoms: C_12  and  C_21
REMARK    8  A    between atoms: C_22  and  O_34
REMARK    9  A    between atoms: C_27  and  C_29
REMARK                            x       y       z     vdW  Elec       q    Type
REMARK                         _______ _______ _______ _____ _____    ______ ____
ROOT
ATOM      1  C   UNL     1       1.887  -4.596  -6.149  0.00  0.00    +0.007 C 
ENDROOT
BRANCH   1   2
ATOM      2  C   UNL     1       1.102  -4.138  -7.350  0.00  0.00    +0.045 A 
ATOM      3  C   UNL     1       1.538  -3.545  -8.468  0.00  0.00    +0.225 A 
ATOM      4  N   UNL     1       0.660  -3.198  -9.466  0.00  0.00    -0.173 N 
ATOM      5  C   UNL     1      -0.661  -3.484  -9.261  0.00  0.00    +0.199 A 
ATOM      6  S   UNL     1      -0.654  -4.251  -7.658  0.00  0.00    -0.050 S 
ATOM      7  N   UNL     1      -1.361  -3.096 -10.290  0.00  0.00    -0.197 NA
ATOM      8  C   UNL     1      -0.543  -2.548 -11.200  0.00  0.00    +0.218 A 
ATOM      9  N   UNL     1       0.691  -2.586 -10.746  0.00  0.00    -0.138 NA
BRANCH   8  10
ATOM     10  C   UNL     1      -0.961  -1.990 -12.503  0.00  0.00    +0.173 A 
ATOM     11  C   UNL     1      -2.233  -1.940 -12.978  0.00  0.00    +0.053 A 
ATOM     12  C   UNL     1      -2.169  -1.331 -14.248  0.00  0.00    +0.042 A 
ATOM     13  C   UNL     1      -0.874  -1.043 -14.482  0.00  0.00    +0.196 A 
ATOM     14  O   UNL     1      -0.147  -1.437 -13.423  0.00  0.00    -0.460 OA
ENDBRANCH   8  10
BRANCH   3  15
ATOM     15  O   UNL     1       2.865  -3.284  -8.617  0.00  0.00    -0.492 OA
ATOM     16  H   UNL     1       3.089  -2.855  -9.454  0.00  0.00    +0.294 HD
ENDBRANCH   3  15
ENDBRANCH   1   2
BRANCH   1  20
ATOM     17  C   UNL     1       1.468  -2.353  -2.550  0.00  0.00    +0.094 C 
ATOM     18  C   UNL     1       0.736  -1.893  -3.814  0.00  0.00    -0.004 C 
ATOM     19  C   UNL     1       1.396  -2.529  -5.039  0.00  0.00    -0.077 C 
ATOM     20  N   UNL     1       1.323  -3.992  -4.935  0.00  0.00    +0.388 N 
ATOM     21  C   UNL     1       2.084  -4.446  -3.764  0.00  0.00    -0.077 C 
ATOM     22  C   UNL     1       1.450  -3.884  -2.490  0.00  0.00    -0.004 C 
ATOM     23  H   UNL     1       0.359  -4.273  -4.838  0.00  0.00    -0.080 HD
BRANCH  17  24
ATOM     24  C   UNL     1       0.775  -1.794  -1.334  0.00  0.00    +0.310 C 
ATOM     25  O   UNL     1       0.314  -2.540  -0.504  0.00  0.00    -0.251 OA
BRANCH  24  26
ATOM     26  O   UNL     1       0.671  -0.465  -1.174  0.00  0.00    -0.465 OA
BRANCH  26  28
ATOM     27  C   UNL     1      -0.019   1.526   0.010  0.00  0.00    +0.048 C 
ATOM     28  C   UNL     1       0.002  -0.004   0.002  0.00  0.00    +0.229 C 
ENDBRANCH  26  28
ENDBRANCH  24  26
ENDBRANCH  17  24
ENDBRANCH   1  20
BRANCH   1  29
ATOM     29  C   UNL     1       1.813  -6.098  -6.043  0.00  0.00    -0.038 A 
ATOM     30  C   UNL     1       0.858  -6.688  -5.237  0.00  0.00    +0.004 A 
ATOM     31  C   UNL     1       0.790  -8.065  -5.140  0.00  0.00    +0.000 A 
ATOM     32  C   UNL     1       1.678  -8.853  -5.849  0.00  0.00    +0.001 A 
ATOM     33  C   UNL     1       2.634  -8.264  -6.654  0.00  0.00    +0.020 A 
ATOM     34  C   UNL     1       2.699  -6.886  -6.756  0.00  0.00    +0.043 A 
ATOM     35 CL   UNL     1       3.895  -6.146  -7.773  0.00  0.00    -0.083 Cl
ENDBRANCH   1  29
TORSDOF 8
