REMARK  Name = ZINC01133778
REMARK  7 active torsions:
REMARK  status: ('A' for Active; 'I' for Inactive)
REMARK    1  A    between atoms: C_4  and  S_7
REMARK    2  A    between atoms: S_7  and  N_10
REMARK    3  A    between atoms: N_10  and  C_11
REMARK    4  A    between atoms: N_10  and  C_24
REMARK    5  A    between atoms: C_11  and  C_12
REMARK    6  A    between atoms: N_14  and  C_15
REMARK    7  A    between atoms: C_19  and  N_21
REMARK                            x       y       z     vdW  Elec       q    Type
REMARK                         _______ _______ _______ _____ _____    ______ ____
ROOT
ATOM      1  N   UNL     1      -8.487   1.940   0.339  0.00  0.00    -0.194 N 
ENDROOT
BRANCH   1   2
ATOM      2  C   UNL     1      -8.957   2.478   1.540  0.00  0.00    +0.053 A 
ATOM      3  C   UNL     1     -10.240   3.006   1.611  0.00  0.00    +0.026 A 
ATOM      4  C   UNL     1     -10.705   3.532   2.800  0.00  0.00    +0.023 A 
ATOM      5  C   UNL     1      -9.890   3.545   3.918  0.00  0.00    +0.059 A 
ATOM      6  C   UNL     1      -8.608   3.025   3.849  0.00  0.00    +0.061 A 
ATOM      7  C   UNL     1      -8.140   2.492   2.663  0.00  0.00    +0.046 A 
ATOM      8 CL   UNL     1      -7.588   3.042   5.254  0.00  0.00    -0.082 Cl
ATOM      9 CL   UNL     1     -10.475   4.213   5.410  0.00  0.00    -0.082 Cl
ENDBRANCH   1   2
BRANCH   1  10
ATOM     10  S   UNL     1      -9.112   2.462  -1.103  0.00  0.00    +0.075 S 
ATOM     11  O   UNL     1      -9.571   3.790  -0.890  0.00  0.00    -0.150 OA
ATOM     12  O   UNL     1      -8.155   2.138  -2.102  0.00  0.00    -0.150 OA
BRANCH  10  16
ATOM     13  C   UNL     1     -12.778  -0.052  -1.961  0.00  0.00    +0.000 A 
ATOM     14  C   UNL     1     -12.915   1.194  -1.379  0.00  0.00    +0.002 A 
ATOM     15  C   UNL     1     -11.796   1.962  -1.117  0.00  0.00    +0.029 A 
ATOM     16  C   UNL     1     -10.539   1.483  -1.437  0.00  0.00    +0.109 A 
ATOM     17  C   UNL     1     -10.402   0.239  -2.024  0.00  0.00    +0.029 A 
ATOM     18  C   UNL     1     -11.521  -0.531  -2.281  0.00  0.00    +0.002 A 
ENDBRANCH  10  16
ENDBRANCH   1  10
BRANCH   1  19
ATOM     19  C   UNL     1      -7.441   0.914   0.355  0.00  0.00    +0.227 C 
BRANCH  19  20
ATOM     20  C   UNL     1      -6.089   1.576   0.420  0.00  0.00    +0.236 C 
ATOM     21  O   UNL     1      -6.007   2.786   0.450  0.00  0.00    -0.274 OA
ATOM     22  N   UNL     1      -4.971   0.824   0.446  0.00  0.00    -0.284 N 
ATOM     23  H   UNL     1      -5.032  -0.139   0.351  0.00  0.00    +0.155 HD
BRANCH  22  24
ATOM     24  C   UNL     1      -3.722   1.433   0.609  0.00  0.00    +0.036 A 
ATOM     25  C   UNL     1      -3.476   2.679   0.046  0.00  0.00    +0.023 A 
ATOM     26  C   UNL     1      -2.243   3.277   0.210  0.00  0.00    +0.004 A 
ATOM     27  C   UNL     1      -1.254   2.640   0.937  0.00  0.00    +0.033 A 
ATOM     28  C   UNL     1      -1.493   1.397   1.493  0.00  0.00    +0.128 A 
ATOM     29  C   UNL     1      -2.725   0.793   1.333  0.00  0.00    +0.056 A 
BRANCH  28  30
ATOM     30  N   UNL     1      -0.430   0.715   2.265  0.00  0.00    +0.056 N 
ATOM     31  O   UNL     1      -0.642  -0.378   2.760  0.00  0.00    -0.126 OA
ATOM     32  O   UNL     1       0.658   1.245   2.402  0.00  0.00    -0.126 OA
ENDBRANCH  28  30
ENDBRANCH  22  24
ENDBRANCH  19  20
ENDBRANCH   1  19
TORSDOF 7
