REMARK  Name = ZINC16525918
REMARK  10 active torsions:
REMARK  status: ('A' for Active; 'I' for Inactive)
REMARK    1  A    between atoms: C_9  and  O_25
REMARK    2  A    between atoms: C_10  and  C_11
REMARK    3  A    between atoms: C_11  and  N_56
REMARK    4  A    between atoms: C_12  and  C_13
REMARK    5  A    between atoms: C_12  and  N_56
REMARK    6  A    between atoms: C_13  and  N_14
REMARK    7  A    between atoms: N_14  and  C_15
REMARK    8  A    between atoms: C_18  and  N_22
REMARK    9  A    between atoms: O_25  and  C_26
REMARK   10  A    between atoms: C_26  and  C_27
REMARK                            x       y       z     vdW  Elec       q    Type
REMARK                         _______ _______ _______ _____ _____    ______ ____
ROOT
ATOM      1  C   UNL     1      -0.013   1.076   0.008  0.00  0.00    +0.001 A 
ATOM      2  C   UNL     1      -1.235   1.746   0.017  0.00  0.00    +0.001 A 
ATOM      3  C   UNL     1      -1.288   3.105   0.030  0.00  0.00    +0.009 A 
ATOM      4  C   UNL     1      -0.095   3.849   0.023  0.00  0.00    -0.013 A 
ATOM      5  C   UNL     1       1.148   3.167   0.008  0.00  0.00    -0.017 A 
ATOM      6  C   UNL     1       1.163   1.762   0.000  0.00  0.00    +0.008 A 
ATOM      7  C   UNL     1       2.342   3.909  -0.000  0.00  0.00    +0.012 A 
ATOM      8  C   UNL     1       2.292   5.268   0.006  0.00  0.00    +0.046 A 
ATOM      9  C   UNL     1       1.067   5.942   0.021  0.00  0.00    +0.123 A 
ATOM     10  C   UNL     1      -0.112   5.253   0.029  0.00  0.00    -0.015 A 
ENDROOT
BRANCH  10  11
ATOM     11  C   UNL     1      -1.423   5.995   0.046  0.00  0.00    -0.042 C 
BRANCH  11  12
ATOM     12  N   UNL     1      -1.830   6.226   1.445  0.00  0.00    +0.383 N 
ATOM     13  H   UNL     1      -1.109   6.782   1.920  0.00  0.00    -0.085 HD
ATOM     14  H   UNL     1      -1.935   5.323   1.921  0.00  0.00    -0.085 HD
BRANCH  12  15
ATOM     15  C   UNL     1      -3.113   6.953   1.491  0.00  0.00    -0.063 C 
BRANCH  15  16
ATOM     16  C   UNL     1      -3.509   7.178   2.952  0.00  0.00    +0.082 C 
BRANCH  16  17
ATOM     17  N   UNL     1      -4.783   7.899   3.007  0.00  0.00    -0.345 N 
ATOM     18  H   UNL     1      -5.233   8.153   2.186  0.00  0.00    +0.146 HD
BRANCH  17  19
ATOM     19  C   UNL     1      -5.351   8.221   4.243  0.00  0.00    +0.046 A 
ATOM     20  C   UNL     1      -4.708   7.859   5.420  0.00  0.00    +0.026 A 
ATOM     21  C   UNL     1      -5.272   8.179   6.639  0.00  0.00    +0.034 A 
ATOM     22  C   UNL     1      -6.475   8.860   6.690  0.00  0.00    +0.128 A 
ATOM     23  C   UNL     1      -7.118   9.222   5.521  0.00  0.00    +0.054 A 
ATOM     24  C   UNL     1      -6.557   8.910   4.297  0.00  0.00    +0.064 A 
ATOM     25 CL   UNL     1      -7.360   9.373   2.829  0.00  0.00    -0.082 Cl
BRANCH  22  26
ATOM     26  N   UNL     1      -7.075   9.201   7.999  0.00  0.00    +0.056 N 
ATOM     27  O   UNL     1      -6.510   8.882   9.030  0.00  0.00    -0.126 OA
ATOM     28  O   UNL     1      -8.134   9.800   8.046  0.00  0.00    -0.126 OA
ENDBRANCH  22  26
ENDBRANCH  17  19
ENDBRANCH  16  17
ENDBRANCH  15  16
ENDBRANCH  12  15
ENDBRANCH  11  12
ENDBRANCH  10  11
BRANCH   9  29
ATOM     29  O   UNL     1       1.050   7.301   0.028  0.00  0.00    -0.487 OA
BRANCH  29  30
ATOM     30  C   UNL     1       2.315   7.966   0.019  0.00  0.00    +0.264 C 
BRANCH  30  31
ATOM     31  C   UNL     1       2.098   9.457   0.029  0.00  0.00    -0.010 A 
ATOM     32  C   UNL     1       1.993  10.148  -1.164  0.00  0.00    +0.010 A 
ATOM     33  C   UNL     1       1.789  11.514  -1.157  0.00  0.00    +0.039 A 
ATOM     34  C   UNL     1       1.701  12.194   0.046  0.00  0.00    +0.123 A 
ATOM     35  C   UNL     1       1.812  11.502   1.241  0.00  0.00    +0.039 A 
ATOM     36  C   UNL     1       2.010  10.135   1.231  0.00  0.00    +0.010 A 
ATOM     37  F   UNL     1       1.507  13.531   0.055  0.00  0.00    -0.205 F 
ENDBRANCH  30  31
ENDBRANCH  29  30
ENDBRANCH   9  29
TORSDOF 10
