REMARK  Name = ZINC59890950
REMARK  10 active torsions:
REMARK  status: ('A' for Active; 'I' for Inactive)
REMARK    1  A    between atoms: C_1  and  C_2
REMARK    2  A    between atoms: C_2  and  C_3
REMARK    3  A    between atoms: C_3  and  C_4
REMARK    4  A    between atoms: C_4  and  C_5
REMARK    5  A    between atoms: C_5  and  C_26
REMARK    6  A    between atoms: N_6  and  N_7
REMARK    7  A    between atoms: C_10  and  S_13
REMARK    8  A    between atoms: S_13  and  C_14
REMARK    9  A    between atoms: C_14  and  C_15
REMARK   10  A    between atoms: N_17  and  C_18
REMARK                            x       y       z     vdW  Elec       q    Type
REMARK                         _______ _______ _______ _____ _____    ______ ____
ROOT
ATOM      1  N   UNL     1      -4.566  -3.779  -0.954  0.00  0.00    -0.205 N 
ATOM      2  C   UNL     1      -5.054  -4.479  -2.043  0.00  0.00    +0.232 A 
ATOM      3  N   UNL     1      -4.387  -4.762  -3.143  0.00  0.00    -0.186 NA
ATOM      4  C   UNL     1      -5.172  -5.451  -3.979  0.00  0.00    +0.211 A 
ATOM      5  N   UNL     1      -6.348  -5.615  -3.422  0.00  0.00    -0.144 NA
ATOM      6  N   UNL     1      -6.294  -4.998  -2.162  0.00  0.00    -0.245 N 
ATOM      7  H   UNL     1      -5.135  -3.623  -0.184  0.00  0.00    +0.177 HD
ATOM      8  H   UNL     1      -7.008  -4.951  -1.508  0.00  0.00    +0.192 HD
ENDROOT
BRANCH   1  10
ATOM      9  C   UNL     1      -2.800  -2.646   0.043  0.00  0.00    +0.034 C 
ATOM     10  N   UNL     1      -3.252  -3.294  -0.965  0.00  0.00    -0.189 NA
ATOM     11  C   UNL     1      -3.683  -2.404   1.240  0.00  0.00    +0.062 C 
BRANCH   9  12
ATOM     12  C   UNL     1      -1.387  -2.125   0.032  0.00  0.00    +0.052 C 
BRANCH  12  13
ATOM     13  C   UNL     1      -1.406  -0.595   0.051  0.00  0.00    +0.006 C 
BRANCH  13  15
ATOM     14  C   UNL     1       0.009   1.463   0.060  0.00  0.00    +0.004 C 
ATOM     15  C   UNL     1       0.029  -0.066   0.040  0.00  0.00    -0.003 C 
ENDBRANCH  13  15
ENDBRANCH  12  13
ENDBRANCH   9  12
ENDBRANCH   1  10
BRANCH   4  16
ATOM     16  S   UNL     1      -4.701  -6.041  -5.571  0.00  0.00    -0.075 S 
BRANCH  16  17
ATOM     17  C   UNL     1      -6.188  -6.880  -6.185  0.00  0.00    +0.173 C 
BRANCH  17  18
ATOM     18  C   UNL     1      -5.918  -7.439  -7.558  0.00  0.00    +0.228 C 
ATOM     19  O   UNL     1      -4.830  -7.287  -8.072  0.00  0.00    -0.275 OA
ATOM     20  N   UNL     1      -6.886  -8.109  -8.215  0.00  0.00    -0.284 N 
ATOM     21  H   UNL     1      -7.733  -8.288  -7.779  0.00  0.00    +0.155 HD
BRANCH  20  22
ATOM     22  C   UNL     1      -6.667  -8.546  -9.527  0.00  0.00    +0.048 A 
ATOM     23  C   UNL     1      -5.403  -8.967  -9.919  0.00  0.00    +0.025 A 
ATOM     24  C   UNL     1      -5.190  -9.398 -11.213  0.00  0.00    +0.017 A 
ATOM     25  C   UNL     1      -6.235  -9.412 -12.120  0.00  0.00    +0.019 A 
ATOM     26  C   UNL     1      -7.496  -8.993 -11.734  0.00  0.00    +0.032 A 
ATOM     27  C   UNL     1      -7.716  -8.566 -10.438  0.00  0.00    +0.040 A 
ATOM     28 BR   UNL     1      -9.441  -8.002  -9.907  0.00  0.00    -0.048 Br
ATOM     29 BR   UNL     1      -5.939 -10.003 -13.892  0.00  0.00    -0.050 Br
ENDBRANCH  20  22
ENDBRANCH  17  18
ENDBRANCH  16  17
ENDBRANCH   4  16
TORSDOF 8
