REMARK  Name = ZINC12492925
REMARK  9 active torsions:
REMARK  status: ('A' for Active; 'I' for Inactive)
REMARK    1  A    between atoms: CB_1  and  CA_2
REMARK    2  A    between atoms: CA_2  and  C_4
REMARK    3  A    between atoms: CA_2  and  N_6
REMARK    4  A    between atoms: C_7  and  CA_9
REMARK    5  A    between atoms: CA_9  and  N_28
REMARK    6  A    between atoms: C_10  and  C_11
REMARK    7  A    between atoms: N_13  and  C_22
REMARK    8  A    between atoms: C_15  and  C_16
REMARK    9  A    between atoms: C_29  and  C_31
REMARK                            x       y       z     vdW  Elec       q    Type
REMARK                         _______ _______ _______ _____ _____    ______ ____
ROOT
ATOM      1  CA  UNL     1       3.296  -3.122  -1.380  0.00  0.00    +0.097 C 
ATOM      2  C   UNL     1       2.166  -2.499  -0.967  0.00  0.00    +0.040 C 
ENDROOT
BRANCH   2   3
ATOM      3  C   UNL     1       0.965  -3.287  -0.659  0.00  0.00    +0.023 A 
ATOM      4  C   UNL     1       0.906  -4.646  -0.418  0.00  0.00    +0.123 A 
ATOM      5  N   UNL     1      -0.382  -4.966  -0.183  0.00  0.00    -0.239 N 
ATOM      6  N   UNL     1      -1.173  -3.817  -0.262  0.00  0.00    -0.166 NA
ATOM      7  C   UNL     1      -0.409  -2.785  -0.542  0.00  0.00    +0.102 A 
BRANCH   7   8
ATOM      8  C   UNL     1      -0.852  -1.381  -0.712  0.00  0.00    +0.021 A 
ATOM      9  C   UNL     1      -2.092  -1.093  -1.292  0.00  0.00    +0.013 A 
ATOM     10  C   UNL     1      -2.459   0.235  -1.429  0.00  0.00    +0.020 A 
ATOM     11  C   UNL     1      -1.596   1.224  -0.993  0.00  0.00    +0.111 A 
ATOM     12  N   UNL     1      -0.432   0.921  -0.450  0.00  0.00    -0.263 NA
ATOM     13  C   UNL     1      -0.040  -0.327  -0.298  0.00  0.00    +0.120 A 
ENDBRANCH   7   8
BRANCH   5  14
ATOM     14  C   UNL     1      -0.854  -6.255   0.097  0.00  0.00    +0.065 A 
ATOM     15  C   UNL     1       0.015  -7.338   0.062  0.00  0.00    +0.028 A 
ATOM     16  C   UNL     1      -0.453  -8.606   0.345  0.00  0.00    +0.002 A 
ATOM     17  C   UNL     1      -1.788  -8.800   0.649  0.00  0.00    +0.000 A 
ATOM     18  C   UNL     1      -2.657  -7.725   0.679  0.00  0.00    +0.002 A 
ATOM     19  C   UNL     1      -2.194  -6.453   0.404  0.00  0.00    +0.028 A 
ENDBRANCH   5  14
ENDBRANCH   2   3
BRANCH   1  21
ATOM     20  N   UNL     1       2.775  -5.021  -2.816  0.00  0.00    -0.297 N 
ATOM     21  C   UNL     1       3.282  -4.562  -1.655  0.00  0.00    +0.259 C 
ATOM     22  O   UNL     1       3.728  -5.343  -0.835  0.00  0.00    -0.269 OA
ATOM     23  H   UNL     1       2.456  -4.397  -3.487  0.00  0.00    +0.150 HD
BRANCH  20  25
ATOM     24  CB  UNL     1       3.986  -6.925  -3.759  0.00  0.00    +0.040 C 
ATOM     25  CA  UNL     1       2.703  -6.463  -3.065  0.00  0.00    +0.183 C 
BRANCH  25  26
ATOM     26  C   UNL     1       1.519  -6.762  -3.948  0.00  0.00    +0.376 C 
ATOM     27  O   UNL     1       1.064  -5.900  -4.661  0.00  0.00    -0.244 OA
ATOM     28  OXT UNL     1       0.970  -7.987  -3.942  0.00  0.00    -0.244 OA
ENDBRANCH  25  26
ENDBRANCH  20  25
ENDBRANCH   1  21
BRANCH   1  29
ATOM     29  N   UNL     1       4.479  -2.389  -1.544  0.00  0.00    -0.277 N 
ATOM     30  C   UNL     1       5.621  -3.020  -1.883  0.00  0.00    +0.248 C 
ATOM     31  O   UNL     1       5.610  -4.212  -2.121  0.00  0.00    -0.270 OA
ATOM     32  H   UNL     1       4.477  -1.428  -1.412  0.00  0.00    +0.155 HD
BRANCH  30  33
ATOM     33  C   UNL     1       6.887  -2.261  -1.967  0.00  0.00    +0.037 A 
ATOM     34  C   UNL     1       6.903  -0.891  -1.701  0.00  0.00    +0.013 A 
ATOM     35  C   UNL     1       8.089  -0.191  -1.776  0.00  0.00    +0.001 A 
ATOM     36  C   UNL     1       9.259  -0.841  -2.125  0.00  0.00    +0.000 A 
ATOM     37  C   UNL     1       9.250  -2.198  -2.396  0.00  0.00    +0.001 A 
ATOM     38  C   UNL     1       8.072  -2.912  -2.319  0.00  0.00    +0.013 A 
ENDBRANCH  30  33
ENDBRANCH   1  29
TORSDOF 8
