REMARK  Name = ZINC11785623
REMARK  10 active torsions:
REMARK  status: ('A' for Active; 'I' for Inactive)
REMARK    1  A    between atoms: C_1  and  C_2
REMARK    2  A    between atoms: C_2  and  C_4
REMARK    3  A    between atoms: C_2  and  N_52
REMARK    4  A    between atoms: C_9  and  C_10
REMARK    5  A    between atoms: C_9  and  N_52
REMARK    6  A    between atoms: C_19  and  C_20
REMARK    7  A    between atoms: C_24  and  O_28
REMARK    8  A    between atoms: C_25  and  O_26
REMARK    9  A    between atoms: O_26  and  C_27
REMARK   10  A    between atoms: O_28  and  C_29
REMARK                            x       y       z     vdW  Elec       q    Type
REMARK                         _______ _______ _______ _____ _____    ______ ____
ROOT
ATOM      1  C   UNL     1       2.316  -0.015  -0.385  0.00  0.00    -0.038 A 
ATOM      2  C   UNL     1       2.422   1.326  -0.166  0.00  0.00    +0.013 A 
ATOM      3  C   UNL     1       1.264   2.035   0.208  0.00  0.00    +0.001 A 
ATOM      4  C   UNL     1       1.303   3.418   0.449  0.00  0.00    +0.011 A 
ATOM      5  C   UNL     1       0.165   4.072   0.809  0.00  0.00    +0.021 A 
ATOM      6  C   UNL     1      -1.042   3.387   0.943  0.00  0.00    +0.043 A 
ATOM      7  C   UNL     1      -1.116   2.045   0.721  0.00  0.00    +0.048 A 
ATOM      8  C   UNL     1       0.038   1.336   0.343  0.00  0.00    +0.073 A 
ATOM      9  N   UNL     1      -0.007   0.020   0.116  0.00  0.00    -0.246 NA
ATOM     10  C   UNL     1       1.074  -0.652  -0.235  0.00  0.00    +0.077 A 
ATOM     11 CL   UNL     1      -2.472   4.256   1.405  0.00  0.00    -0.083 Cl
ENDROOT
BRANCH  10  12
ATOM     12  C   UNL     1       0.973  -2.110  -0.475  0.00  0.00    +0.046 A 
ATOM     13  C   UNL     1       1.770  -2.996   0.251  0.00  0.00    +0.014 A 
ATOM     14  C   UNL     1       1.674  -4.353   0.025  0.00  0.00    +0.004 A 
ATOM     15  C   UNL     1       0.789  -4.843  -0.921  0.00  0.00    +0.049 A 
ATOM     16  C   UNL     1      -0.007  -3.974  -1.648  0.00  0.00    +0.162 A 
ATOM     17  C   UNL     1       0.076  -2.604  -1.426  0.00  0.00    +0.171 A 
BRANCH  17  18
ATOM     18  O   UNL     1      -0.707  -1.749  -2.134  0.00  0.00    -0.491 OA
ATOM     19  C   UNL     1      -0.180  -1.255  -3.367  0.00  0.00    +0.277 C 
ENDBRANCH  17  18
BRANCH  16  20
ATOM     20  O   UNL     1      -0.875  -4.461  -2.575  0.00  0.00    -0.491 OA
ATOM     21  C   UNL     1      -0.912  -5.880  -2.747  0.00  0.00    +0.277 C 
ENDBRANCH  16  20
ENDBRANCH  10  12
BRANCH   1  22
ATOM     22  C   UNL     1       3.530  -0.814  -0.786  0.00  0.00    -0.044 C 
BRANCH  22  23
ATOM     23  N   UNL     1       3.431  -1.157  -2.217  0.00  0.00    +0.386 N 
ATOM     24  H   UNL     1       2.581  -1.712  -2.374  0.00  0.00    -0.085 HD
ATOM     25  H   UNL     1       3.383  -0.294  -2.770  0.00  0.00    -0.085 HD
BRANCH  23  27
ATOM     26  C   UNL     1       5.748  -0.990  -3.009  0.00  0.00    -0.008 C 
ATOM     27  C   UNL     1       4.608  -1.940  -2.638  0.00  0.00    -0.037 C 
BRANCH  27  28
ATOM     28  C   UNL     1       4.242  -2.778  -3.836  0.00  0.00    -0.024 A 
ATOM     29  C   UNL     1       4.598  -4.053  -4.127  0.00  0.00    +0.009 A 
ATOM     30  C   UNL     1       4.138  -4.627  -5.297  0.00  0.00    +0.008 A 
ATOM     31  C   UNL     1       3.345  -3.898  -6.120  0.00  0.00    +0.045 A 
ATOM     32  S   UNL     1       3.221  -2.351  -5.237  0.00  0.00    -0.103 S 
ENDBRANCH  27  28
ENDBRANCH  23  27
ENDBRANCH  22  23
ENDBRANCH   1  22
TORSDOF 7
