REMARK  Name = ZINC00866955
REMARK  9 active torsions:
REMARK  status: ('A' for Active; 'I' for Inactive)
REMARK    1  A    between atoms: C_1  and  C_2
REMARK    2  A    between atoms: C_2  and  C_4
REMARK    3  A    between atoms: C_2  and  O_37
REMARK    4  A    between atoms: C_7  and  N_10
REMARK    5  A    between atoms: C_11  and  C_13
REMARK    6  A    between atoms: C_17  and  C_28
REMARK    7  A    between atoms: C_20  and  C_24
REMARK    8  A    between atoms: C_31  and  O_34
REMARK    9  A    between atoms: O_34  and  C_35
REMARK                            x       y       z     vdW  Elec       q    Type
REMARK                         _______ _______ _______ _____ _____    ______ ____
ROOT
ATOM      1  C   UNL     1      -4.213   0.043   1.506  0.00  0.00    +0.129 C 
ATOM      2  C   UNL     1      -4.098   0.551   0.253  0.00  0.00    +0.109 C 
ATOM      3  C   UNL     1      -2.671   0.735  -0.012  0.00  0.00    +0.154 C 
ATOM      4  N   UNL     1      -2.072   1.212  -1.066  0.00  0.00    -0.259 NA
ATOM      5  C   UNL     1      -0.608   1.325  -1.063  0.00  0.00    +0.139 C 
ATOM      6  C   UNL     1       0.015   0.212  -0.220  0.00  0.00    +0.065 C 
ATOM      7  C   UNL     1      -0.534   0.280   1.214  0.00  0.00    +0.202 C 
ATOM      8  N   UNL     1      -1.996   0.292   1.119  0.00  0.00    -0.224 N 
ATOM      9  N   UNL     1      -2.946  -0.110   2.052  0.00  0.00    -0.256 N 
ATOM     10 CL   UNL     1      -5.402   0.916  -0.834  0.00  0.00    -0.078 Cl
ATOM     11  H   UNL     1      -2.627  -0.475   3.040  0.00  0.00    +0.170 HD
ENDROOT
BRANCH   5  12
ATOM     12  C   UNL     1      -0.099   1.222  -2.478  0.00  0.00    -0.023 A 
ATOM     13  C   UNL     1      -0.649   0.294  -3.343  0.00  0.00    +0.009 A 
ATOM     14  C   UNL     1      -0.188   0.201  -4.642  0.00  0.00    +0.046 A 
ATOM     15  C   UNL     1       0.836   1.032  -5.075  0.00  0.00    +0.120 A 
ATOM     16  C   UNL     1       1.390   1.958  -4.203  0.00  0.00    +0.046 A 
ATOM     17  C   UNL     1       0.921   2.050  -2.906  0.00  0.00    +0.009 A 
BRANCH  15  18
ATOM     18  O   UNL     1       1.294   0.939  -6.351  0.00  0.00    -0.495 OA
ATOM     19  C   UNL     1       0.677  -0.037  -7.192  0.00  0.00    +0.277 C 
ENDBRANCH  15  18
ENDBRANCH   5  12
BRANCH   1  21
ATOM     20  N   UNL     1      -6.657   0.004   1.592  0.00  0.00    -0.280 N 
ATOM     21  C   UNL     1      -5.482  -0.294   2.180  0.00  0.00    +0.265 C 
ATOM     22  O   UNL     1      -5.467  -0.841   3.267  0.00  0.00    -0.268 OA
ATOM     23  H   UNL     1      -6.673   0.417   0.573  0.00  0.00    +0.155 HD
BRANCH  20  27
ATOM     24  C   UNL     1     -10.230  -0.642   3.634  0.00  0.00    -0.019 A 
ATOM     25  C   UNL     1     -10.182  -0.798   2.261  0.00  0.00    +0.008 A 
ATOM     26  C   UNL     1      -8.999  -0.585   1.581  0.00  0.00    +0.023 A 
ATOM     27  C   UNL     1      -7.857  -0.212   2.277  0.00  0.00    +0.034 A 
ATOM     28  C   UNL     1      -7.907  -0.061   3.657  0.00  0.00    +0.023 A 
ATOM     29  C   UNL     1      -9.094  -0.272   4.331  0.00  0.00    +0.008 A 
BRANCH  24  31
ATOM     30  C   UNL     1     -12.250   0.456   4.562  0.00  0.00    +0.043 C 
ATOM     31  C   UNL     1     -11.522  -0.876   4.373  0.00  0.00    +0.141 C 
BRANCH  31  32
ATOM     32  O   UNL     1     -11.243  -1.452   5.651  0.00  0.00    -0.387 OA
ATOM     33  H   UNL     1     -10.720  -2.417   5.716  0.00  0.00    +0.210 HD
ENDBRANCH  31  32
ENDBRANCH  24  31
ENDBRANCH  20  27
ENDBRANCH   1  21
BRANCH   7  34
ATOM     34  C   UNL     1      -0.074  -0.946   2.006  0.00  0.00    +0.410 C 
ATOM     35  F   UNL     1       1.323  -0.977   2.048  0.00  0.00    -0.169 F 
ATOM     36  F   UNL     1      -0.579  -0.874   3.309  0.00  0.00    -0.169 F 
ATOM     37  F   UNL     1      -0.548  -2.107   1.386  0.00  0.00    -0.169 F 
ENDBRANCH   7  34
TORSDOF 7
