REMARK  Name = ZINC12642968
REMARK  5 active torsions:
REMARK  status: ('A' for Active; 'I' for Inactive)
REMARK    1  A    between atoms: C_1  and  C_2
REMARK    2  A    between atoms: C_7  and  C_8
REMARK    3  A    between atoms: C_7  and  N_59
REMARK    4  A    between atoms: C_12  and  C_17
REMARK    5  A    between atoms: C_25  and  C_28
REMARK                            x       y       z     vdW  Elec       q    Type
REMARK                         _______ _______ _______ _____ _____    ______ ____
ROOT
ATOM      1  C   UNL     1      -0.071   6.885  -2.407  0.00  0.00    +0.116 A 
ATOM      2  N   UNL     1       0.385   6.962  -3.644  0.00  0.00    -0.213 NA
ATOM      3  C   UNL     1      -0.377   6.707  -4.693  0.00  0.00    +0.188 A 
ATOM      4  C   UNL     1      -1.734   6.346  -4.491  0.00  0.00    +0.061 A 
ATOM      5  C   UNL     1      -2.767   6.023  -5.470  0.00  0.00    +0.002 A 
ATOM      6  C   UNL     1      -4.006   5.705  -5.027  0.00  0.00    +0.056 A 
ATOM      7  S   UNL     1      -3.859   5.820  -3.255  0.00  0.00    -0.076 S 
ATOM      8  C   UNL     1      -2.153   6.289  -3.144  0.00  0.00    +0.114 A 
ATOM      9  N   UNL     1      -1.324   6.556  -2.156  0.00  0.00    -0.227 NA
ATOM     10  N   UNL     1       0.146   6.794  -5.984  0.00  0.00    -0.110 N 
ATOM     11  N   UNL     1       1.216   6.046  -6.502  0.00  0.00    -0.124 NA
ATOM     12  C   UNL     1       1.369   6.450  -7.749  0.00  0.00    +0.206 A 
ATOM     13  N   UNL     1       0.446   7.390  -7.981  0.00  0.00    -0.107 NA
ATOM     14  N   UNL     1      -0.266   7.571  -6.926  0.00  0.00    -0.039 NA
ENDROOT
BRANCH  12  15
ATOM     15  C   UNL     1       2.379   5.952  -8.717  0.00  0.00    +0.041 A 
ATOM     16  C   UNL     1       3.288   4.968  -8.335  0.00  0.00    +0.013 A 
ATOM     17  C   UNL     1       4.220   4.504  -9.240  0.00  0.00    +0.001 A 
ATOM     18  C   UNL     1       4.263   5.024 -10.522  0.00  0.00    +0.001 A 
ATOM     19  C   UNL     1       3.368   6.005 -10.905  0.00  0.00    +0.021 A 
ATOM     20  C   UNL     1       2.425   6.473 -10.009  0.00  0.00    +0.052 A 
ATOM     21 CL   UNL     1       1.302   7.705 -10.492  0.00  0.00    -0.083 Cl
ENDBRANCH  12  15
BRANCH   5  22
ATOM     22  C   UNL     1      -2.465   6.043  -6.921  0.00  0.00    -0.017 A 
ATOM     23  C   UNL     1      -3.199   6.863  -7.777  0.00  0.00    +0.008 A 
ATOM     24  C   UNL     1      -2.909   6.882  -9.126  0.00  0.00    +0.001 A 
ATOM     25  C   UNL     1      -1.901   6.080  -9.631  0.00  0.00    +0.000 A 
ATOM     26  C   UNL     1      -1.173   5.260  -8.787  0.00  0.00    +0.001 A 
ATOM     27  C   UNL     1      -1.450   5.237  -7.435  0.00  0.00    +0.008 A 
ENDBRANCH   5  22
BRANCH   1  28
ATOM     28  C   UNL     1       0.857   7.186  -1.259  0.00  0.00    -0.001 C 
BRANCH  28  35
ATOM     29  C   UNL     1       2.876   2.429   1.183  0.00  0.00    +0.007 C 
ATOM     30  C   UNL     1       2.081   3.706   0.902  0.00  0.00    -0.018 C 
ATOM     31  C   UNL     1       1.302   3.546  -0.406  0.00  0.00    -0.016 C 
ATOM     32  C   UNL     1       0.557   4.847  -0.713  0.00  0.00    -0.078 C 
ATOM     33  C   UNL     1       2.248   6.152   0.431  0.00  0.00    -0.078 C 
ATOM     34  C   UNL     1       3.043   4.890   0.772  0.00  0.00    -0.016 C 
ATOM     35  N   UNL     1       1.540   5.942  -0.850  0.00  0.00    +0.384 N 
ATOM     36  H   UNL     1       2.226   5.686  -1.570  0.00  0.00    -0.081 HD
ENDBRANCH  28  35
ENDBRANCH   1  28
TORSDOF 4
