REMARK  Name = ZINC39853347
REMARK  7 active torsions:
REMARK  status: ('A' for Active; 'I' for Inactive)
REMARK    1  A    between atoms: C_1  and  C_2
REMARK    2  A    between atoms: C_6  and  C_7
REMARK    3  A    between atoms: C_11  and  C_25
REMARK    4  A    between atoms: C_11  and  C_26
REMARK    5  A    between atoms: N_14  and  N_15
REMARK    6  A    between atoms: N_15  and  S_16
REMARK    7  A    between atoms: S_16  and  C_19
REMARK                            x       y       z     vdW  Elec       q    Type
REMARK                         _______ _______ _______ _____ _____    ______ ____
ROOT
ATOM      1  C   UNL     1      -0.018   1.503   0.010  0.00  0.00    +0.048 C 
ATOM      2  C   UNL     1       0.002  -0.004   0.002  0.00  0.00    +0.009 A 
ATOM      3  C   UNL     1       0.009  -0.838  -1.122  0.00  0.00    +0.042 A 
ATOM      4  C   UNL     1       0.027  -2.136  -0.673  0.00  0.00    +0.116 A 
ATOM      5  O   UNL     1       0.035  -2.112   0.658  0.00  0.00    -0.454 OA
ATOM      6  C   UNL     1       0.024  -0.830   1.091  0.00  0.00    +0.193 A 
ATOM      7  C   UNL     1       0.033  -3.325  -1.601  0.00  0.00    +0.081 C 
ATOM      8  C   UNL     1      -0.492  -2.901  -2.975  0.00  0.00    -0.023 C 
ATOM      9  C   UNL     1       0.279  -1.684  -3.496  0.00  0.00    +0.064 C 
ATOM     10  C   UNL     1       0.000  -0.511  -2.567  0.00  0.00    +0.072 C 
ATOM     11  N   UNL     1      -0.227   0.687  -3.008  0.00  0.00    -0.170 NA
ATOM     12  C   UNL     1      -1.976  -2.548  -2.860  0.00  0.00    +0.011 C 
ATOM     13  C   UNL     1      -0.325  -4.062  -3.958  0.00  0.00    +0.011 C 
ENDROOT
BRANCH   6  14
ATOM     14  C   UNL     1       0.031  -0.400   2.494  0.00  0.00    +0.277 C 
ATOM     15  O   UNL     1       0.017   0.786   2.766  0.00  0.00    -0.267 OA
ATOM     16  N   UNL     1       0.054  -1.318   3.480  0.00  0.00    -0.323 N 
ATOM     17  H   UNL     1       0.065  -2.263   3.263  0.00  0.00    +0.145 HD
ATOM     18  H   UNL     1       0.058  -1.033   4.408  0.00  0.00    +0.145 HD
ENDBRANCH   6  14
BRANCH  11  19
ATOM     19  N   UNL     1      -0.222   0.939  -4.386  0.00  0.00    -0.136 N 
ATOM     20  H   UNL     1      -0.049   0.217  -5.010  0.00  0.00    +0.197 HD
BRANCH  19  21
ATOM     21  S   UNL     1      -0.512   2.469  -4.949  0.00  0.00    +0.086 S 
ATOM     22  O   UNL     1      -0.299   2.432  -6.353  0.00  0.00    -0.149 OA
ATOM     23  O   UNL     1      -1.744   2.886  -4.376  0.00  0.00    -0.149 OA
BRANCH  21  24
ATOM     24  C   UNL     1       0.735   3.517  -4.277  0.00  0.00    +0.110 A 
ATOM     25  C   UNL     1       0.532   4.141  -3.061  0.00  0.00    +0.029 A 
ATOM     26  C   UNL     1       1.510   4.963  -2.533  0.00  0.00    +0.002 A 
ATOM     27  C   UNL     1       2.692   5.160  -3.223  0.00  0.00    +0.000 A 
ATOM     28  C   UNL     1       2.896   4.535  -4.439  0.00  0.00    +0.002 A 
ATOM     29  C   UNL     1       1.919   3.710  -4.964  0.00  0.00    +0.029 A 
ENDBRANCH  21  24
ENDBRANCH  19  21
ENDBRANCH  11  19
TORSDOF 4
