REMARK  Name = ZINC02098714
REMARK  10 active torsions:
REMARK  status: ('A' for Active; 'I' for Inactive)
REMARK    1  A    between atoms: C_1  and  C_2
REMARK    2  A    between atoms: C_9  and  C_34
REMARK    3  A    between atoms: C_10  and  C_17
REMARK    4  A    between atoms: C_15  and  C_16
REMARK    5  A    between atoms: C_17  and  C_18
REMARK    6  A    between atoms: C_18  and  C_19
REMARK    7  A    between atoms: N_21  and  CA_22
REMARK    8  A    between atoms: CA_22  and  C_24
REMARK    9  A    between atoms: CA_22  and  C_32
REMARK   10  A    between atoms: C_24  and  C_25
REMARK                            x       y       z     vdW  Elec       q    Type
REMARK                         _______ _______ _______ _____ _____    ______ ____
ROOT
ATOM      1  C   UNL     1      -2.479   0.934   0.019  0.00  0.00    +0.052 C 
ENDROOT
BRANCH   1  11
ATOM      2  C   UNL     1      -8.328   4.185   4.779  0.00  0.00    +0.047 C 
ATOM      3  C   UNL     1      -8.465   4.266   3.280  0.00  0.00    -0.005 A 
ATOM      4  C   UNL     1      -9.468   4.828   2.594  0.00  0.00    +0.199 A 
ATOM      5  O   UNL     1      -9.251   4.711   1.272  0.00  0.00    -0.462 OA
ATOM      6  C   UNL     1      -8.091   4.066   1.028  0.00  0.00    +0.141 A 
ATOM      7  C   UNL     1      -7.524   3.745   2.278  0.00  0.00    +0.024 A 
ATOM      8  C   UNL     1      -6.314   3.070   2.349  0.00  0.00    +0.023 A 
ATOM      9  C   UNL     1      -5.662   2.711   1.170  0.00  0.00    +0.022 A 
ATOM     10  C   UNL     1      -4.385   1.991   1.208  0.00  0.00    -0.030 A 
ATOM     11  C   UNL     1      -3.794   1.670   0.029  0.00  0.00    +0.041 A 
ATOM     12  C   UNL     1      -4.417   2.022  -1.187  0.00  0.00    +0.341 A 
ATOM     13  O   UNL     1      -3.878   1.724  -2.237  0.00  0.00    -0.245 OA
ATOM     14  O   UNL     1      -5.588   2.676  -1.217  0.00  0.00    -0.422 OA
ATOM     15  C   UNL     1      -6.229   3.031  -0.081  0.00  0.00    +0.146 A 
ATOM     16  C   UNL     1      -7.437   3.705  -0.141  0.00  0.00    +0.035 A 
ATOM     17  C   UNL     1      -8.042   4.047  -1.478  0.00  0.00    +0.051 C 
ATOM     18  C   UNL     1      -3.744   1.622   2.521  0.00  0.00    +0.045 C 
ENDBRANCH   1  11
BRANCH   1  19
ATOM     19  C   UNL     1      -1.330   1.944   0.019  0.00  0.00    +0.100 C 
BRANCH  19  20
ATOM     20  C   UNL     1      -0.014   1.209   0.009  0.00  0.00    +0.214 C 
ATOM     21  O   UNL     1       0.002  -0.004   0.002  0.00  0.00    -0.276 OA
ATOM     22  N   UNL     1       1.143   1.898   0.001  0.00  0.00    -0.302 N 
ATOM     23  H   UNL     1       1.130   2.868   0.007  0.00  0.00    +0.150 HD
BRANCH  22  24
ATOM     24  CA  UNL     1       2.422   1.183  -0.015  0.00  0.00    +0.191 C 
BRANCH  24  25
ATOM     25  C   UNL     1       2.786   0.838  -1.435  0.00  0.00    +0.376 C 
ATOM     26  O   UNL     1       2.053   1.156  -2.342  0.00  0.00    -0.244 OA
ATOM     27  OXT UNL     1       3.925   0.176  -1.694  0.00  0.00    -0.244 OA
ENDBRANCH  24  25
BRANCH  24  28
ATOM     28  C   UNL     1       3.511   2.072   0.589  0.00  0.00    +0.069 C 
BRANCH  28  29
ATOM     29  C   UNL     1       3.209   2.317   2.045  0.00  0.00    -0.045 A 
ATOM     30  C   UNL     1       2.445   3.406   2.419  0.00  0.00    +0.005 A 
ATOM     31  C   UNL     1       2.163   3.628   3.754  0.00  0.00    +0.020 A 
ATOM     32  C   UNL     1       2.656   2.766   4.717  0.00  0.00    +0.041 A 
ATOM     33  C   UNL     1       3.426   1.679   4.343  0.00  0.00    +0.020 A 
ATOM     34  C   UNL     1       3.703   1.455   3.007  0.00  0.00    +0.005 A 
ATOM     35 CL   UNL     1       2.308   3.047   6.394  0.00  0.00    -0.084 Cl
ENDBRANCH  28  29
ENDBRANCH  24  28
ENDBRANCH  22  24
ENDBRANCH  19  20
ENDBRANCH   1  19
TORSDOF 7
