REMARK  Name = ZINC43670619
REMARK  7 active torsions:
REMARK  status: ('A' for Active; 'I' for Inactive)
REMARK    1  A    between atoms: C_1  and  C_2
REMARK    2  A    between atoms: C_2  and  C_3
REMARK    3  A    between atoms: C_3  and  C_5
REMARK    4  A    between atoms: C_3  and  N_12
REMARK    5  A    between atoms: C_13  and  N_21
REMARK    6  A    between atoms: C_14  and  N_18
REMARK    7  A    between atoms: C_15  and  C_17
REMARK                            x       y       z     vdW  Elec       q    Type
REMARK                         _______ _______ _______ _____ _____    ______ ____
ROOT
ATOM      1  N   UNL     1       2.125  -0.091  -1.209  0.00  0.00    -0.241 N 
ATOM      2  C   UNL     1       2.755   0.702  -2.106  0.00  0.00    +0.146 A 
ATOM      3  C   UNL     1       4.048   0.835  -1.700  0.00  0.00    +0.188 A 
ATOM      4  C   UNL     1       4.204   0.098  -0.522  0.00  0.00    +0.092 A 
ATOM      5  N   UNL     1       3.054  -0.450  -0.225  0.00  0.00    -0.172 NA
ATOM      6  C   UNL     1       5.477  -0.035   0.273  0.00  0.00    +0.070 C 
ENDROOT
BRANCH   3   7
ATOM      7  N   UNL     1       5.101   1.618  -2.384  0.00  0.00    +0.062 N 
ATOM      8  O   UNL     1       5.268   2.782  -2.102  0.00  0.00    -0.126 OA
ATOM      9  O   UNL     1       5.793   1.094  -3.226  0.00  0.00    -0.126 OA
ENDBRANCH   3   7
BRANCH   2  10
ATOM     10  N   UNL     1       2.185   1.278  -3.237  0.00  0.00    -0.342 N 
ATOM     11  H   UNL     1       1.249   1.123  -3.442  0.00  0.00    +0.144 HD
ATOM     12  H   UNL     1       2.723   1.835  -3.822  0.00  0.00    +0.144 HD
ENDBRANCH   2  10
BRANCH   1  13
ATOM     13  C   UNL     1       0.718  -0.497  -1.257  0.00  0.00    +0.139 C 
BRANCH  13  14
ATOM     14  C   UNL     1       0.632  -2.000  -1.327  0.00  0.00    -0.023 A 
ATOM     15  C   UNL     1       1.163  -2.772  -0.311  0.00  0.00    +0.007 A 
ATOM     16  C   UNL     1       1.084  -4.150  -0.375  0.00  0.00    +0.020 A 
ATOM     17  C   UNL     1       0.473  -4.758  -1.457  0.00  0.00    +0.041 A 
ATOM     18  C   UNL     1      -0.059  -3.985  -2.474  0.00  0.00    +0.020 A 
ATOM     19  C   UNL     1       0.016  -2.607  -2.406  0.00  0.00    +0.007 A 
ATOM     20 CL   UNL     1       0.374  -6.489  -1.539  0.00  0.00    -0.084 Cl
ENDBRANCH  13  14
BRANCH  13  22
ATOM     21  C   UNL     1      -0.019   1.526   0.010  0.00  0.00    +0.006 C 
ATOM     22  C   UNL     1       0.002  -0.004   0.002  0.00  0.00    +0.028 C 
ENDBRANCH  13  22
ENDBRANCH   1  13
TORSDOF 5
