REMARK  Name = ZINC01431211
REMARK  8 active torsions:
REMARK  status: ('A' for Active; 'I' for Inactive)
REMARK    1  A    between atoms: C_1  and  C_2
REMARK    2  A    between atoms: C_3  and  C_29
REMARK    3  A    between atoms: C_4  and  C_20
REMARK    4  A    between atoms: C_10  and  C_15
REMARK    5  A    between atoms: C_24  and  N_26
REMARK    6  A    between atoms: C_29  and  O_31
REMARK    7  A    between atoms: O_31  and  C_32
REMARK    8  A    between atoms: C_32  and  C_33
REMARK                            x       y       z     vdW  Elec       q    Type
REMARK                         _______ _______ _______ _____ _____    ______ ____
ROOT
ATOM      1  C   UNL     1      -6.672   5.924  -1.698  0.00  0.00    +0.061 C 
ATOM      2  C   UNL     1      -5.847   5.589  -2.913  0.00  0.00    +0.016 C 
ATOM      3  C   UNL     1      -4.578   5.170  -2.765  0.00  0.00    +0.065 C 
ATOM      4  C   UNL     1      -3.726   4.830  -3.952  0.00  0.00    +0.092 C 
ATOM      5  C   UNL     1      -4.572   4.613  -5.181  0.00  0.00    +0.024 C 
ATOM      6  C   UNL     1      -5.845   5.059  -5.229  0.00  0.00    +0.016 C 
ATOM      7  N   UNL     1      -6.392   5.716  -4.160  0.00  0.00    -0.321 N 
ATOM      8  C   UNL     1      -6.699   4.843  -6.455  0.00  0.00    +0.060 C 
ATOM      9  C   UNL     1      -5.812   4.819  -7.701  0.00  0.00    +0.039 C 
ATOM     10  C   UNL     1      -4.775   3.702  -7.539  0.00  0.00    +0.088 C 
ATOM     11  C   UNL     1      -3.998   3.937  -6.272  0.00  0.00    +0.162 C 
ATOM     12  O   UNL     1      -2.855   3.534  -6.190  0.00  0.00    -0.292 OA
ATOM     13  H   UNL     1      -7.277   6.352  -4.311  0.00  0.00    +0.152 HD
ENDROOT
BRANCH   4  14
ATOM     14  C   UNL     1      -2.763   5.960  -4.210  0.00  0.00    -0.033 A 
ATOM     15  C   UNL     1      -3.241   7.226  -4.494  0.00  0.00    +0.005 A 
ATOM     16  C   UNL     1      -2.358   8.263  -4.726  0.00  0.00    +0.003 A 
ATOM     17  C   UNL     1      -0.995   8.033  -4.683  0.00  0.00    +0.033 A 
ATOM     18  C   UNL     1      -0.517   6.767  -4.403  0.00  0.00    +0.126 A 
ATOM     19  C   UNL     1      -1.400   5.730  -4.167  0.00  0.00    +0.037 A 
BRANCH  18  20
ATOM     20  N   UNL     1       0.942   6.521  -4.358  0.00  0.00    +0.056 N 
ATOM     21  O   UNL     1       1.364   5.405  -4.112  0.00  0.00    -0.126 OA
ATOM     22  O   UNL     1       1.721   7.434  -4.566  0.00  0.00    -0.126 OA
ENDBRANCH  18  20
ENDBRANCH   4  14
BRANCH   9  23
ATOM     23  C   UNL     1      -6.658   4.551  -8.919  0.00  0.00    -0.006 A 
ATOM     24  C   UNL     1      -6.835   5.321 -10.021  0.00  0.00    +0.011 A 
ATOM     25  C   UNL     1      -7.668   4.868 -11.028  0.00  0.00    +0.008 A 
ATOM     26  C   UNL     1      -8.282   3.668 -10.883  0.00  0.00    +0.045 A 
ATOM     27  S   UNL     1      -7.680   3.135  -9.290  0.00  0.00    -0.101 S 
ENDBRANCH   9  23
BRANCH   3  28
ATOM     28  C   UNL     1      -4.038   5.043  -1.464  0.00  0.00    +0.338 C 
ATOM     29  O   UNL     1      -3.879   3.940  -0.976  0.00  0.00    -0.245 OA
BRANCH  28  30
ATOM     30  O   UNL     1      -3.698   6.146  -0.763  0.00  0.00    -0.457 OA
BRANCH  30  31
ATOM     31  C   UNL     1      -3.158   5.943   0.544  0.00  0.00    +0.268 C 
BRANCH  31  32
ATOM     32  C   UNL     1      -2.840   7.277   1.169  0.00  0.00    -0.010 A 
ATOM     33  C   UNL     1      -1.593   7.845   0.989  0.00  0.00    +0.007 A 
ATOM     34  C   UNL     1      -1.300   9.066   1.566  0.00  0.00    +0.000 A 
ATOM     35  C   UNL     1      -2.258   9.725   2.315  0.00  0.00    +0.000 A 
ATOM     36  C   UNL     1      -3.506   9.158   2.491  0.00  0.00    +0.000 A 
ATOM     37  C   UNL     1      -3.798   7.934   1.918  0.00  0.00    +0.007 A 
ENDBRANCH  31  32
ENDBRANCH  30  31
ENDBRANCH  28  30
ENDBRANCH   3  28
TORSDOF 7
