REMARK  Name = ZINC63372340
REMARK  14 active torsions:
REMARK  status: ('A' for Active; 'I' for Inactive)
REMARK    1  A    between atoms: C_1  and  C_2
REMARK    2  A    between atoms: C_2  and  O_3
REMARK    3  A    between atoms: O_3  and  C_4
REMARK    4  A    between atoms: C_5  and  C_12
REMARK    5  A    between atoms: C_9  and  O_10
REMARK    6  A    between atoms: O_10  and  C_11
REMARK    7  A    between atoms: N_19  and  C_34
REMARK    8  A    between atoms: C_22  and  C_33
REMARK    9  A    between atoms: C_34  and  C_35
REMARK   10  A    between atoms: C_35  and  C_36
REMARK   11  A    between atoms: C_36  and  O_37
REMARK   12  A    between atoms: O_37  and  C_38
REMARK   13  A    between atoms: C_38  and  C_39
REMARK   14  A    between atoms: C_38  and  C_40
REMARK                            x       y       z     vdW  Elec       q    Type
REMARK                         _______ _______ _______ _____ _____    ______ ____
ROOT
ATOM      1  C   UNL     1      -1.365  -1.806   2.563  0.00  0.00    +0.069 C 
ATOM      2  C   UNL     1      -1.437  -2.040   4.082  0.00  0.00    +0.121 C 
ATOM      3  N   UNL     1      -1.874  -3.426   4.342  0.00  0.00    -0.283 N 
ATOM      4  C   UNL     1      -1.063  -4.219   5.051  0.00  0.00    +0.234 C 
ATOM      5  O   UNL     1      -0.003  -3.756   5.416  0.00  0.00    -0.274 OA
ATOM      6  C   UNL     1      -1.366  -5.632   5.426  0.00  0.00    +0.203 C 
ATOM      7  N   UNL     1      -2.666  -6.062   4.938  0.00  0.00    -0.291 N 
ATOM      8  C   UNL     1      -3.476  -5.287   4.221  0.00  0.00    +0.242 C 
ATOM      9  O   UNL     1      -4.540  -5.752   3.869  0.00  0.00    -0.273 OA
ATOM     10  C   UNL     1      -3.164  -3.883   3.822  0.00  0.00    +0.135 C 
ATOM     11  C   UNL     1      -3.134  -3.766   2.294  0.00  0.00    +0.139 C 
ATOM     12  C   UNL     1      -2.642  -2.356   1.978  0.00  0.00    -0.027 C 
ATOM     13  C   UNL     1      -3.544  -1.817   1.168  0.00  0.00    -0.000 A 
ATOM     14  C   UNL     1      -3.574  -0.532   0.450  0.00  0.00    +0.010 A 
ATOM     15  C   UNL     1      -4.687  -0.285  -0.290  0.00  0.00    +0.001 A 
ATOM     16  C   UNL     1      -5.760  -1.176  -0.387  0.00  0.00    +0.002 A 
ATOM     17  C   UNL     1      -5.814  -2.382   0.231  0.00  0.00    +0.026 A 
ATOM     18  C   UNL     1      -4.696  -2.760   1.031  0.00  0.00    +0.043 A 
ATOM     19  N   UNL     1      -4.468  -3.879   1.704  0.00  0.00    -0.375 N 
ATOM     20  C   UNL     1      -4.265  -2.961   4.350  0.00  0.00    +0.044 C 
ATOM     21  H   UNL     1      -5.068  -4.635   1.799  0.00  0.00    +0.160 HD
ENDROOT
BRANCH   1  23
ATOM     22  C   UNL     1       0.802  -1.825   1.306  0.00  0.00    +0.166 A 
ATOM     23  C   UNL     1      -0.178  -2.531   1.985  0.00  0.00    +0.007 A 
ATOM     24  C   UNL     1      -0.066  -3.901   2.132  0.00  0.00    +0.008 A 
ATOM     25  C   UNL     1       1.023  -4.570   1.603  0.00  0.00    +0.004 A 
ATOM     26  C   UNL     1       2.004  -3.871   0.925  0.00  0.00    +0.049 A 
ATOM     27  C   UNL     1       1.895  -2.499   0.769  0.00  0.00    +0.162 A 
BRANCH  27  28
ATOM     28  O   UNL     1       2.856  -1.811   0.097  0.00  0.00    -0.491 OA
ATOM     29  C   UNL     1       3.949  -2.568  -0.427  0.00  0.00    +0.277 C 
ENDBRANCH  27  28
BRANCH  22  30
ATOM     30  O   UNL     1       0.693  -0.477   1.160  0.00  0.00    -0.488 OA
BRANCH  30  32
ATOM     31  C   UNL     1      -0.019   1.526   0.010  0.00  0.00    +0.048 C 
ATOM     32  C   UNL     1       0.002  -0.004   0.002  0.00  0.00    +0.226 C 
ENDBRANCH  30  32
ENDBRANCH  22  30
ENDBRANCH   1  23
BRANCH   7  33
ATOM     33  C   UNL     1      -3.107  -7.423   5.252  0.00  0.00    +0.110 C 
BRANCH  33  34
ATOM     34  C   UNL     1      -3.875  -7.418   6.575  0.00  0.00    +0.047 C 
BRANCH  34  35
ATOM     35  C   UNL     1      -4.337  -8.839   6.903  0.00  0.00    +0.161 C 
BRANCH  35  36
ATOM     36  O   UNL     1      -5.054  -8.834   8.139  0.00  0.00    -0.377 OA
BRANCH  36  37
ATOM     37  C   UNL     1      -5.532 -10.120   8.540  0.00  0.00    +0.112 C 
ATOM     38  C   UNL     1      -4.471 -10.813   9.398  0.00  0.00    +0.037 C 
ATOM     39  C   UNL     1      -6.818  -9.956   9.352  0.00  0.00    +0.037 C 
ENDBRANCH  36  37
ENDBRANCH  35  36
ENDBRANCH  34  35
ENDBRANCH  33  34
ENDBRANCH   7  33
TORSDOF 9
