REMARK  Name = ZINC06441832
REMARK  10 active torsions:
REMARK  status: ('A' for Active; 'I' for Inactive)
REMARK    1  A    between atoms: C_1  and  C_2
REMARK    2  A    between atoms: C_7  and  C_15
REMARK    3  A    between atoms: C_13  and  C_14
REMARK    4  A    between atoms: C_15  and  C_17
REMARK    5  A    between atoms: C_15  and  N_68
REMARK    6  A    between atoms: N_21  and  C_22
REMARK    7  A    between atoms: C_22  and  C_23
REMARK    8  A    between atoms: C_22  and  C_24
REMARK    9  A    between atoms: C_22  and  C_25
REMARK   10  A    between atoms: N_28  and  C_31
REMARK                            x       y       z     vdW  Elec       q    Type
REMARK                         _______ _______ _______ _____ _____    ______ ____
ROOT
ATOM      1  C   UNL     1      -2.401   4.597   0.227  0.00  0.00    +0.039 C 
ENDROOT
BRANCH   1   8
ATOM      2  C   UNL     1       4.045   0.134  -1.236  0.00  0.00    +0.044 C 
ATOM      3  C   UNL     1       2.705   0.783  -1.004  0.00  0.00    -0.046 A 
ATOM      4  C   UNL     1       1.545   0.034  -1.147  0.00  0.00    +0.004 A 
ATOM      5  C   UNL     1       0.321   0.603  -0.942  0.00  0.00    +0.010 A 
ATOM      6  C   UNL     1       0.234   1.952  -0.585  0.00  0.00    -0.001 A 
ATOM      7  C   UNL     1      -1.062   2.592  -0.352  0.00  0.00    +0.017 A 
ATOM      8  C   UNL     1      -1.084   3.906  -0.015  0.00  0.00    +0.011 A 
ATOM      9  C   UNL     1       0.122   4.626   0.118  0.00  0.00    +0.251 A 
ATOM     10  O   UNL     1       0.080   5.804   0.427  0.00  0.00    -0.268 OA
ATOM     11  N   UNL     1       1.317   4.045  -0.089  0.00  0.00    -0.322 N 
ATOM     12  H   UNL     1       2.127   4.570   0.010  0.00  0.00    +0.169 HD
ATOM     13  C   UNL     1       1.408   2.716  -0.440  0.00  0.00    +0.052 A 
ATOM     14  C   UNL     1       2.644   2.114  -0.653  0.00  0.00    -0.024 A 
ATOM     15  C   UNL     1       3.912   2.915  -0.501  0.00  0.00    +0.046 C 
ENDBRANCH   1   8
BRANCH   1  21
ATOM     16  C   UNL     1      -3.696   6.572  -0.308  0.00  0.00    -0.058 C 
ATOM     17  C   UNL     1      -3.709   7.848  -1.153  0.00  0.00    +0.086 C 
ATOM     18  N   UNL     1      -3.671   7.490  -2.578  0.00  0.00    -0.331 N 
ATOM     19  C   UNL     1      -2.464   6.711  -2.890  0.00  0.00    +0.086 C 
ATOM     20  C   UNL     1      -2.451   5.435  -2.045  0.00  0.00    -0.058 C 
ATOM     21  N   UNL     1      -2.467   5.810  -0.615  0.00  0.00    +0.391 N 
ATOM     22  H   UNL     1      -1.650   6.399  -0.416  0.00  0.00    -0.080 HD
BRANCH  18  23
ATOM     23  C   UNL     1      -3.754   8.629  -3.384  0.00  0.00    +0.065 A 
ATOM     24  C   UNL     1      -3.809   8.502  -4.765  0.00  0.00    +0.026 A 
ATOM     25  C   UNL     1      -3.895   9.629  -5.559  0.00  0.00    +0.002 A 
ATOM     26  C   UNL     1      -3.918  10.885  -4.980  0.00  0.00    +0.003 A 
ATOM     27  C   UNL     1      -3.859  11.017  -3.605  0.00  0.00    +0.040 A 
ATOM     28  C   UNL     1      -3.777   9.893  -2.804  0.00  0.00    +0.144 A 
ATOM     29  F   UNL     1      -3.719  10.022  -1.461  0.00  0.00    -0.204 F 
ENDBRANCH  18  23
ENDBRANCH   1  21
BRANCH   1  30
ATOM     30  C   UNL     1      -2.500   4.998   1.676  0.00  0.00    +0.143 A 
ATOM     31  N   UNL     1      -1.792   5.920   2.283  0.00  0.00    -0.115 NA
ATOM     32  N   UNL     1      -2.170   5.966   3.514  0.00  0.00    -0.023 NA
ATOM     33  N   UNL     1      -3.100   5.097   3.708  0.00  0.00    -0.043 NA
ATOM     34  N   UNL     1      -3.336   4.484   2.597  0.00  0.00    -0.225 N 
BRANCH  34  35
ATOM     35  C   UNL     1      -4.324   3.425   2.381  0.00  0.00    +0.059 C 
ATOM     36  C   UNL     1      -3.621   2.169   1.862  0.00  0.00    +0.036 C 
ATOM     37  C   UNL     1      -5.028   3.106   3.702  0.00  0.00    +0.036 C 
ATOM     38  C   UNL     1      -5.356   3.893   1.353  0.00  0.00    +0.036 C 
ENDBRANCH  34  35
ENDBRANCH   1  30
TORSDOF 5
