REMARK  Name = ZINC00814231
REMARK  7 active torsions:
REMARK  status: ('A' for Active; 'I' for Inactive)
REMARK    1  A    between atoms: C_1  and  C_2
REMARK    2  A    between atoms: C_7  and  C_8
REMARK    3  A    between atoms: C_12  and  C_15
REMARK    4  A    between atoms: C_15  and  C_16
REMARK    5  A    between atoms: N_18  and  C_19
REMARK    6  A    between atoms: C_22  and  N_25
REMARK    7  A    between atoms: C_26  and  C_28
REMARK                            x       y       z     vdW  Elec       q    Type
REMARK                         _______ _______ _______ _____ _____    ______ ____
ROOT
ATOM      1  C   UNL     1      -4.915   0.862  -0.192  0.00  0.00    +0.127 C 
ENDROOT
BRANCH   1  13
ATOM      2  C   UNL     1      -5.564   0.035  -6.513  0.00  0.00    +0.044 C 
ATOM      3  C   UNL     1      -6.191   0.091  -5.144  0.00  0.00    -0.046 A 
ATOM      4  C   UNL     1      -5.776   1.048  -4.234  0.00  0.00    +0.028 A 
ATOM      5  C   UNL     1      -6.353   1.095  -2.977  0.00  0.00    +0.049 A 
ATOM      6  C   UNL     1      -7.338   0.172  -2.622  0.00  0.00    +0.055 A 
ATOM      7  C   UNL     1      -7.755  -0.773  -3.544  0.00  0.00    +0.028 A 
ATOM      8  C   UNL     1      -7.179  -0.813  -4.800  0.00  0.00    -0.046 A 
ATOM      9  C   UNL     1      -7.630  -1.846  -5.800  0.00  0.00    +0.044 C 
ATOM     10  N   UNL     1      -7.907   0.223  -1.344  0.00  0.00    -0.282 N 
ATOM     11  C   UNL     1      -7.384   1.010  -0.386  0.00  0.00    +0.238 C 
ATOM     12  O   UNL     1      -7.961   1.127   0.675  0.00  0.00    -0.273 OA
ATOM     13  C   UNL     1      -6.089   1.746  -0.616  0.00  0.00    +0.166 C 
ATOM     14  N   UNL     1      -5.969   2.072  -2.044  0.00  0.00    -0.331 N 
ATOM     15  H   UNL     1      -8.690  -0.315  -1.147  0.00  0.00    +0.155 HD
ATOM     16  H   UNL     1      -5.636   2.937  -2.333  0.00  0.00    +0.147 HD
ENDBRANCH   1  13
BRANCH   1  17
ATOM     17  C   UNL     1      -3.630   1.641  -0.311  0.00  0.00    +0.219 C 
ATOM     18  O   UNL     1      -3.652   2.790  -0.697  0.00  0.00    -0.275 OA
ATOM     19  N   UNL     1      -2.458   1.060   0.011  0.00  0.00    -0.285 N 
ATOM     20  H   UNL     1      -2.431   0.119   0.247  0.00  0.00    +0.155 HD
BRANCH  19  21
ATOM     21  C   UNL     1      -1.278   1.814   0.004  0.00  0.00    +0.033 A 
ATOM     22  C   UNL     1      -1.311   3.158   0.353  0.00  0.00    +0.025 A 
ATOM     23  C   UNL     1      -0.147   3.901   0.352  0.00  0.00    +0.025 A 
ATOM     24  C   UNL     1       1.056   3.305  -0.002  0.00  0.00    +0.033 A 
ATOM     25  C   UNL     1       1.089   1.962  -0.356  0.00  0.00    +0.025 A 
ATOM     26  C   UNL     1      -0.075   1.220  -0.355  0.00  0.00    +0.025 A 
BRANCH  24  27
ATOM     27  N   UNL     1       2.237   4.058  -0.003  0.00  0.00    -0.286 N 
ATOM     28  C   UNL     1       2.430   5.010   0.931  0.00  0.00    +0.214 C 
ATOM     29  O   UNL     1       1.548   5.272   1.721  0.00  0.00    -0.276 OA
ATOM     30  C   UNL     1       3.743   5.748   0.995  0.00  0.00    +0.109 C 
ATOM     31  H   UNL     1       2.917   3.894  -0.676  0.00  0.00    +0.155 HD
ENDBRANCH  24  27
ENDBRANCH  19  21
ENDBRANCH   1  17
TORSDOF 4
