REMARK  Name = ZINC20744533
REMARK  5 active torsions:
REMARK  status: ('A' for Active; 'I' for Inactive)
REMARK    1  A    between atoms: C_1  and  O_2
REMARK    2  A    between atoms: O_2  and  C_3
REMARK    3  A    between atoms: C_3  and  C_5
REMARK    4  A    between atoms: C_10  and  N_11
REMARK    5  A    between atoms: C_23  and  C_25
REMARK                            x       y       z     vdW  Elec       q    Type
REMARK                         _______ _______ _______ _____ _____    ______ ____
ROOT
ATOM      1  N   UNL     1       2.078  -2.158   3.112  0.00  0.00    -0.269 N 
ATOM      2  C   UNL     1       2.862  -2.778   4.016  0.00  0.00    +0.307 C 
ATOM      3  O   UNL     1       3.067  -3.973   3.925  0.00  0.00    -0.252 OA
ATOM      4  N   UNL     1       3.419  -2.073   5.021  0.00  0.00    -0.272 N 
ATOM      5  C   UNL     1       3.272  -0.612   5.088  0.00  0.00    +0.116 C 
ATOM      6  C   UNL     1       4.653   0.039   4.936  0.00  0.00    +0.074 C 
ATOM      7  C   UNL     1       5.635  -0.699   5.807  0.00  0.00    +0.040 A 
ATOM      8  C   UNL     1       5.440  -1.935   6.314  0.00  0.00    +0.062 A 
ATOM      9  N   UNL     1       6.518  -2.266   7.029  0.00  0.00    -0.348 N 
ATOM     10  C   UNL     1       7.377  -1.281   6.988  0.00  0.00    +0.171 A 
ATOM     11  N   UNL     1       6.859  -0.283   6.235  0.00  0.00    -0.349 N 
ATOM     12  H   UNL     1       7.281   0.568   6.037  0.00  0.00    +0.166 HD
ATOM     13  C   UNL     1       4.185  -2.750   6.083  0.00  0.00    +0.159 C 
ATOM     14  H   UNL     1       1.982  -1.193   3.134  0.00  0.00    +0.156 HD
ATOM     15  H   UNL     1       6.644  -3.104   7.501  0.00  0.00    +0.167 HD
ENDROOT
BRANCH  13  16
ATOM     16  C   UNL     1       3.367  -2.808   7.348  0.00  0.00    +0.017 A 
ATOM     17  C   UNL     1       3.619  -1.919   8.376  0.00  0.00    +0.009 A 
ATOM     18  C   UNL     1       2.869  -1.971   9.536  0.00  0.00    +0.003 A 
ATOM     19  C   UNL     1       1.866  -2.912   9.671  0.00  0.00    +0.041 A 
ATOM     20  C   UNL     1       1.611  -3.804   8.644  0.00  0.00    +0.159 A 
ATOM     21  C   UNL     1       2.359  -3.748   7.477  0.00  0.00    +0.164 A 
ATOM     22  F   UNL     1       2.109  -4.614   6.471  0.00  0.00    -0.202 F 
ATOM     23  F   UNL     1       0.631  -4.724   8.775  0.00  0.00    -0.202 F 
ENDBRANCH  13  16
BRANCH   1  29
ATOM     24  C   UNL     1       1.211  -2.378   0.860  0.00  0.00    +0.080 A 
ATOM     25  C   UNL     1       0.539  -3.138  -0.101  0.00  0.00    +0.017 A 
ATOM     26  C   UNL     1       0.068  -4.392   0.221  0.00  0.00    +0.001 A 
ATOM     27  C   UNL     1       0.257  -4.905   1.494  0.00  0.00    +0.002 A 
ATOM     28  C   UNL     1       0.918  -4.166   2.454  0.00  0.00    +0.024 A 
ATOM     29  C   UNL     1       1.405  -2.903   2.147  0.00  0.00    +0.049 A 
BRANCH  24  30
ATOM     30  C   UNL     1       1.717  -1.036   0.522  0.00  0.00    +0.341 C 
ATOM     31  O   UNL     1       2.226  -0.344   1.383  0.00  0.00    -0.245 OA
BRANCH  30  33
ATOM     32  C   UNL     1       2.128   0.734  -0.996  0.00  0.00    +0.280 C 
ATOM     33  O   UNL     1       1.616  -0.575  -0.740  0.00  0.00    -0.464 OA
ENDBRANCH  30  33
ENDBRANCH  24  30
ENDBRANCH   1  29
TORSDOF 4
