REMARK  Name = ZINC51116943
REMARK  7 active torsions:
REMARK  status: ('A' for Active; 'I' for Inactive)
REMARK    1  A    between atoms: C_1  and  C_2
REMARK    2  A    between atoms: C_2  and  C_3
REMARK    3  A    between atoms: C_6  and  N_9
REMARK    4  A    between atoms: N_9  and  C_10
REMARK    5  A    between atoms: C_11  and  C_13
REMARK    6  A    between atoms: C_18  and  N_19
REMARK    7  A    between atoms: N_19  and  N_20
REMARK                            x       y       z     vdW  Elec       q    Type
REMARK                         _______ _______ _______ _____ _____    ______ ____
ROOT
ATOM      1  N   UNL     1       2.746  -1.835   4.665  0.00  0.00    -0.270 N 
ATOM      2  C   UNL     1       4.186  -2.100   4.672  0.00  0.00    +0.138 C 
ATOM      3  C   UNL     1       2.019  -2.032   5.784  0.00  0.00    +0.254 C 
ATOM      4  O   UNL     1       0.811  -1.892   5.756  0.00  0.00    -0.270 OA
ENDROOT
BRANCH   3   5
ATOM      5  C   UNL     1       2.689  -2.416   7.039  0.00  0.00    +0.079 A 
ATOM      6  C   UNL     1       3.767  -1.670   7.530  0.00  0.00    +0.033 A 
ATOM      7  C   UNL     1       4.361  -2.072   8.713  0.00  0.00    +0.037 A 
ATOM      8  C   UNL     1       3.878  -3.190   9.373  0.00  0.00    +0.128 A 
ATOM      9  N   UNL     1       2.861  -3.879   8.893  0.00  0.00    -0.237 NA
ATOM     10  C   UNL     1       2.253  -3.535   7.769  0.00  0.00    +0.144 A 
ATOM     11 BR   UNL     1       5.821  -1.103   9.424  0.00  0.00    -0.049 Br
BRANCH  10  12
ATOM     12  N   UNL     1       1.187  -4.285   7.306  0.00  0.00    -0.267 N 
ATOM     13  H   UNL     1       0.790  -4.083   6.444  0.00  0.00    +0.167 HD
BRANCH  12  14
ATOM     14  N   UNL     1       0.693  -5.309   8.063  0.00  0.00    -0.255 NA
ATOM     15  H   UNL     1      -0.080  -5.762   7.598  0.00  0.00    +0.140 HD
ATOM     16  H   UNL     1       1.417  -5.973   8.290  0.00  0.00    +0.140 HD
ENDBRANCH  12  14
ENDBRANCH  10  12
ENDBRANCH   3   5
BRANCH   1  20
ATOM     17  C   UNL     1       0.894  -0.474   1.191  0.00  0.00    -0.048 A 
ATOM     18  C   UNL     1       2.272  -0.566   1.247  0.00  0.00    +0.005 A 
ATOM     19  C   UNL     1       2.889  -1.017   2.398  0.00  0.00    +0.024 A 
ATOM     20  C   UNL     1       2.124  -1.377   3.499  0.00  0.00    +0.036 A 
ATOM     21  C   UNL     1       0.740  -1.283   3.440  0.00  0.00    +0.024 A 
ATOM     22  C   UNL     1       0.129  -0.826   2.288  0.00  0.00    +0.005 A 
BRANCH  17  24
ATOM     23  C   UNL     1       0.074   1.540  -0.002  0.00  0.00    +0.009 C 
ATOM     24  C   UNL     1       0.224   0.018  -0.066  0.00  0.00    +0.032 C 
ENDBRANCH  17  24
ENDBRANCH   1  20
TORSDOF 5
