REMARK  Name = ZINC57868442
REMARK  9 active torsions:
REMARK  status: ('A' for Active; 'I' for Inactive)
REMARK    1  A    between atoms: C_1  and  C_2
REMARK    2  A    between atoms: C_2  and  C_4
REMARK    3  A    between atoms: C_2  and  C_21
REMARK    4  A    between atoms: C_4  and  N_5
REMARK    5  A    between atoms: C_13  and  C_14
REMARK    6  A    between atoms: C_14  and  C_15
REMARK    7  A    between atoms: C_14  and  C_16
REMARK    8  A    between atoms: C_14  and  C_17
REMARK    9  A    between atoms: C_21  and  N_23
REMARK                            x       y       z     vdW  Elec       q    Type
REMARK                         _______ _______ _______ _____ _____    ______ ____
ROOT
ATOM      1  N   UNL     1       2.728  -0.221   1.501  0.00  0.00    -0.326 N 
ATOM      2  C   UNL     1       3.852  -0.769   0.911  0.00  0.00    +0.073 A 
ATOM      3  C   UNL     1       4.096  -1.938   0.203  0.00  0.00    +0.077 A 
ATOM      4  C   UNL     1       5.366  -2.206  -0.268  0.00  0.00    +0.168 A 
ATOM      5  C   UNL     1       6.409  -1.305  -0.034  0.00  0.00    +0.168 A 
ATOM      6  C   UNL     1       6.178  -0.141   0.668  0.00  0.00    +0.079 A 
ATOM      7  C   UNL     1       4.896   0.140   1.149  0.00  0.00    +0.093 A 
ATOM      8  N   UNL     1       4.368   1.173   1.856  0.00  0.00    -0.232 NA
ATOM      9  C   UNL     1       3.100   0.964   2.057  0.00  0.00    +0.116 A 
ATOM     10  O   UNL     1       7.549  -1.803  -0.600  0.00  0.00    -0.453 OA
ATOM     11  C   UNL     1       7.288  -3.202  -0.822  0.00  0.00    +0.466 C 
ATOM     12  O   UNL     1       5.858  -3.264  -0.979  0.00  0.00    -0.453 OA
ENDROOT
BRANCH   9  13
ATOM     13  C   UNL     1       2.178   1.896   2.800  0.00  0.00    +0.020 C 
ATOM     14  C   UNL     1       1.465   1.128   3.915  0.00  0.00    +0.019 C 
ATOM     15  C   UNL     1       2.992   3.040   3.408  0.00  0.00    +0.019 C 
ATOM     16  C   UNL     1       1.141   2.467   1.831  0.00  0.00    +0.019 C 
ENDBRANCH   9  13
BRANCH   1  17
ATOM     17  C   UNL     1       1.384  -0.805   1.518  0.00  0.00    +0.133 C 
BRANCH  17  19
ATOM     18  C   UNL     1       2.195  -2.939   2.533  0.00  0.00    +0.016 C 
ATOM     19  C   UNL     1       1.253  -1.748   2.716  0.00  0.00    +0.057 C 
BRANCH  19  20
ATOM     20  C   UNL     1      -0.167  -2.241   2.814  0.00  0.00    +0.051 C 
ATOM     21  S   UNL     1      -1.196  -1.956   1.624  0.00  0.00    -0.040 S 
BRANCH  20  22
ATOM     22  N   UNL     1      -0.570  -2.923   3.905  0.00  0.00    -0.355 N 
ATOM     23  H   UNL     1       0.054  -3.096   4.627  0.00  0.00    +0.143 HD
ATOM     24  H   UNL     1      -1.485  -3.240   3.968  0.00  0.00    +0.143 HD
ENDBRANCH  20  22
ENDBRANCH  19  20
ENDBRANCH  17  19
ENDBRANCH   1  17
TORSDOF 5
