REMARK  Name = ZINC15859406
REMARK  5 active torsions:
REMARK  status: ('A' for Active; 'I' for Inactive)
REMARK    1  A    between atoms: C_7  and  N_24
REMARK    2  A    between atoms: C_8  and  C_10
REMARK    3  A    between atoms: C_10  and  C_12
REMARK    4  A    between atoms: C_10  and  N_54
REMARK    5  A    between atoms: C_25  and  C_27
REMARK                            x       y       z     vdW  Elec       q    Type
REMARK                         _______ _______ _______ _____ _____    ______ ____
ROOT
ATOM      1  C   UNL     1      -1.560   3.372   7.697  0.00  0.00    +0.001 A 
ATOM      2  C   UNL     1      -1.684   4.523   6.932  0.00  0.00    +0.004 A 
ATOM      3  C   UNL     1      -1.573   4.470   5.559  0.00  0.00    +0.047 A 
ATOM      4  C   UNL     1      -1.335   3.253   4.932  0.00  0.00    +0.137 A 
ATOM      5  C   UNL     1      -1.210   2.092   5.712  0.00  0.00    +0.042 A 
ATOM      6  C   UNL     1      -1.326   2.165   7.099  0.00  0.00    +0.013 A 
ATOM      7  C   UNL     1      -0.974   0.999   4.758  0.00  0.00    +0.082 A 
ATOM      8  C   UNL     1      -0.966   1.564   3.537  0.00  0.00    +0.118 A 
ATOM      9  O   UNL     1      -1.182   2.890   3.642  0.00  0.00    -0.459 OA
ENDROOT
BRANCH   7  10
ATOM     10  N   UNL     1      -0.791  -0.361   5.059  0.00  0.00    -0.278 N 
ATOM     11  C   UNL     1      -1.317  -0.878   6.187  0.00  0.00    +0.255 C 
ATOM     12  O   UNL     1      -2.007  -0.184   6.910  0.00  0.00    -0.269 OA
ATOM     13  H   UNL     1      -0.285  -0.928   4.455  0.00  0.00    +0.155 HD
BRANCH  11  14
ATOM     14  C   UNL     1      -1.059  -2.277   6.542  0.00  0.00    +0.074 A 
ATOM     15  C   UNL     1      -1.500  -2.994   7.642  0.00  0.00    +0.021 A 
ATOM     16  C   UNL     1      -1.107  -4.307   7.732  0.00  0.00    +0.008 A 
ATOM     17  C   UNL     1      -0.319  -4.831   6.757  0.00  0.00    +0.046 A 
ATOM     18  S   UNL     1      -0.102  -3.502   5.665  0.00  0.00    -0.092 S 
ENDBRANCH  11  14
ENDBRANCH   7  10
BRANCH   8  19
ATOM     19  C   UNL     1      -0.753   0.824   2.243  0.00  0.00    +0.032 C 
BRANCH  19  20
ATOM     20  C   UNL     1       0.661   1.038   1.768  0.00  0.00    -0.051 A 
ATOM     21  C   UNL     1       1.032   2.256   1.230  0.00  0.00    +0.002 A 
ATOM     22  C   UNL     1       2.330   2.455   0.798  0.00  0.00    +0.003 A 
ATOM     23  C   UNL     1       3.255   1.433   0.894  0.00  0.00    +0.038 A 
ATOM     24  C   UNL     1       2.883   0.211   1.427  0.00  0.00    +0.124 A 
ATOM     25  C   UNL     1       1.584   0.014   1.864  0.00  0.00    +0.040 A 
ATOM     26  F   UNL     1       3.787  -0.789   1.521  0.00  0.00    -0.205 F 
ENDBRANCH  19  20
BRANCH  19  32
ATOM     27  C   UNL     1      -3.083   1.123   1.654  0.00  0.00    -0.077 C 
ATOM     28  C   UNL     1      -4.026   1.787   0.649  0.00  0.00    -0.019 C 
ATOM     29  C   UNL     1      -3.800   1.176  -0.737  0.00  0.00    -0.004 C 
ATOM     30  C   UNL     1      -2.332   1.359  -1.134  0.00  0.00    -0.019 C 
ATOM     31  C   UNL     1      -1.438   0.708  -0.077  0.00  0.00    -0.077 C 
ATOM     32  N   UNL     1      -1.686   1.357   1.228  0.00  0.00    +0.389 N 
ATOM     33  H   UNL     1      -1.532   2.367   1.132  0.00  0.00    -0.080 HD
ENDBRANCH  19  32
ENDBRANCH   8  19
TORSDOF 5
