REMARK  Name = ZINC48058583
REMARK  10 active torsions:
REMARK  status: ('A' for Active; 'I' for Inactive)
REMARK    1  A    between atoms: C_1  and  C_2
REMARK    2  A    between atoms: C_5  and  C_7
REMARK    3  A    between atoms: C_7  and  N_8
REMARK    4  A    between atoms: N_8  and  C_9
REMARK    5  A    between atoms: C_9  and  C_10
REMARK    6  A    between atoms: C_10  and  N_11
REMARK    7  A    between atoms: N_11  and  C_12
REMARK    8  A    between atoms: N_11  and  C_13
REMARK    9  A    between atoms: N_16  and  C_17
REMARK   10  A    between atoms: C_20  and  C_23
REMARK                            x       y       z     vdW  Elec       q    Type
REMARK                         _______ _______ _______ _____ _____    ______ ____
ROOT
ATOM      1  N   UNL     1       1.980  -3.615  -1.409  0.00  0.00    -0.280 N 
ATOM      2  C   UNL     1       1.211  -4.523  -2.042  0.00  0.00    +0.307 C 
ATOM      3  O   UNL     1       0.271  -5.033  -1.464  0.00  0.00    -0.252 OA
ATOM      4  N   UNL     1       1.484  -4.866  -3.317  0.00  0.00    -0.269 N 
ATOM      5  H   UNL     1       2.192  -4.412  -3.800  0.00  0.00    +0.156 HD
ENDROOT
BRANCH   4   6
ATOM      6  C   UNL     1       0.749  -5.873  -3.941  0.00  0.00    +0.035 A 
ATOM      7  C   UNL     1      -0.605  -6.021  -3.658  0.00  0.00    +0.024 A 
ATOM      8  C   UNL     1      -1.333  -7.015  -4.272  0.00  0.00    +0.015 A 
ATOM      9  C   UNL     1      -0.711  -7.876  -5.181  0.00  0.00    +0.037 A 
ATOM     10  C   UNL     1       0.649  -7.724  -5.462  0.00  0.00    +0.015 A 
ATOM     11  C   UNL     1       1.371  -6.725  -4.848  0.00  0.00    +0.024 A 
BRANCH   9  12
ATOM     12  C   UNL     1      -1.489  -8.942  -5.840  0.00  0.00    +0.242 C 
ATOM     13  O   UNL     1      -2.672  -9.073  -5.594  0.00  0.00    -0.270 OA
ATOM     14  N   UNL     1      -0.887  -9.771  -6.716  0.00  0.00    -0.325 N 
ATOM     15  H   UNL     1       0.057  -9.667  -6.913  0.00  0.00    +0.145 HD
ATOM     16  H   UNL     1      -1.398 -10.473  -7.150  0.00  0.00    +0.145 HD
ENDBRANCH   9  12
ENDBRANCH   4   6
BRANCH   1  17
ATOM     17  C   UNL     1       1.682  -3.242  -0.024  0.00  0.00    +0.183 C 
BRANCH  17  22
ATOM     18  C   UNL     1      -0.058   1.492   0.013  0.00  0.00    +0.086 C 
ATOM     19  C   UNL     1      -0.025  -0.015   0.005  0.00  0.00    +0.102 A 
ATOM     20  C   UNL     1      -1.099  -0.825   0.010  0.00  0.00    +0.045 A 
ATOM     21  C   UNL     1      -0.611  -2.152  -0.001  0.00  0.00    +0.046 A 
ATOM     22  C   UNL     1       0.731  -2.073  -0.011  0.00  0.00    +0.122 A 
ATOM     23  O   UNL     1       1.081  -0.776  -0.013  0.00  0.00    -0.463 OA
ENDBRANCH  17  22
ENDBRANCH   1  17
BRANCH   1  24
ATOM     24  C   UNL     1       3.112  -3.001  -2.106  0.00  0.00    +0.091 C 
BRANCH  24  25
ATOM     25  C   UNL     1       4.369  -3.844  -1.880  0.00  0.00    -0.060 C 
BRANCH  25  26
ATOM     26  N   UNL     1       5.504  -3.228  -2.579  0.00  0.00    +0.377 N 
ATOM     27  C   UNL     1       5.799  -1.921  -1.976  0.00  0.00    -0.097 C 
ATOM     28  C   UNL     1       6.682  -4.098  -2.462  0.00  0.00    -0.097 C 
ATOM     29  H   UNL     1       5.273  -3.104  -3.553  0.00  0.00    -0.083 HD
ENDBRANCH  25  26
ENDBRANCH  24  25
ENDBRANCH   1  24
TORSDOF 7
