REMARK  Name = ZINC34835933
REMARK  13 active torsions:
REMARK  status: ('A' for Active; 'I' for Inactive)
REMARK    1  A    between atoms: C_1  and  C_2
REMARK    2  A    between atoms: C_3  and  C_23
REMARK    3  A    between atoms: C_4  and  N_14
REMARK    4  A    between atoms: N_5  and  C_7
REMARK    5  A    between atoms: N_17  and  C_20
REMARK    6  A    between atoms: C_20  and  C_21
REMARK    7  A    between atoms: C_20  and  C_22
REMARK    8  A    between atoms: C_23  and  N_24
REMARK    9  A    between atoms: N_24  and  C_25
REMARK   10  A    between atoms: N_24  and  S_28
REMARK   11  A    between atoms: C_25  and  C_26
REMARK   12  A    between atoms: C_25  and  C_27
REMARK   13  A    between atoms: S_28  and  C_31
REMARK                            x       y       z     vdW  Elec       q    Type
REMARK                         _______ _______ _______ _____ _____    ______ ____
ROOT
ATOM      1  C   UNL     1       3.557  -0.911  -2.268  0.00  0.00    +0.068 C 
ATOM      2  C   UNL     1       2.750  -2.060  -1.720  0.00  0.00    +0.067 A 
ATOM      3  C   UNL     1       1.572  -2.569  -2.276  0.00  0.00    +0.031 A 
ATOM      4  C   UNL     1       1.151  -3.599  -1.491  0.00  0.00    +0.129 A 
ATOM      5  N   UNL     1       2.045  -3.727  -0.473  0.00  0.00    -0.218 N 
ATOM      6  N   UNL     1       3.036  -2.753  -0.648  0.00  0.00    -0.170 NA
ENDROOT
BRANCH   5   7
ATOM      7  C   UNL     1       1.987  -4.670   0.563  0.00  0.00    +0.070 A 
ATOM      8  C   UNL     1       0.763  -5.009   1.127  0.00  0.00    +0.028 A 
ATOM      9  C   UNL     1       0.708  -5.938   2.147  0.00  0.00    +0.005 A 
ATOM     10  C   UNL     1       1.868  -6.530   2.609  0.00  0.00    +0.038 A 
ATOM     11  C   UNL     1       3.090  -6.195   2.050  0.00  0.00    +0.125 A 
ATOM     12  C   UNL     1       3.150  -5.269   1.024  0.00  0.00    +0.066 A 
ATOM     13  F   UNL     1       4.223  -6.775   2.504  0.00  0.00    -0.205 F 
ENDBRANCH   5   7
BRANCH   4  14
ATOM     14  N   UNL     1       0.015  -4.377  -1.693  0.00  0.00    -0.318 N 
ATOM     15  C   UNL     1      -0.995  -3.996  -2.693  0.00  0.00    +0.088 C 
ATOM     16  C   UNL     1      -1.283  -5.212  -3.580  0.00  0.00    -0.059 C 
ATOM     17  N   UNL     1      -1.665  -6.352  -2.737  0.00  0.00    +0.383 N 
ATOM     18  C   UNL     1      -0.535  -6.744  -1.884  0.00  0.00    -0.059 C 
ATOM     19  C   UNL     1      -0.207  -5.606  -0.917  0.00  0.00    +0.088 C 
ATOM     20  H   UNL     1      -2.448  -6.092  -2.157  0.00  0.00    -0.081 HD
BRANCH  17  21
ATOM     21  C   UNL     1      -2.046  -7.484  -3.591  0.00  0.00    -0.075 C 
ATOM     22  C   UNL     1      -2.445  -8.673  -2.714  0.00  0.00    -0.014 C 
ATOM     23  C   UNL     1      -3.230  -7.082  -4.473  0.00  0.00    -0.014 C 
ENDBRANCH  17  21
ENDBRANCH   4  14
BRANCH   3  24
ATOM     24  C   UNL     1       0.890  -2.066  -3.522  0.00  0.00    +0.150 C 
BRANCH  24  25
ATOM     25  N   UNL     1       0.035  -0.925  -3.184  0.00  0.00    -0.170 NA
BRANCH  25  26
ATOM     26  C   UNL     1       0.611   0.418  -3.084  0.00  0.00    +0.074 C 
ATOM     27  C   UNL     1       1.090   0.662  -1.652  0.00  0.00    +0.025 C 
ATOM     28  C   UNL     1       1.795   0.538  -4.046  0.00  0.00    +0.025 C 
ENDBRANCH  25  26
BRANCH  25  29
ATOM     29  S   UNL     1      -1.583  -1.155  -2.914  0.00  0.00    +0.061 S 
ATOM     30  O   UNL     1      -2.235   0.042  -3.316  0.00  0.00    -0.153 OA
ATOM     31  O   UNL     1      -1.911  -2.422  -3.466  0.00  0.00    -0.153 OA
BRANCH  29  32
ATOM     32  C   UNL     1      -1.807  -1.290  -1.172  0.00  0.00    +0.105 A 
ATOM     33  C   UNL     1      -0.997  -2.133  -0.434  0.00  0.00    +0.028 A 
ATOM     34  C   UNL     1      -1.172  -2.240   0.932  0.00  0.00    +0.002 A 
ATOM     35  C   UNL     1      -2.158  -1.503   1.562  0.00  0.00    +0.000 A 
ATOM     36  C   UNL     1      -2.967  -0.659   0.825  0.00  0.00    +0.002 A 
ATOM     37  C   UNL     1      -2.789  -0.549  -0.541  0.00  0.00    +0.028 A 
ENDBRANCH  29  32
ENDBRANCH  25  29
ENDBRANCH  24  25
ENDBRANCH   3  24
TORSDOF 8
