REMARK  Name = ZINC05134856
REMARK  2 active torsions:
REMARK  status: ('A' for Active; 'I' for Inactive)
REMARK    1  A    between atoms: CA_2  and  C_10
REMARK    2  A    between atoms: CA_5  and  C_8
REMARK                            x       y       z     vdW  Elec       q    Type
REMARK                         _______ _______ _______ _____ _____    ______ ____
ROOT
ATOM      1  CB  CYS A   1      -2.623   1.417   1.039  0.00  0.00    +0.108 C 
ATOM      2  CA  CYS A   1      -2.902   2.238  -0.222  0.00  0.00    +0.228 C 
ATOM      3  N   CYS A   1      -1.910   2.028  -1.250  0.00  0.00    -0.265 NA
ATOM      4  CA  CYS A   1      -0.747   1.587  -1.204  0.00  0.00    +0.134 C 
ATOM      5  CB  CYS A   1      -0.013   1.086   0.008  0.00  0.00    +0.131 C 
ATOM      6  SG  CYS A   1      -0.873   1.677   1.499  0.00  0.00    -0.152 S 
ENDROOT
BRANCH   4   7
ATOM      7  C   CYS A   1      -0.003   1.553  -2.486  0.00  0.00    +0.401 C 
ATOM      8  O   CYS A   1       1.136   1.135  -2.516  0.00  0.00    -0.239 OA
ATOM      9  OXT CYS A   1      -0.592   1.985  -3.618  0.00  0.00    -0.239 OA
ENDBRANCH   4   7
BRANCH   2  10
ATOM     10  C   CYS A   1      -4.255   1.854  -0.764  0.00  0.00    +0.381 C 
ATOM     11  O   CYS A   1      -4.336   1.129  -1.726  0.00  0.00    -0.244 OA
ATOM     12  OXT CYS A   1      -5.370   2.319  -0.177  0.00  0.00    -0.244 OA
ENDBRANCH   2  10
TORSDOF 2
