REMARK  Name = ZINC39843519
REMARK  5 active torsions:
REMARK  status: ('A' for Active; 'I' for Inactive)
REMARK    1  A    between atoms: N_14  and  N_15
REMARK    2  A    between atoms: C_20  and  C_23
REMARK    3  A    between atoms: C_23  and  C_24
REMARK    4  A    between atoms: N_26  and  C_27
REMARK    5  A    between atoms: C_30  and  N_33
REMARK                            x       y       z     vdW  Elec       q    Type
REMARK                         _______ _______ _______ _____ _____    ______ ____
ROOT
ATOM      1  N   UNL     1       5.700  -1.547  -0.050  0.00  0.00    -0.126 NA
ATOM      2  C   UNL     1       6.994  -1.260  -0.066  0.00  0.00    +0.183 C 
ATOM      3  N   UNL     1       7.587  -0.021  -0.067  0.00  0.00    -0.263 N 
ATOM      4  C   UNL     1       8.899   0.141  -0.084  0.00  0.00    +0.233 C 
ATOM      5  O   UNL     1       9.413   1.239  -0.085  0.00  0.00    -0.274 OA
ATOM      6  C   UNL     1       9.722  -1.137  -0.103  0.00  0.00    +0.149 C 
ATOM      7  S   UNL     1       8.375  -2.392  -0.084  0.00  0.00    -0.075 S 
ATOM      8  H   UNL     1       7.021   0.767  -0.055  0.00  0.00    +0.157 HD
ENDROOT
BRANCH   1  22
ATOM      9  C   UNL     1      -0.002   1.424   0.023  0.00  0.00    +0.001 A 
ATOM     10  C   UNL     1       1.185   2.139   0.008  0.00  0.00    +0.001 A 
ATOM     11  C   UNL     1       2.396   1.480  -0.007  0.00  0.00    +0.011 A 
ATOM     12  C   UNL     1       2.429   0.086  -0.008  0.00  0.00    +0.010 A 
ATOM     13  C   UNL     1       1.224  -0.642   0.007  0.00  0.00    -0.008 A 
ATOM     14  C   UNL     1       0.010   0.045   0.022  0.00  0.00    +0.009 A 
ATOM     15  C   UNL     1       1.544  -2.083   0.002  0.00  0.00    -0.008 A 
ATOM     16  C   UNL     1       0.736  -3.220   0.011  0.00  0.00    +0.009 A 
ATOM     17  C   UNL     1       1.309  -4.474   0.003  0.00  0.00    +0.001 A 
ATOM     18  C   UNL     1       2.688  -4.619  -0.014  0.00  0.00    +0.001 A 
ATOM     19  C   UNL     1       3.506  -3.509  -0.023  0.00  0.00    +0.011 A 
ATOM     20  C   UNL     1       2.944  -2.232  -0.016  0.00  0.00    +0.010 A 
ATOM     21  C   UNL     1       3.541  -0.883  -0.022  0.00  0.00    +0.102 C 
ATOM     22  N   UNL     1       4.828  -0.597  -0.038  0.00  0.00    -0.146 NA
ENDBRANCH   1  22
BRANCH   6  23
ATOM     23  C   UNL     1      10.598  -1.252   1.145  0.00  0.00    +0.120 C 
BRANCH  23  24
ATOM     24  C   UNL     1      11.484  -2.465   1.028  0.00  0.00    +0.219 C 
ATOM     25  O   UNL     1      11.420  -3.170   0.043  0.00  0.00    -0.275 OA
ATOM     26  N   UNL     1      12.347  -2.768   2.018  0.00  0.00    -0.285 N 
ATOM     27  H   UNL     1      12.446  -2.169   2.775  0.00  0.00    +0.155 HD
BRANCH  26  28
ATOM     28  C   UNL     1      13.099  -3.946   1.955  0.00  0.00    +0.034 A 
ATOM     29  C   UNL     1      13.388  -4.651   3.116  0.00  0.00    +0.025 A 
ATOM     30  C   UNL     1      14.131  -5.813   3.050  0.00  0.00    +0.034 A 
ATOM     31  C   UNL     1      14.586  -6.276   1.829  0.00  0.00    +0.126 A 
ATOM     32  C   UNL     1      14.300  -5.577   0.671  0.00  0.00    +0.034 A 
ATOM     33  C   UNL     1      13.553  -4.417   0.730  0.00  0.00    +0.025 A 
BRANCH  31  34
ATOM     34  N   UNL     1      15.382  -7.522   1.762  0.00  0.00    +0.056 N 
ATOM     35  O   UNL     1      15.633  -8.134   2.774  0.00  0.00    -0.126 OA
ATOM     36  O   UNL     1      15.781  -7.928   0.695  0.00  0.00    -0.126 OA
ENDBRANCH  31  34
ENDBRANCH  26  28
ENDBRANCH  23  24
ENDBRANCH   6  23
TORSDOF 5
