REMARK  Name = ZINC18196312
REMARK  5 active torsions:
REMARK  status: ('A' for Active; 'I' for Inactive)
REMARK    1  A    between atoms: C_3  and  C_6
REMARK    2  A    between atoms: C_11  and  C_21
REMARK    3  A    between atoms: C_18  and  O_19
REMARK    4  A    between atoms: C_23  and  N_28
REMARK    5  A    between atoms: C_26  and  O_27
REMARK                            x       y       z     vdW  Elec       q    Type
REMARK                         _______ _______ _______ _____ _____    ______ ____
ROOT
ATOM      1  C   UNL     1       3.761   1.845  -0.024  0.00  0.00    +0.039 C 
ATOM      2  C   UNL     1       4.506   1.324   1.206  0.00  0.00    +0.060 C 
ATOM      3  C   UNL     1       5.939   1.805   1.174  0.00  0.00    +0.017 C 
ATOM      4  C   UNL     1       6.578   1.994  -0.000  0.00  0.00    +0.024 C 
ATOM      5  C   UNL     1       8.018   2.454  -0.076  0.00  0.00    +0.096 C 
ATOM      6  C   UNL     1       8.451   2.980   1.263  0.00  0.00    +0.067 A 
ATOM      7  C   UNL     1       7.729   2.760   2.406  0.00  0.00    +0.126 A 
ATOM      8  N   UNL     1       8.380   3.354   3.425  0.00  0.00    -0.260 N 
ATOM      9  H   UNL     1       8.102   3.361   4.354  0.00  0.00    +0.190 HD
ATOM     10  N   UNL     1       9.533   3.959   2.900  0.00  0.00    -0.134 NA
ATOM     11  C   UNL     1       9.571   3.732   1.605  0.00  0.00    +0.237 A 
ATOM     12  N   UNL     1       6.541   2.038   2.385  0.00  0.00    -0.303 N 
ATOM     13  C   UNL     1       5.919   1.776  -1.224  0.00  0.00    +0.162 C 
ATOM     14  O   UNL     1       6.525   1.948  -2.263  0.00  0.00    -0.292 OA
ATOM     15  C   UNL     1       4.483   1.336  -1.276  0.00  0.00    +0.088 C 
ATOM     16  H   UNL     1       6.147   1.707   3.207  0.00  0.00    +0.153 HD
ENDROOT
BRANCH   5  17
ATOM     17  C   UNL     1       8.896   1.292  -0.465  0.00  0.00    +0.008 A 
ATOM     18  C   UNL     1       8.942   0.164   0.330  0.00  0.00    +0.041 A 
ATOM     19  C   UNL     1       9.747  -0.902  -0.027  0.00  0.00    +0.127 A 
ATOM     20  C   UNL     1      10.507  -0.842  -1.180  0.00  0.00    +0.036 A 
ATOM     21  C   UNL     1      10.465   0.285  -1.978  0.00  0.00    +0.048 A 
ATOM     22  C   UNL     1       9.653   1.353  -1.625  0.00  0.00    +0.121 A 
BRANCH  19  23
ATOM     23  N   UNL     1       9.795  -2.110   0.827  0.00  0.00    +0.056 N 
ATOM     24  O   UNL     1       9.130  -2.164   1.836  0.00  0.00    -0.126 OA
ATOM     25  O   UNL     1      10.498  -3.043   0.516  0.00  0.00    -0.126 OA
ENDBRANCH  19  23
BRANCH  22  26
ATOM     26  O   UNL     1       9.606   2.461  -2.412  0.00  0.00    -0.506 OA
ATOM     27  H   UNL     1      10.262   3.134  -2.184  0.00  0.00    +0.292 HD
ENDBRANCH  22  26
ENDBRANCH   5  17
BRANCH   1  30
ATOM     28  C   UNL     1      -0.016   1.351   0.009  0.00  0.00    +0.008 A 
ATOM     29  C   UNL     1       1.183   2.038   0.002  0.00  0.00    +0.011 A 
ATOM     30  C   UNL     1       2.343   1.336  -0.013  0.00  0.00    -0.006 A 
ATOM     31  S   UNL     1       1.754  -0.349  -0.017  0.00  0.00    -0.101 S 
ATOM     32  C   UNL     1       0.002  -0.004   0.002  0.00  0.00    +0.045 A 
ENDBRANCH   1  30
BRANCH  11  33
ATOM     33  O   UNL     1      10.537   4.158   0.749  0.00  0.00    -0.491 OA
ATOM     34  H   UNL     1      10.361   5.025   0.357  0.00  0.00    +0.294 HD
ENDBRANCH  11  33
TORSDOF 5
