REMARK  Name = ZINC36031353
REMARK  13 active torsions:
REMARK  status: ('A' for Active; 'I' for Inactive)
REMARK    1  A    between atoms: C_1  and  C_2
REMARK    2  A    between atoms: C_5  and  N_8
REMARK    3  A    between atoms: N_11  and  C_12
REMARK    4  A    between atoms: N_11  and  C_18
REMARK    5  A    between atoms: C_12  and  C_13
REMARK    6  A    between atoms: C_18  and  C_19
REMARK    7  A    between atoms: C_22  and  S_28
REMARK    8  A    between atoms: N_23  and  C_24
REMARK    9  A    between atoms: C_24  and  C_25
REMARK   10  A    between atoms: C_25  and  C_26
REMARK   11  A    between atoms: C_25  and  C_27
REMARK   12  A    between atoms: S_28  and  C_31
REMARK   13  A    between atoms: C_31  and  C_32
REMARK                            x       y       z     vdW  Elec       q    Type
REMARK                         _______ _______ _______ _____ _____    ______ ____
ROOT
ATOM      1  C   UNL     1      -0.021  -6.957   2.160  0.00  0.00    +0.164 C 
ENDROOT
BRANCH   1   5
ATOM      2  N   UNL     1       1.570 -10.267   2.013  0.00  0.00    -0.269 N 
ATOM      3  C   UNL     1       0.858  -9.176   1.668  0.00  0.00    +0.307 C 
ATOM      4  O   UNL     1       0.233  -9.162   0.625  0.00  0.00    -0.252 OA
ATOM      5  N   UNL     1       0.840  -8.099   2.479  0.00  0.00    -0.272 N 
ATOM      6  H   UNL     1       2.053 -10.285   2.854  0.00  0.00    +0.156 HD
BRANCH   2  11
ATOM      7  C   UNL     1       1.740 -14.756  -1.452  0.00  0.00    +0.044 C 
ATOM      8  C   UNL     1       1.695 -13.563  -0.532  0.00  0.00    -0.050 A 
ATOM      9  C   UNL     1       2.794 -13.250   0.246  0.00  0.00    +0.005 A 
ATOM     10  C   UNL     1       2.756 -12.158   1.091  0.00  0.00    +0.023 A 
ATOM     11  C   UNL     1       1.612 -11.374   1.158  0.00  0.00    +0.035 A 
ATOM     12  C   UNL     1       0.509 -11.691   0.376  0.00  0.00    +0.023 A 
ATOM     13  C   UNL     1       0.556 -12.781  -0.471  0.00  0.00    +0.005 A 
ENDBRANCH   2  11
BRANCH   5  14
ATOM     14  C   UNL     1       1.680  -8.071   3.678  0.00  0.00    +0.184 C 
BRANCH  14  15
ATOM     15  C   UNL     1       3.022  -7.477   3.337  0.00  0.00    +0.122 A 
ATOM     16  C   UNL     1       3.346  -6.173   3.407  0.00  0.00    +0.046 A 
ATOM     17  C   UNL     1       4.696  -6.064   3.000  0.00  0.00    +0.041 A 
ATOM     18  C   UNL     1       5.116  -7.308   2.707  0.00  0.00    +0.195 A 
ATOM     19  O   UNL     1       4.100  -8.160   2.919  0.00  0.00    -0.466 OA
ENDBRANCH  14  15
ENDBRANCH   5  14
ENDBRANCH   1   5
BRANCH   1  20
ATOM     20  C   UNL     1      -1.369  -7.147   2.807  0.00  0.00    +0.057 A 
ATOM     21  C   UNL     1      -2.116  -8.268   2.789  0.00  0.00    +0.137 A 
ATOM     22  N   UNL     1      -3.242  -8.026   3.478  0.00  0.00    -0.220 NA
ATOM     23  C   UNL     1      -3.220  -6.799   3.921  0.00  0.00    +0.252 A 
ATOM     24  N   UNL     1      -2.066  -6.218   3.530  0.00  0.00    -0.311 N 
BRANCH  23  25
ATOM     25  S   UNL     1      -4.484  -6.030   4.878  0.00  0.00    +0.034 S 
ATOM     26  O   UNL     1      -4.353  -4.642   4.604  0.00  0.00    -0.166 OA
ATOM     27  O   UNL     1      -5.674  -6.727   4.534  0.00  0.00    -0.166 OA
BRANCH  25  28
ATOM     28  C   UNL     1      -4.037  -6.372   6.603  0.00  0.00    +0.210 C 
BRANCH  28  29
ATOM     29  C   UNL     1      -5.061  -5.755   7.519  0.00  0.00    -0.026 A 
ATOM     30  C   UNL     1      -4.893  -4.458   7.970  0.00  0.00    +0.005 A 
ATOM     31  C   UNL     1      -5.832  -3.892   8.810  0.00  0.00    +0.000 A 
ATOM     32  C   UNL     1      -6.940  -4.621   9.201  0.00  0.00    +0.000 A 
ATOM     33  C   UNL     1      -7.108  -5.917   8.750  0.00  0.00    +0.000 A 
ATOM     34  C   UNL     1      -6.171  -6.482   7.905  0.00  0.00    +0.005 A 
ENDBRANCH  28  29
ENDBRANCH  25  28
ENDBRANCH  23  25
BRANCH  24  35
ATOM     35  C   UNL     1      -1.640  -4.846   3.822  0.00  0.00    +0.128 C 
BRANCH  35  36
ATOM     36  C   UNL     1      -2.152  -3.909   2.726  0.00  0.00    +0.003 C 
ATOM     37  C   UNL     1      -1.847  -2.460   3.111  0.00  0.00    +0.009 C 
ATOM     38  C   UNL     1      -1.457  -4.242   1.405  0.00  0.00    +0.009 C 
ENDBRANCH  35  36
ENDBRANCH  24  35
ENDBRANCH   1  20
TORSDOF 10
