REMARK  Name = ZINC03035957
REMARK  9 active torsions:
REMARK  status: ('A' for Active; 'I' for Inactive)
REMARK    1  A    between atoms: C_1  and  C_2
REMARK    2  A    between atoms: C_2  and  N_3
REMARK    3  A    between atoms: N_3  and  C_4
REMARK    4  A    between atoms: N_3  and  C_29
REMARK    5  A    between atoms: C_4  and  C_5
REMARK    6  A    between atoms: C_5  and  N_6
REMARK    7  A    between atoms: C_7  and  C_9
REMARK    8  A    between atoms: C_9  and  N_10
REMARK    9  A    between atoms: C_19  and  C_20
REMARK                            x       y       z     vdW  Elec       q    Type
REMARK                         _______ _______ _______ _____ _____    ______ ____
ROOT
ATOM      1  N   UNL     1      -3.143  -3.616   6.398  0.00  0.00    -0.253 N 
ATOM      2  C   UNL     1      -2.708  -4.825   5.840  0.00  0.00    +0.080 A 
ATOM      3  C   UNL     1      -2.845  -5.048   4.476  0.00  0.00    +0.027 A 
ATOM      4  C   UNL     1      -2.410  -6.239   3.926  0.00  0.00    +0.002 A 
ATOM      5  C   UNL     1      -1.833  -7.207   4.728  0.00  0.00    +0.004 A 
ATOM      6  C   UNL     1      -1.689  -6.990   6.086  0.00  0.00    +0.048 A 
ATOM      7  C   UNL     1      -2.124  -5.800   6.645  0.00  0.00    +0.150 A 
ATOM      8  O   UNL     1      -1.986  -5.582   7.983  0.00  0.00    -0.449 OA
ATOM      9  C   UNL     1      -1.900  -4.273   8.371  0.00  0.00    +0.191 C 
ATOM     10  C   UNL     1      -1.068  -3.885   9.363  0.00  0.00    +0.059 C 
ATOM     11  C   UNL     1      -2.758  -3.302   7.659  0.00  0.00    +0.287 C 
ATOM     12  O   UNL     1      -3.104  -2.261   8.184  0.00  0.00    -0.266 OA
ENDROOT
BRANCH  10  13
ATOM     13  C   UNL     1      -0.853  -2.452   9.623  0.00  0.00    -0.020 A 
ATOM     14  C   UNL     1      -0.800  -1.544   8.561  0.00  0.00    +0.008 A 
ATOM     15  C   UNL     1      -0.598  -0.204   8.813  0.00  0.00    +0.002 A 
ATOM     16  C   UNL     1      -0.447   0.244  10.113  0.00  0.00    +0.015 A 
ATOM     17  C   UNL     1      -0.498  -0.648  11.171  0.00  0.00    +0.018 A 
ATOM     18  C   UNL     1      -0.705  -1.992  10.935  0.00  0.00    +0.023 A 
ATOM     19 BR   UNL     1      -0.291  -0.022  12.944  0.00  0.00    -0.050 Br
ENDBRANCH  10  13
BRANCH   1  20
ATOM     20  C   UNL     1      -4.005  -2.710   5.635  0.00  0.00    +0.209 C 
BRANCH  20  22
ATOM     21  N   UNL     1      -3.732  -0.807   4.078  0.00  0.00    -0.313 N 
ATOM     22  C   UNL     1      -3.151  -1.740   4.858  0.00  0.00    +0.231 C 
ATOM     23  O   UNL     1      -1.943  -1.801   4.935  0.00  0.00    -0.274 OA
ATOM     24  H   UNL     1      -4.828  -0.752   4.009  0.00  0.00    +0.149 HD
BRANCH  21  25
ATOM     25  C   UNL     1      -2.902   0.136   3.323  0.00  0.00    +0.123 C 
BRANCH  25  26
ATOM     26  C   UNL     1      -3.802   1.082   2.526  0.00  0.00    +0.124 C 
BRANCH  26  27
ATOM     27  N   UNL     1      -2.972   2.024   1.771  0.00  0.00    -0.329 N 
BRANCH  27  28
ATOM     28  C   UNL     1      -2.598   3.241   2.346  0.00  0.00    +0.030 A 
ATOM     29  C   UNL     1      -3.016   3.562   3.631  0.00  0.00    +0.023 A 
ATOM     30  C   UNL     1      -2.639   4.763   4.198  0.00  0.00    +0.002 A 
ATOM     31  C   UNL     1      -1.856   5.652   3.484  0.00  0.00    +0.000 A 
ATOM     32  C   UNL     1      -1.443   5.338   2.203  0.00  0.00    +0.002 A 
ATOM     33  C   UNL     1      -1.811   4.136   1.631  0.00  0.00    +0.023 A 
ENDBRANCH  27  28
BRANCH  27  35
ATOM     34  C   UNL     1      -3.572   2.193  -0.594  0.00  0.00    +0.024 C 
ATOM     35  C   UNL     1      -2.535   1.690   0.413  0.00  0.00    +0.102 C 
ENDBRANCH  27  35
ENDBRANCH  26  27
ENDBRANCH  25  26
ENDBRANCH  21  25
ENDBRANCH  20  22
ENDBRANCH   1  20
TORSDOF 8
