REMARK  Name = ZINC32679044
REMARK  5 active torsions:
REMARK  status: ('A' for Active; 'I' for Inactive)
REMARK    1  A    between atoms: C_1  and  N_2
REMARK    2  A    between atoms: C_9  and  N_18
REMARK    3  A    between atoms: N_18  and  C_19
REMARK    4  A    between atoms: C_22  and  C_28
REMARK    5  A    between atoms: C_24  and  N_25
REMARK                            x       y       z     vdW  Elec       q    Type
REMARK                         _______ _______ _______ _____ _____    ______ ____
ROOT
ATOM      1  C   UNL     1      -3.634  11.743  -0.363  0.00  0.00    -0.096 C 
ATOM      2  N   UNL     1      -3.600  10.293  -0.594  0.00  0.00    +0.378 N 
ATOM      3  C   UNL     1      -2.441   9.682   0.070  0.00  0.00    -0.075 C 
ATOM      4  C   UNL     1      -2.355   8.202  -0.314  0.00  0.00    +0.029 C 
ATOM      5  C   UNL     1      -3.644   7.496   0.109  0.00  0.00    +0.109 C 
ATOM      6  C   UNL     1      -4.841   8.182  -0.551  0.00  0.00    +0.029 C 
ATOM      7  C   UNL     1      -4.854   9.662  -0.162  0.00  0.00    -0.075 C 
ATOM      8  C   UNL     1      -3.589   6.027  -0.324  0.00  0.00    +0.075 C 
ATOM      9  C   UNL     1      -2.317   5.403   0.257  0.00  0.00    +0.108 C 
ATOM     10  C   UNL     1      -2.198   5.756   1.718  0.00  0.00    +0.014 A 
ATOM     11  C   UNL     1      -1.339   5.016   2.513  0.00  0.00    +0.009 A 
ATOM     12  C   UNL     1      -1.201   5.313   3.855  0.00  0.00    +0.001 A 
ATOM     13  C   UNL     1      -1.922   6.354   4.410  0.00  0.00    +0.004 A 
ATOM     14  C   UNL     1      -2.780   7.094   3.623  0.00  0.00    +0.046 A 
ATOM     15  C   UNL     1      -2.922   6.796   2.271  0.00  0.00    +0.126 A 
ATOM     16  O   UNL     1      -3.778   7.547   1.529  0.00  0.00    -0.485 OA
ATOM     17  H   UNL     1      -3.495  10.123  -1.675  0.00  0.00    -0.082 HD
ENDROOT
BRANCH   9  18
ATOM     18  N   UNL     1      -2.378   3.947   0.110  0.00  0.00    -0.335 N 
ATOM     19  H   UNL     1      -3.352   3.442   0.038  0.00  0.00    +0.147 HD
BRANCH  18  20
ATOM     20  C   UNL     1      -1.198   3.200   0.063  0.00  0.00    +0.058 A 
ATOM     21  C   UNL     1       0.032   3.844   0.012  0.00  0.00    +0.026 A 
ATOM     22  C   UNL     1       1.196   3.103  -0.035  0.00  0.00    +0.014 A 
ATOM     23  C   UNL     1       1.138   1.721  -0.031  0.00  0.00    +0.057 A 
ATOM     24  C   UNL     1      -0.085   1.077   0.019  0.00  0.00    +0.047 A 
ATOM     25  C   UNL     1      -1.253   1.812   0.060  0.00  0.00    +0.147 A 
BRANCH  23  26
ATOM     26  C   UNL     1       2.410   0.915  -0.083  0.00  0.00    +0.417 C 
ATOM     27  F   UNL     1       2.751   0.665  -1.416  0.00  0.00    -0.166 F 
ATOM     28  F   UNL     1       3.441   1.631   0.535  0.00  0.00    -0.166 F 
ATOM     29  F   UNL     1       2.221  -0.299   0.586  0.00  0.00    -0.166 F 
ENDBRANCH  23  26
BRANCH  25  30
ATOM     30  N   UNL     1      -2.561   1.122   0.107  0.00  0.00    +0.058 N 
ATOM     31  O   UNL     1      -2.607  -0.090   0.221  0.00  0.00    -0.126 OA
ATOM     32  O   UNL     1      -3.593   1.766   0.033  0.00  0.00    -0.126 OA
ENDBRANCH  25  30
ENDBRANCH  18  20
ENDBRANCH   9  18
TORSDOF 4
