REMARK  Name = ZINC03528822
REMARK  11 active torsions:
REMARK  status: ('A' for Active; 'I' for Inactive)
REMARK    1  A    between atoms: C_1  and  C_2
REMARK    2  A    between atoms: C_2  and  C_3
REMARK    3  A    between atoms: C_2  and  C_4
REMARK    4  A    between atoms: C_2  and  C_5
REMARK    5  A    between atoms: C_8  and  C_11
REMARK    6  A    between atoms: C_14  and  S_17
REMARK    7  A    between atoms: N_15  and  N_16
REMARK    8  A    between atoms: S_17  and  C_18
REMARK    9  A    between atoms: C_18  and  C_19
REMARK   10  A    between atoms: N_21  and  C_22
REMARK   11  A    between atoms: C_24  and  N_29
REMARK                            x       y       z     vdW  Elec       q    Type
REMARK                         _______ _______ _______ _____ _____    ______ ____
ROOT
ATOM      1  C   UNL     1      -1.235  -1.991   0.105  0.00  0.00    +0.182 A 
ATOM      2  N   UNL     1       0.075  -2.080   0.101  0.00  0.00    -0.127 NA
ATOM      3  N   UNL     1       0.595  -0.905   0.078  0.00  0.00    -0.121 NA
ATOM      4  C   UNL     1      -0.352   0.007   0.075  0.00  0.00    +0.209 A 
ATOM      5  N   UNL     1      -1.548  -0.652   0.088  0.00  0.00    -0.224 N 
ENDROOT
BRANCH   1   9
ATOM      6  C   UNL     1      -3.986  -5.227   0.160  0.00  0.00    -0.042 A 
ATOM      7  C   UNL     1      -4.403  -3.975  -0.257  0.00  0.00    +0.005 A 
ATOM      8  C   UNL     1      -3.514  -2.920  -0.278  0.00  0.00    +0.012 A 
ATOM      9  C   UNL     1      -2.192  -3.117   0.124  0.00  0.00    +0.021 A 
ATOM     10  C   UNL     1      -1.777  -4.384   0.539  0.00  0.00    +0.012 A 
ATOM     11  C   UNL     1      -2.676  -5.429   0.559  0.00  0.00    +0.005 A 
BRANCH   6  13
ATOM     12  C   UNL     1      -5.497  -6.614  -1.234  0.00  0.00    +0.015 C 
ATOM     13  C   UNL     1      -4.962  -6.375   0.179  0.00  0.00    -0.013 C 
ATOM     14  C   UNL     1      -4.255  -7.637   0.677  0.00  0.00    +0.015 C 
ATOM     15  C   UNL     1      -6.125  -6.040   1.115  0.00  0.00    +0.015 C 
ENDBRANCH   6  13
ENDBRANCH   1   9
BRANCH   5  16
ATOM     16  N   UNL     1      -2.796  -0.096   0.086  0.00  0.00    -0.295 N 
ATOM     17  H   UNL     1      -3.099   0.109  -0.854  0.00  0.00    +0.163 HD
ATOM     18  H   UNL     1      -3.459  -0.693   0.557  0.00  0.00    +0.163 HD
ENDBRANCH   5  16
BRANCH   4  19
ATOM     19  S   UNL     1      -0.120   1.753   0.049  0.00  0.00    -0.075 S 
BRANCH  19  20
ATOM     20  C   UNL     1       1.688   1.830   0.041  0.00  0.00    +0.173 C 
BRANCH  20  21
ATOM     21  C   UNL     1       2.130   3.271   0.019  0.00  0.00    +0.228 C 
ATOM     22  O   UNL     1       1.303   4.158   0.010  0.00  0.00    -0.275 OA
ATOM     23  N   UNL     1       3.443   3.573   0.010  0.00  0.00    -0.284 N 
ATOM     24  H   UNL     1       4.103   2.866  -0.066  0.00  0.00    +0.155 HD
BRANCH  23  25
ATOM     25  C   UNL     1       3.855   4.907   0.109  0.00  0.00    +0.054 A 
ATOM     26  C   UNL     1       3.030   5.847   0.714  0.00  0.00    +0.057 A 
ATOM     27  C   UNL     1       3.441   7.162   0.815  0.00  0.00    +0.128 A 
ATOM     28  C   UNL     1       4.668   7.546   0.305  0.00  0.00    +0.034 A 
ATOM     29  C   UNL     1       5.490   6.614  -0.302  0.00  0.00    +0.024 A 
ATOM     30  C   UNL     1       5.087   5.296  -0.402  0.00  0.00    +0.062 A 
ATOM     31 CL   UNL     1       6.120   4.127  -1.164  0.00  0.00    -0.082 Cl
BRANCH  27  32
ATOM     32  N   UNL     1       2.564   8.162   1.464  0.00  0.00    +0.056 N 
ATOM     33  O   UNL     1       2.924   9.323   1.549  0.00  0.00    -0.126 OA
ATOM     34  O   UNL     1       1.483   7.825   1.912  0.00  0.00    -0.126 OA
ENDBRANCH  27  32
ENDBRANCH  23  25
ENDBRANCH  20  21
ENDBRANCH  19  20
ENDBRANCH   4  19
TORSDOF 8
