REMARK  Name = ZINC36812559
REMARK  8 active torsions:
REMARK  status: ('A' for Active; 'I' for Inactive)
REMARK    1  A    between atoms: C_1  and  C_2
REMARK    2  A    between atoms: C_11  and  N_33
REMARK    3  A    between atoms: C_13  and  S_15
REMARK    4  A    between atoms: S_15  and  C_16
REMARK    5  A    between atoms: C_16  and  C_17
REMARK    6  A    between atoms: N_19  and  C_20
REMARK    7  A    between atoms: C_20  and  C_21
REMARK    8  A    between atoms: N_23  and  C_24
REMARK                            x       y       z     vdW  Elec       q    Type
REMARK                         _______ _______ _______ _____ _____    ______ ____
ROOT
ATOM      1  C   UNL     1       4.640  -7.652  -0.767  0.00  0.00    +0.173 C 
ENDROOT
BRANCH   1   2
ATOM      2  C   UNL     1       5.072  -9.095  -0.716  0.00  0.00    +0.224 C 
ATOM      3  O   UNL     1       5.236  -9.641   0.354  0.00  0.00    -0.275 OA
ATOM      4  N   UNL     1       5.276  -9.779  -1.860  0.00  0.00    -0.306 N 
ATOM      5  H   UNL     1       5.144  -9.342  -2.716  0.00  0.00    +0.149 HD
BRANCH   4   6
ATOM      6  C   UNL     1       5.696 -11.181  -1.810  0.00  0.00    +0.200 C 
BRANCH   6   7
ATOM      7  C   UNL     1       5.853 -11.709  -3.213  0.00  0.00    +0.234 C 
ATOM      8  O   UNL     1       5.636 -10.984  -4.161  0.00  0.00    -0.274 OA
ATOM      9  N   UNL     1       6.236 -12.985  -3.414  0.00  0.00    -0.282 N 
ATOM     10  H   UNL     1       6.328 -13.588  -2.660  0.00  0.00    +0.155 HD
BRANCH   9  11
ATOM     11  C   UNL     1       6.499 -13.442  -4.713  0.00  0.00    +0.072 A 
ATOM     12  C   UNL     1       6.766 -12.533  -5.728  0.00  0.00    +0.029 A 
ATOM     13  C   UNL     1       7.025 -12.984  -7.008  0.00  0.00    +0.043 A 
ATOM     14  C   UNL     1       7.020 -14.341  -7.281  0.00  0.00    +0.161 A 
ATOM     15  C   UNL     1       6.754 -15.252  -6.270  0.00  0.00    +0.195 A 
ATOM     16  C   UNL     1       6.499 -14.805  -4.984  0.00  0.00    +0.182 A 
ATOM     17  F   UNL     1       6.246 -15.692  -3.997  0.00  0.00    -0.200 F 
ATOM     18  F   UNL     1       6.748 -16.576  -6.538  0.00  0.00    -0.199 F 
ATOM     19  F   UNL     1       7.274 -14.778  -8.534  0.00  0.00    -0.202 F 
ENDBRANCH   9  11
ENDBRANCH   6   7
ENDBRANCH   4   6
ENDBRANCH   1   2
BRANCH   1  20
ATOM     20  S   UNL     1       4.451  -7.018   0.921  0.00  0.00    -0.077 S 
BRANCH  20  32
ATOM     21  C   UNL     1       1.450   2.717   0.445  0.00  0.00    +0.008 C 
ATOM     22  C   UNL     1       1.598   1.198   0.333  0.00  0.00    -0.009 C 
ATOM     23  C   UNL     1       2.573   0.859  -0.798  0.00  0.00    +0.008 C 
ATOM     24  C   UNL     1       2.538  -0.644  -1.079  0.00  0.00    +0.037 C 
ATOM     25  C   UNL     1       2.766  -1.397   0.228  0.00  0.00    -0.025 A 
ATOM     26  C   UNL     1       2.582  -0.781   1.417  0.00  0.00    -0.004 A 
ATOM     27  S   UNL     1       2.951  -2.010   2.644  0.00  0.00    -0.073 S 
ATOM     28  C   UNL     1       3.351  -3.347   1.565  0.00  0.00    +0.115 A 
ATOM     29  C   UNL     1       3.183  -2.790   0.273  0.00  0.00    +0.051 A 
ATOM     30  C   UNL     1       3.439  -3.645  -0.838  0.00  0.00    +0.129 A 
ATOM     31  N   UNL     1       3.812  -4.888  -0.542  0.00  0.00    -0.207 NA
ATOM     32  C   UNL     1       3.949  -5.344   0.694  0.00  0.00    +0.191 A 
ATOM     33  N   UNL     1       3.724  -4.594   1.775  0.00  0.00    -0.214 NA
ATOM     34  C   UNL     1       2.154   0.636   1.649  0.00  0.00    +0.046 C 
BRANCH  30  35
ATOM     35  N   UNL     1       3.307  -3.210  -2.144  0.00  0.00    -0.343 N 
ATOM     36  H   UNL     1       3.692  -3.727  -2.869  0.00  0.00    +0.144 HD
ATOM     37  H   UNL     1       2.829  -2.388  -2.336  0.00  0.00    +0.144 HD
ENDBRANCH  30  35
ENDBRANCH  20  32
ENDBRANCH   1  20
TORSDOF 7
