REMARK  Name = ZINC56693853
REMARK  7 active torsions:
REMARK  status: ('A' for Active; 'I' for Inactive)
REMARK    1  A    between atoms: C_1  and  C_2
REMARK    2  A    between atoms: C_10  and  C_11
REMARK    3  A    between atoms: C_11  and  C_13
REMARK    4  A    between atoms: C_11  and  N_14
REMARK    5  A    between atoms: N_17  and  C_18
REMARK    6  A    between atoms: C_21  and  C_25
REMARK    7  A    between atoms: N_27  and  C_28
REMARK                            x       y       z     vdW  Elec       q    Type
REMARK                         _______ _______ _______ _____ _____    ______ ____
ROOT
ATOM      1  N   UNL     1       1.021  -1.121   3.261  0.00  0.00    -0.290 N 
ATOM      2  C   UNL     1       1.579  -0.594   4.369  0.00  0.00    +0.304 C 
ATOM      3  O   UNL     1       1.259   0.519   4.740  0.00  0.00    -0.252 OA
ATOM      4  N   UNL     1       2.492  -1.300   5.065  0.00  0.00    -0.269 N 
ATOM      5  H   UNL     1       1.276  -2.009   2.965  0.00  0.00    +0.151 HD
ATOM      6  H   UNL     1       2.698  -2.212   4.808  0.00  0.00    +0.156 HD
ENDROOT
BRANCH   4   7
ATOM      7  C   UNL     1       3.140  -0.719   6.155  0.00  0.00    +0.036 A 
ATOM      8  C   UNL     1       2.453   0.169   6.978  0.00  0.00    +0.024 A 
ATOM      9  C   UNL     1       3.088   0.744   8.055  0.00  0.00    +0.016 A 
ATOM     10  C   UNL     1       4.425   0.438   8.321  0.00  0.00    +0.055 A 
ATOM     11  C   UNL     1       5.113  -0.454   7.492  0.00  0.00    +0.055 A 
ATOM     12  C   UNL     1       4.468  -1.031   6.419  0.00  0.00    +0.044 A 
ATOM     13 CL   UNL     1       6.774  -0.839   7.817  0.00  0.00    -0.083 Cl
BRANCH  10  14
ATOM     14  C   UNL     1       5.110   1.053   9.474  0.00  0.00    +0.245 C 
ATOM     15  O   UNL     1       6.273   0.785   9.704  0.00  0.00    -0.270 OA
ATOM     16  N   UNL     1       4.445   1.913  10.272  0.00  0.00    -0.314 N 
ATOM     17  C   UNL     1       5.125   2.524  11.416  0.00  0.00    +0.128 C 
ATOM     18  H   UNL     1       3.517   2.126  10.088  0.00  0.00    +0.149 HD
ENDBRANCH  10  14
ENDBRANCH   4   7
BRANCH   1  19
ATOM     19  C   UNL     1       0.029  -0.354   2.505  0.00  0.00    +0.138 C 
ATOM     20  C   UNL     1      -1.356  -0.561   3.123  0.00  0.00    +0.036 C 
BRANCH  19  30
ATOM     21  C   UNL     1      -0.017   1.487   0.001  0.00  0.00    +0.048 C 
ATOM     22  C   UNL     1      -0.005  -0.020   0.001  0.00  0.00    +0.000 A 
ATOM     23  C   UNL     1      -0.006  -0.902  -1.172  0.00  0.00    +0.023 A 
ATOM     24  C   UNL     1      -0.017  -0.691  -2.550  0.00  0.00    +0.012 A 
ATOM     25  C   UNL     1      -0.015  -1.762  -3.400  0.00  0.00    +0.001 A 
ATOM     26  C   UNL     1      -0.001  -3.056  -2.899  0.00  0.00    +0.004 A 
ATOM     27  C   UNL     1       0.011  -3.284  -1.540  0.00  0.00    +0.047 A 
ATOM     28  C   UNL     1       0.009  -2.209  -0.659  0.00  0.00    +0.136 A 
ATOM     29  O   UNL     1       0.017  -2.112   0.686  0.00  0.00    -0.458 OA
ATOM     30  C   UNL     1       0.015  -0.824   1.073  0.00  0.00    +0.129 A 
ENDBRANCH  19  30
ENDBRANCH   1  19
TORSDOF 4
