REMARK  Name = ZINC13896464
REMARK  8 active torsions:
REMARK  status: ('A' for Active; 'I' for Inactive)
REMARK    1  A    between atoms: C_1  and  O_2
REMARK    2  A    between atoms: O_2  and  C_3
REMARK    3  A    between atoms: C_8  and  C_9
REMARK    4  A    between atoms: C_22  and  N_26
REMARK    5  A    between atoms: C_23  and  C_24
REMARK    6  A    between atoms: C_27  and  C_29
REMARK    7  A    between atoms: C_34  and  O_35
REMARK    8  A    between atoms: O_35  and  C_36
REMARK                            x       y       z     vdW  Elec       q    Type
REMARK                         _______ _______ _______ _____ _____    ______ ____
ROOT
ATOM      1  C   UNL     1      -0.082   5.350   0.030  0.00  0.00    +0.101 C 
ATOM      2  C   UNL     1      -0.782   5.832   1.275  0.00  0.00    +0.008 A 
ATOM      3  C   UNL     1      -0.096   5.800   2.490  0.00  0.00    +0.009 A 
ATOM      4  C   UNL     1      -0.680   6.221   3.644  0.00  0.00    +0.009 A 
ATOM      5  C   UNL     1      -2.001   6.700   3.621  0.00  0.00    -0.014 A 
ATOM      6  C   UNL     1      -2.638   7.142   4.793  0.00  0.00    +0.008 A 
ATOM      7  C   UNL     1      -3.918   7.600   4.731  0.00  0.00    +0.001 A 
ATOM      8  C   UNL     1      -4.608   7.639   3.522  0.00  0.00    +0.001 A 
ATOM      9  C   UNL     1      -4.022   7.218   2.367  0.00  0.00    +0.012 A 
ATOM     10  C   UNL     1      -2.703   6.737   2.392  0.00  0.00    +0.025 A 
ATOM     11  C   UNL     1      -2.066   6.291   1.213  0.00  0.00    +0.142 A 
ATOM     12  O   UNL     1      -2.743   6.327   0.040  0.00  0.00    -0.440 OA
ATOM     13  C   UNL     1      -2.072   6.296  -1.124  0.00  0.00    +0.208 C 
ATOM     14  C   UNL     1      -0.803   5.842  -1.193  0.00  0.00    +0.099 C 
ENDROOT
BRANCH   1  20
ATOM     15  C   UNL     1       1.155   3.169   0.008  0.00  0.00    +0.124 A 
ATOM     16  C   UNL     1       1.174   1.782   0.000  0.00  0.00    +0.046 A 
ATOM     17  C   UNL     1      -0.013   1.076   0.008  0.00  0.00    +0.004 A 
ATOM     18  C   UNL     1      -1.220   1.750   0.017  0.00  0.00    +0.001 A 
ATOM     19  C   UNL     1      -1.242   3.132   0.030  0.00  0.00    +0.008 A 
ATOM     20  C   UNL     1      -0.057   3.844   0.022  0.00  0.00    +0.007 A 
BRANCH  15  22
ATOM     21  C   UNL     1       3.531   3.107  -0.014  0.00  0.00    +0.277 C 
ATOM     22  O   UNL     1       2.321   3.867   0.001  0.00  0.00    -0.495 OA
ENDBRANCH  15  22
ENDBRANCH   1  20
BRANCH  13  23
ATOM     23  N   UNL     1      -2.696   6.737  -2.271  0.00  0.00    -0.251 N 
ATOM     24  C   UNL     1      -3.963   7.193  -2.217  0.00  0.00    +0.254 C 
ATOM     25  O   UNL     1      -4.556   7.215  -1.156  0.00  0.00    -0.270 OA
ATOM     26  H   UNL     1      -2.222   6.719  -3.117  0.00  0.00    +0.158 HD
BRANCH  24  27
ATOM     27  C   UNL     1      -4.629   7.665  -3.445  0.00  0.00    +0.079 A 
ATOM     28  C   UNL     1      -3.949   7.646  -4.665  0.00  0.00    +0.017 A 
ATOM     29  C   UNL     1      -4.579   8.084  -5.810  0.00  0.00    +0.001 A 
ATOM     30  C   UNL     1      -5.882   8.552  -5.755  0.00  0.00    +0.004 A 
ATOM     31  C   UNL     1      -6.564   8.581  -4.555  0.00  0.00    +0.046 A 
ATOM     32  C   UNL     1      -5.947   8.139  -3.394  0.00  0.00    +0.132 A 
BRANCH  32  33
ATOM     33  O   UNL     1      -6.616   8.168  -2.214  0.00  0.00    -0.494 OA
ATOM     34  C   UNL     1      -7.955   8.664  -2.239  0.00  0.00    +0.277 C 
ENDBRANCH  32  33
ENDBRANCH  24  27
ENDBRANCH  13  23
BRANCH  14  35
ATOM     35  C   UNL     1      -0.134   5.829  -2.459  0.00  0.00    +0.101 C 
ATOM     36  N   UNL     1       0.398   5.819  -3.463  0.00  0.00    -0.191 NA
ENDBRANCH  14  35
TORSDOF 6
