REMARK  Name = ZINC58098966
REMARK  5 active torsions:
REMARK  status: ('A' for Active; 'I' for Inactive)
REMARK    1  A    between atoms: C_1  and  C_2
REMARK    2  A    between atoms: C_3  and  C_20
REMARK    3  A    between atoms: C_7  and  C_8
REMARK    4  A    between atoms: C_8  and  C_10
REMARK    5  A    between atoms: C_8  and  O_15
REMARK                            x       y       z     vdW  Elec       q    Type
REMARK                         _______ _______ _______ _____ _____    ______ ____
ROOT
ATOM      1  C   UNL     1      -0.018   1.503   0.010  0.00  0.00    +0.044 C 
ATOM      2  C   UNL     1       0.002  -0.004   0.002  0.00  0.00    -0.040 A 
ATOM      3  C   UNL     1       0.006  -0.683  -1.199  0.00  0.00    -0.026 A 
ATOM      4  C   UNL     1       0.025  -2.076  -1.214  0.00  0.00    +0.040 A 
ATOM      5  C   UNL     1       0.040  -2.762  -0.006  0.00  0.00    -0.017 A 
ATOM      6  C   UNL     1       0.036  -2.082   1.190  0.00  0.00    +0.012 A 
ATOM      7  C   UNL     1       0.023  -0.698   1.198  0.00  0.00    -0.008 A 
ATOM      8  C   UNL     1       0.058  -4.233  -0.352  0.00  0.00    +0.133 C 
ATOM      9  C   UNL     1       0.051  -4.255  -1.866  0.00  0.00    +0.222 C 
ATOM     10  O   UNL     1       0.061  -5.241  -2.572  0.00  0.00    -0.275 OA
ATOM     11  N   UNL     1       0.032  -2.977  -2.280  0.00  0.00    -0.285 N 
ATOM     12  C   UNL     1      -0.011   0.083  -2.497  0.00  0.00    +0.046 C 
ATOM     13  H   UNL     1       0.023  -2.711  -3.213  0.00  0.00    +0.155 HD
ENDROOT
BRANCH   7  14
ATOM     14  C   UNL     1       0.025   0.051   2.506  0.00  0.00    +0.210 C 
BRANCH  14  15
ATOM     15  C   UNL     1       1.439   0.427   2.867  0.00  0.00    +0.138 A 
ATOM     16  C   UNL     1       2.002   1.636   2.688  0.00  0.00    +0.047 A 
ATOM     17  C   UNL     1       3.330   1.544   3.163  0.00  0.00    +0.041 A 
ATOM     18  C   UNL     1       3.500   0.284   3.603  0.00  0.00    +0.195 A 
ATOM     19  O   UNL     1       2.349  -0.386   3.427  0.00  0.00    -0.465 OA
ENDBRANCH  14  15
BRANCH  14  20
ATOM     20  O   UNL     1      -0.523  -0.780   3.531  0.00  0.00    -0.379 OA
ATOM     21  H   UNL     1      -0.036  -1.603   3.673  0.00  0.00    +0.211 HD
ENDBRANCH  14  20
ENDBRANCH   7  14
TORSDOF 3
