REMARK  Name = ZINC59317339
REMARK  13 active torsions:
REMARK  status: ('A' for Active; 'I' for Inactive)
REMARK    1  A    between atoms: C_1  and  C_2
REMARK    2  A    between atoms: C_3  and  C_14
REMARK    3  A    between atoms: C_4  and  C_13
REMARK    4  A    between atoms: C_8  and  C_11
REMARK    5  A    between atoms: C_14  and  C_15
REMARK    6  A    between atoms: C_15  and  C_16
REMARK    7  A    between atoms: N_18  and  C_19
REMARK    8  A    between atoms: C_19  and  C_21
REMARK    9  A    between atoms: C_19  and  C_26
REMARK   10  A    between atoms: C_21  and  C_22
REMARK   11  A    between atoms: C_22  and  C_23
REMARK   12  A    between atoms: C_23  and  C_24
REMARK   13  A    between atoms: C_23  and  C_25
REMARK                            x       y       z     vdW  Elec       q    Type
REMARK                         _______ _______ _______ _____ _____    ______ ____
ROOT
ATOM      1  C   UNL     1      -4.216   1.090   1.466  0.00  0.00    +0.214 C 
ATOM      2  O   UNL     1      -4.796   1.309   0.424  0.00  0.00    -0.276 OA
ATOM      3  N   UNL     1      -4.751   1.498   2.634  0.00  0.00    -0.308 N 
ATOM      4  H   UNL     1      -4.287   1.323   3.468  0.00  0.00    +0.149 HD
ENDROOT
BRANCH   1   5
ATOM      5  C   UNL     1      -2.898   0.360   1.456  0.00  0.00    +0.100 C 
BRANCH   5   6
ATOM      6  C   UNL     1      -2.520   0.011   0.015  0.00  0.00    +0.048 C 
BRANCH   6   9
ATOM      7  C   UNL     1      -0.018   1.503   0.010  0.00  0.00    +0.066 C 
ATOM      8  C   UNL     1       0.002  -0.004   0.002  0.00  0.00    +0.046 A 
ATOM      9  C   UNL     1      -1.202  -0.719   0.004  0.00  0.00    -0.005 A 
ATOM     10  C   UNL     1      -1.170  -2.076  -0.004  0.00  0.00    +0.047 A 
ATOM     11  N   UNL     1       0.036  -2.712  -0.013  0.00  0.00    -0.217 N 
ATOM     12  C   UNL     1       1.190  -1.978  -0.014  0.00  0.00    +0.173 A 
ATOM     13  N   UNL     1       1.150  -0.644  -0.012  0.00  0.00    -0.232 NA
ATOM     14  C   UNL     1       2.255  -2.898  -0.025  0.00  0.00    +0.115 A 
ATOM     15  C   UNL     1       1.687  -4.183  -0.029  0.00  0.00    +0.156 A 
ATOM     16  N   UNL     1       0.384  -4.067  -0.022  0.00  0.00    -0.172 NA
ATOM     17  C   UNL     1      -2.451  -2.869  -0.001  0.00  0.00    +0.066 C 
BRANCH  14  18
ATOM     18  C   UNL     1       3.652  -2.584  -0.029  0.00  0.00    +0.104 C 
ATOM     19  N   UNL     1       4.760  -2.334  -0.033  0.00  0.00    -0.191 NA
ENDBRANCH  14  18
ENDBRANCH   6   9
ENDBRANCH   5   6
ENDBRANCH   1   5
BRANCH   3  20
ATOM     20  C   UNL     1      -6.032   2.208   2.645  0.00  0.00    +0.103 C 
BRANCH  20  21
ATOM     21  C   UNL     1      -6.122   3.066   3.881  0.00  0.00    -0.027 A 
ATOM     22  C   UNL     1      -5.646   2.589   5.088  0.00  0.00    +0.007 A 
ATOM     23  C   UNL     1      -5.728   3.375   6.222  0.00  0.00    +0.020 A 
ATOM     24  C   UNL     1      -6.285   4.639   6.148  0.00  0.00    +0.041 A 
ATOM     25  C   UNL     1      -6.761   5.116   4.939  0.00  0.00    +0.020 A 
ATOM     26  C   UNL     1      -6.673   4.331   3.805  0.00  0.00    +0.007 A 
ATOM     27 CL   UNL     1      -6.388   5.627   7.572  0.00  0.00    -0.084 Cl
ENDBRANCH  20  21
BRANCH  20  28
ATOM     28  C   UNL     1      -7.178   1.193   2.644  0.00  0.00    +0.027 C 
BRANCH  28  29
ATOM     29  C   UNL     1      -7.161   0.406   1.333  0.00  0.00    +0.005 C 
BRANCH  29  30
ATOM     30  C   UNL     1      -8.306  -0.609   1.332  0.00  0.00    -0.017 C 
ATOM     31  C   UNL     1      -8.367  -1.308  -0.027  0.00  0.00    +0.007 C 
ATOM     32  C   UNL     1      -8.067  -1.647   2.430  0.00  0.00    +0.007 C 
ENDBRANCH  29  30
ENDBRANCH  28  29
ENDBRANCH  20  28
ENDBRANCH   3  20
TORSDOF 9
