REMARK  Name = ZINC09350728
REMARK  10 active torsions:
REMARK  status: ('A' for Active; 'I' for Inactive)
REMARK    1  A    between atoms: C_1  and  C_2
REMARK    2  A    between atoms: C_2  and  C_3
REMARK    3  A    between atoms: C_2  and  C_4
REMARK    4  A    between atoms: C_4  and  C_5
REMARK    5  A    between atoms: N_10  and  C_11
REMARK    6  A    between atoms: C_11  and  C_13
REMARK    7  A    between atoms: C_13  and  C_14
REMARK    8  A    between atoms: C_14  and  C_15
REMARK    9  A    between atoms: C_22  and  C_23
REMARK   10  A    between atoms: C_22  and  N_58
REMARK                            x       y       z     vdW  Elec       q    Type
REMARK                         _______ _______ _______ _____ _____    ______ ____
ROOT
ATOM      1  C   UNL     1      -0.718   1.572   1.248  0.00  0.00    +0.216 C 
ATOM      2  O   UNL     1      -1.714   2.256   1.150  0.00  0.00    -0.276 OA
ATOM      3  N   UNL     1      -0.242   1.246   2.466  0.00  0.00    -0.305 N 
ATOM      4  C   UNL     1       0.962   0.412   2.607  0.00  0.00    +0.089 C 
ATOM      5  C   UNL     1       1.934   1.127   3.559  0.00  0.00    -0.059 C 
ATOM      6  C   UNL     1       0.128   2.368   4.598  0.00  0.00    -0.059 C 
ATOM      7  C   UNL     1      -0.915   1.710   3.689  0.00  0.00    +0.089 C 
ATOM      8  N   UNL     1       1.230   1.409   4.829  0.00  0.00    +0.384 N 
ATOM      9  H   UNL     1       0.838   0.533   5.194  0.00  0.00    -0.081 HD
ENDROOT
BRANCH   1  10
ATOM     10  C   UNL     1      -0.013   1.086   0.008  0.00  0.00    +0.105 C 
BRANCH  10  11
ATOM     11  C   UNL     1      -0.753   1.593  -1.232  0.00  0.00    +0.107 C 
BRANCH  11  12
ATOM     12  C   UNL     1      -0.047   1.107  -2.471  0.00  0.00    +0.239 C 
ATOM     13  O   UNL     1       0.952   0.420  -2.373  0.00  0.00    -0.274 OA
BRANCH  12  19
ATOM     14  C   UNL     1       1.631  -0.052  -6.682  0.00  0.00    +0.102 A 
ATOM     15  N   UNL     1       0.600   0.657  -7.040  0.00  0.00    -0.170 NA
ATOM     16  N   UNL     1      -0.206   1.212  -6.070  0.00  0.00    -0.256 N 
ATOM     17  H   UNL     1      -0.980   1.743  -6.312  0.00  0.00    +0.191 HD
ATOM     18  C   UNL     1       0.109   0.997  -4.769  0.00  0.00    +0.181 A 
ATOM     19  N   UNL     1      -0.516   1.427  -3.670  0.00  0.00    -0.155 NA
ATOM     20  S   UNL     1       1.539   0.023  -4.902  0.00  0.00    -0.036 S 
BRANCH  14  21
ATOM     21  C   UNL     1       2.647  -0.751  -7.549  0.00  0.00    +0.067 C 
BRANCH  21  23
ATOM     22  C   UNL     1       4.543   0.528  -6.543  0.00  0.00    +0.007 C 
ATOM     23  C   UNL     1       3.808   0.202  -7.844  0.00  0.00    -0.011 C 
ATOM     24  C   UNL     1       4.776  -0.463  -8.824  0.00  0.00    +0.007 C 
ENDBRANCH  21  23
ENDBRANCH  14  21
ENDBRANCH  12  19
ENDBRANCH  11  12
ENDBRANCH  10  11
ENDBRANCH   1  10
BRANCH   8  25
ATOM     25  C   UNL     1       2.178   1.959   5.820  0.00  0.00    -0.043 C 
BRANCH  25  26
ATOM     26  C   UNL     1       3.163   0.883   6.199  0.00  0.00    -0.064 A 
ATOM     27  C   UNL     1       2.884   0.031   7.251  0.00  0.00    +0.002 A 
ATOM     28  C   UNL     1       3.785  -0.960   7.595  0.00  0.00    +0.000 A 
ATOM     29  C   UNL     1       4.970  -1.091   6.894  0.00  0.00    +0.000 A 
ATOM     30  C   UNL     1       5.250  -0.235   5.845  0.00  0.00    +0.000 A 
ATOM     31  C   UNL     1       4.347   0.752   5.498  0.00  0.00    +0.002 A 
ENDBRANCH  25  26
ENDBRANCH   8  25
TORSDOF 8
