REMARK  Name = ZINC35033998
REMARK  11 active torsions:
REMARK  status: ('A' for Active; 'I' for Inactive)
REMARK    1  A    between atoms: C_1  and  C_2
REMARK    2  A    between atoms: C_2  and  C_3
REMARK    3  A    between atoms: C_3  and  C_5
REMARK    4  A    between atoms: C_3  and  N_18
REMARK    5  A    between atoms: N_15  and  C_16
REMARK    6  A    between atoms: C_16  and  C_17
REMARK    7  A    between atoms: C_22  and  C_25
REMARK    8  A    between atoms: N_28  and  C_29
REMARK    9  A    between atoms: C_32  and  C_35
REMARK   10  A    between atoms: C_35  and  C_36
REMARK   11  A    between atoms: C_35  and  C_37
REMARK                            x       y       z     vdW  Elec       q    Type
REMARK                         _______ _______ _______ _____ _____    ______ ____
ROOT
ATOM      1  N   UNL     1      -0.179  -0.909   3.066  0.00  0.00    +0.388 N 
ATOM      2  C   UNL     1       0.385   0.443   2.962  0.00  0.00    -0.058 C 
ATOM      3  C   UNL     1      -0.493   1.423   3.749  0.00  0.00    +0.091 C 
ATOM      4  N   UNL     1      -0.628   0.925   5.127  0.00  0.00    -0.286 N 
ATOM      5  C   UNL     1      -1.033  -0.475   5.321  0.00  0.00    +0.058 C 
ATOM      6  C   UNL     1      -0.130  -1.366   4.461  0.00  0.00    -0.055 C 
ATOM      7  C   UNL     1      -0.881  -0.854   6.796  0.00  0.00    +0.026 C 
ATOM      8  C   UNL     1      -0.388   1.730   6.181  0.00  0.00    +0.307 C 
ATOM      9  O   UNL     1      -0.408   1.277   7.309  0.00  0.00    -0.252 OA
ATOM     10  N   UNL     1      -0.125   3.037   5.984  0.00  0.00    -0.269 N 
ATOM     11  H   UNL     1      -0.206   3.420   5.097  0.00  0.00    +0.156 HD
ATOM     12  H   UNL     1      -1.138  -0.896   2.752  0.00  0.00    -0.081 HD
ENDROOT
BRANCH  10  13
ATOM     13  C   UNL     1       0.265   3.842   7.061  0.00  0.00    +0.035 A 
ATOM     14  C   UNL     1       0.995   3.297   8.108  0.00  0.00    +0.023 A 
ATOM     15  C   UNL     1       1.379   4.094   9.169  0.00  0.00    +0.006 A 
ATOM     16  C   UNL     1       1.036   5.434   9.188  0.00  0.00    -0.045 A 
ATOM     17  C   UNL     1       0.309   5.979   8.147  0.00  0.00    +0.006 A 
ATOM     18  C   UNL     1      -0.073   5.189   7.080  0.00  0.00    +0.023 A 
BRANCH  16  19
ATOM     19  C   UNL     1       1.457   6.300  10.347  0.00  0.00    +0.013 C 
ATOM     20  C   UNL     1       2.340   7.441   9.837  0.00  0.00    +0.012 C 
ATOM     21  C   UNL     1       0.215   6.881  11.026  0.00  0.00    +0.012 C 
ENDBRANCH  16  19
ENDBRANCH  10  13
BRANCH   1  22
ATOM     22  C   UNL     1       0.598  -1.828   2.224  0.00  0.00    -0.001 C 
BRANCH  22  23
ATOM     23  C   UNL     1       0.033  -3.220   2.345  0.00  0.00    +0.099 A 
ATOM     24  N   UNL     1      -1.252  -3.354   2.478  0.00  0.00    -0.235 NA
ATOM     25  C   UNL     1      -1.831  -4.575   2.593  0.00  0.00    +0.078 A 
ATOM     26  C   UNL     1      -3.213  -4.720   2.736  0.00  0.00    +0.028 A 
ATOM     27  C   UNL     1      -3.758  -5.979   2.849  0.00  0.00    +0.002 A 
ATOM     28  C   UNL     1      -2.951  -7.109   2.822  0.00  0.00    +0.001 A 
ATOM     29  C   UNL     1      -1.585  -6.992   2.683  0.00  0.00    +0.015 A 
ATOM     30  C   UNL     1      -1.013  -5.727   2.567  0.00  0.00    +0.065 A 
ATOM     31  C   UNL     1       0.437  -5.540   2.415  0.00  0.00    +0.262 A 
ATOM     32  O   UNL     1       1.197  -6.490   2.385  0.00  0.00    -0.267 OA
ATOM     33  N   UNL     1       0.894  -4.270   2.304  0.00  0.00    -0.298 N 
BRANCH  33  34
ATOM     34  C   UNL     1       2.329  -4.027   2.145  0.00  0.00    +0.123 C 
ATOM     35  C   UNL     1       2.986  -3.925   3.523  0.00  0.00    +0.027 C 
ENDBRANCH  33  34
ENDBRANCH  22  23
BRANCH  22  37
ATOM     36  C   UNL     1      -0.938  -1.379   0.305  0.00  0.00    +0.002 C 
ATOM     37  C   UNL     1       0.521  -1.372   0.766  0.00  0.00    -0.011 C 
ENDBRANCH  22  37
ENDBRANCH   1  22
TORSDOF 6
