REMARK  Name = ZINC03843456
REMARK  2 active torsions:
REMARK  status: ('A' for Active; 'I' for Inactive)
REMARK    1  A    between atoms: C_1  and  N_14
REMARK    2  A    between atoms: C_4  and  N_9
REMARK                            x       y       z     vdW  Elec       q    Type
REMARK                         _______ _______ _______ _____ _____    ______ ____
ROOT
ATOM      1  C   UNL     1      -1.230   2.562   0.022  0.00  0.00    +0.156 A 
ATOM      2  C   UNL     1      -1.249   3.945   0.034  0.00  0.00    +0.065 A 
ATOM      3  C   UNL     1      -0.060   4.653   0.027  0.00  0.00    +0.065 A 
ATOM      4  C   UNL     1       1.147   3.978   0.012  0.00  0.00    +0.156 A 
ATOM      5  C   UNL     1       1.166   2.595   0.005  0.00  0.00    +0.065 A 
ATOM      6  C   UNL     1      -0.024   1.887   0.012  0.00  0.00    +0.065 A 
ATOM      7 BR   UNL     1       0.002  -0.004   0.002  0.00  0.00    -0.047 Br
ATOM      8 BR   UNL     1       2.816   1.672  -0.016  0.00  0.00    -0.047 Br
ATOM      9 BR   UNL     1      -0.086   6.544   0.038  0.00  0.00    -0.047 Br
ATOM     10 BR   UNL     1      -2.900   4.868   0.055  0.00  0.00    -0.047 Br
ENDROOT
BRANCH   4  11
ATOM     11  N   UNL     1       2.418   4.735   0.004  0.00  0.00    +0.059 N 
ATOM     12  O   UNL     1       2.932   5.052  -1.054  0.00  0.00    -0.126 OA
ATOM     13  O   UNL     1       2.952   5.042   1.055  0.00  0.00    -0.126 OA
ENDBRANCH   4  11
BRANCH   1  14
ATOM     14  N   UNL     1      -2.502   1.804   0.024  0.00  0.00    +0.059 N 
ATOM     15  O   UNL     1      -3.020   1.487   1.079  0.00  0.00    -0.126 OA
ATOM     16  O   UNL     1      -3.030   1.498  -1.030  0.00  0.00    -0.126 OA
ENDBRANCH   1  14
TORSDOF 2
