REMARK  Name = ZINC34749498
REMARK  10 active torsions:
REMARK  status: ('A' for Active; 'I' for Inactive)
REMARK    1  A    between atoms: C_1  and  C_2
REMARK    2  A    between atoms: C_2  and  C_3
REMARK    3  A    between atoms: C_4  and  C_33
REMARK    4  A    between atoms: N_10  and  C_29
REMARK    5  A    between atoms: N_16  and  C_19
REMARK    6  A    between atoms: C_19  and  C_20
REMARK    7  A    between atoms: N_22  and  C_23
REMARK    8  A    between atoms: C_29  and  C_30
REMARK    9  A    between atoms: C_30  and  C_31
REMARK   10  A    between atoms: C_30  and  C_32
REMARK                            x       y       z     vdW  Elec       q    Type
REMARK                         _______ _______ _______ _____ _____    ______ ____
ROOT
ATOM      1  C   UNL     1      -1.269  -0.132  -0.013  0.00  0.00    -0.023 A 
ATOM      2  C   UNL     1      -1.401   1.180   0.234  0.00  0.00    -0.007 A 
ATOM      3  S   UNL     1      -2.599   1.710  -0.975  0.00  0.00    -0.073 S 
ATOM      4  C   UNL     1      -2.887   0.154  -1.777  0.00  0.00    +0.117 A 
ATOM      5  C   UNL     1      -2.040  -0.733  -1.087  0.00  0.00    +0.076 A 
ATOM      6  C   UNL     1      -2.063  -2.091  -1.535  0.00  0.00    +0.264 A 
ATOM      7  O   UNL     1      -1.365  -2.932  -0.994  0.00  0.00    -0.267 OA
ATOM      8  N   UNL     1      -2.864  -2.429  -2.562  0.00  0.00    -0.280 N 
ATOM      9  C   UNL     1      -3.651  -1.502  -3.179  0.00  0.00    +0.202 A 
ATOM     10  N   UNL     1      -3.659  -0.247  -2.781  0.00  0.00    -0.208 NA
ATOM     11  N   UNL     1      -4.456  -1.886  -4.224  0.00  0.00    -0.304 N 
ATOM     12  C   UNL     1      -3.960  -1.860  -5.609  0.00  0.00    +0.089 C 
ATOM     13  C   UNL     1      -4.977  -1.109  -6.474  0.00  0.00    -0.059 C 
ATOM     14  N   UNL     1      -6.302  -1.722  -6.316  0.00  0.00    +0.387 N 
ATOM     15  C   UNL     1      -6.765  -1.560  -4.932  0.00  0.00    -0.059 C 
ATOM     16  C   UNL     1      -5.835  -2.340  -3.989  0.00  0.00    +0.089 C 
ATOM     17  C   UNL     1      -0.705   2.008   1.283  0.00  0.00    +0.052 C 
ATOM     18  H   UNL     1      -6.245  -2.705  -6.537  0.00  0.00    -0.081 HD
ENDROOT
BRANCH   1  20
ATOM     19  C   UNL     1       1.060  -0.966   0.162  0.00  0.00    +0.009 C 
ATOM     20  C   UNL     1      -0.326  -0.971   0.811  0.00  0.00    +0.033 C 
ENDBRANCH   1  20
BRANCH  14  21
ATOM     21  C   UNL     1      -7.253  -1.072  -7.228  0.00  0.00    +0.019 C 
BRANCH  21  22
ATOM     22  C   UNL     1      -8.581  -1.780  -7.156  0.00  0.00    +0.197 C 
ATOM     23  O   UNL     1      -8.722  -2.732  -6.418  0.00  0.00    -0.278 OA
ATOM     24  N   UNL     1      -9.613  -1.355  -7.912  0.00  0.00    -0.314 N 
ATOM     25  H   UNL     1      -9.500  -0.594  -8.502  0.00  0.00    +0.149 HD
BRANCH  24  26
ATOM     26  C   UNL     1     -10.904  -2.043  -7.842  0.00  0.00    +0.073 C 
ATOM     27  C   UNL     1     -10.895  -3.244  -8.790  0.00  0.00    +0.022 C 
ATOM     28  C   UNL     1     -12.243  -3.962  -8.717  0.00  0.00    +0.002 C 
ATOM     29  C   UNL     1     -13.358  -2.998  -9.127  0.00  0.00    +0.000 C 
ATOM     30  C   UNL     1     -13.368  -1.797  -8.179  0.00  0.00    +0.002 C 
ATOM     31  C   UNL     1     -12.019  -1.079  -8.252  0.00  0.00    +0.022 C 
ENDBRANCH  24  26
ENDBRANCH  21  22
ENDBRANCH  14  21
BRANCH   8  32
ATOM     32  C   UNL     1      -2.892  -3.819  -3.025  0.00  0.00    +0.131 C 
BRANCH  32  33
ATOM     33  C   UNL     1      -1.859  -4.006  -4.138  0.00  0.00    +0.003 C 
ATOM     34  C   UNL     1      -0.453  -3.812  -3.566  0.00  0.00    +0.009 C 
ATOM     35  C   UNL     1      -1.983  -5.416  -4.718  0.00  0.00    +0.009 C 
ENDBRANCH  32  33
ENDBRANCH   8  32
TORSDOF 6
