REMARK  Name = ZINC12497145
REMARK  9 active torsions:
REMARK  status: ('A' for Active; 'I' for Inactive)
REMARK    1  A    between atoms: C_1  and  N_2
REMARK    2  A    between atoms: N_2  and  C_3
REMARK    3  A    between atoms: N_2  and  C_4
REMARK    4  A    between atoms: C_7  and  C_10
REMARK    5  A    between atoms: N_18  and  C_21
REMARK    6  A    between atoms: C_27  and  C_28
REMARK    7  A    between atoms: C_27  and  C_34
REMARK    8  A    between atoms: C_34  and  O_36
REMARK    9  A    between atoms: O_36  and  C_37
REMARK                            x       y       z     vdW  Elec       q    Type
REMARK                         _______ _______ _______ _____ _____    ______ ____
ROOT
ATOM      1  C   UNL     1      -2.849  -0.990  -1.816  0.00  0.00    -0.026 C 
ATOM      2  C   UNL     1      -2.597  -2.370  -1.195  0.00  0.00    +0.078 C 
ATOM      3  C   UNL     1      -1.131  -2.061  -0.687  0.00  0.00    +0.090 C 
ATOM      4  C   UNL     1      -0.634  -3.394  -0.428  0.00  0.00    +0.229 C 
ATOM      5  O   UNL     1       0.115  -3.748   0.457  0.00  0.00    -0.275 OA
ATOM      6  N   UNL     1      -1.199  -4.170  -1.410  0.00  0.00    -0.210 N 
ATOM      7  C   UNL     1      -2.213  -3.533  -2.068  0.00  0.00    +0.229 C 
ATOM      8  O   UNL     1      -2.701  -3.841  -3.134  0.00  0.00    -0.275 OA
ATOM      9  C   UNL     1      -1.293  -0.775   0.011  0.00  0.00    +0.070 C 
ATOM     10  N   UNL     1      -2.336  -0.064  -0.786  0.00  0.00    +0.398 N 
ATOM     11  H   UNL     1      -3.103   0.228  -0.170  0.00  0.00    -0.083 HD
ATOM     12  H   UNL     1      -1.924   0.762  -1.236  0.00  0.00    -0.083 HD
ENDROOT
BRANCH   1  16
ATOM     13  C   UNL     1      -7.019  -0.391  -2.537  0.00  0.00    +0.029 A 
ATOM     14  C   UNL     1      -6.178  -0.764  -3.579  0.00  0.00    +0.023 A 
ATOM     15  C   UNL     1      -4.832  -0.957  -3.342  0.00  0.00    +0.004 A 
ATOM     16  C   UNL     1      -4.319  -0.779  -2.070  0.00  0.00    -0.060 A 
ATOM     17  C   UNL     1      -5.154  -0.414  -1.030  0.00  0.00    +0.004 A 
ATOM     18  C   UNL     1      -6.500  -0.214  -1.260  0.00  0.00    +0.023 A 
BRANCH  13  20
ATOM     19  C   UNL     1      -8.926  -0.383  -4.120  0.00  0.00    +0.129 C 
ATOM     20  N   UNL     1      -8.381  -0.195  -2.773  0.00  0.00    -0.336 N 
ATOM     21  C   UNL     1      -9.266   0.198  -1.673  0.00  0.00    +0.129 C 
ENDBRANCH  13  20
ENDBRANCH   1  16
BRANCH   6  22
ATOM     22  C   UNL     1      -0.781  -5.475  -1.705  0.00  0.00    +0.044 A 
ATOM     23  C   UNL     1       0.263  -6.049  -0.992  0.00  0.00    +0.024 A 
ATOM     24  C   UNL     1       0.669  -7.337  -1.282  0.00  0.00    +0.002 A 
ATOM     25  C   UNL     1       0.044  -8.051  -2.288  0.00  0.00    +0.000 A 
ATOM     26  C   UNL     1      -0.992  -7.480  -3.004  0.00  0.00    +0.002 A 
ATOM     27  C   UNL     1      -1.406  -6.194  -2.715  0.00  0.00    +0.024 A 
ENDBRANCH   6  22
BRANCH   9  28
ATOM     28  C   UNL     1       0.002  -0.004   0.002  0.00  0.00    -0.047 A 
ATOM     29  C   UNL     1      -0.017   1.378   0.010  0.00  0.00    +0.003 A 
ATOM     30  C   UNL     1       1.171   2.086   0.002  0.00  0.00    +0.000 A 
ATOM     31  C   UNL     1       2.377   1.411  -0.015  0.00  0.00    +0.000 A 
ATOM     32  C   UNL     1       2.396   0.029  -0.022  0.00  0.00    +0.000 A 
ATOM     33  C   UNL     1       1.208  -0.679  -0.013  0.00  0.00    +0.003 A 
ENDBRANCH   9  28
BRANCH   9  34
ATOM     34  C   UNL     1      -1.762  -0.999   1.425  0.00  0.00    +0.301 C 
ATOM     35  O   UNL     1      -1.501  -2.033   1.992  0.00  0.00    -0.252 OA
BRANCH  34  36
ATOM     36  O   UNL     1      -2.470  -0.049   2.055  0.00  0.00    -0.469 OA
ATOM     37  C   UNL     1      -2.889  -0.333   3.417  0.00  0.00    +0.280 C 
ENDBRANCH  34  36
ENDBRANCH   9  34
TORSDOF 6
