REMARK  Name = ZINC02157425
REMARK  9 active torsions:
REMARK  status: ('A' for Active; 'I' for Inactive)
REMARK    1  A    between atoms: C_1  and  N_63
REMARK    2  A    between atoms: C_2  and  N_63
REMARK    3  A    between atoms: C_3  and  C_4
REMARK    4  A    between atoms: C_3  and  N_63
REMARK    5  A    between atoms: C_4  and  C_5
REMARK    6  A    between atoms: C_5  and  N_6
REMARK    7  A    between atoms: C_26  and  C_28
REMARK    8  A    between atoms: C_32  and  O_34
REMARK    9  A    between atoms: O_34  and  C_35
REMARK                            x       y       z     vdW  Elec       q    Type
REMARK                         _______ _______ _______ _____ _____    ______ ____
ROOT
ATOM      1  N   UNL     1       0.158  -2.447   3.044  0.00  0.00    -0.291 N 
ATOM      2  C   UNL     1       1.194  -3.292   2.474  0.00  0.00    +0.203 C 
ATOM      3  C   UNL     1       1.034  -4.723   2.874  0.00  0.00    +0.234 C 
ATOM      4  O   UNL     1       1.831  -5.525   2.435  0.00  0.00    -0.274 OA
ATOM      5  N   UNL     1       0.075  -5.177   3.683  0.00  0.00    -0.276 N 
ATOM      6  C   UNL     1      -0.895  -4.304   4.342  0.00  0.00    +0.167 C 
ATOM      7  C   UNL     1      -0.778  -2.886   3.882  0.00  0.00    +0.237 C 
ATOM      8  O   UNL     1      -1.591  -2.087   4.295  0.00  0.00    -0.274 OA
ATOM      9  C   UNL     1      -0.682  -4.367   5.861  0.00  0.00    +0.069 C 
ATOM     10  C   UNL     1      -0.517  -5.809   6.269  0.00  0.00    -0.015 A 
ATOM     11  C   UNL     1      -0.632  -6.386   7.593  0.00  0.00    +0.003 A 
ATOM     12  C   UNL     1      -0.920  -5.835   8.846  0.00  0.00    +0.010 A 
ATOM     13  C   UNL     1      -0.945  -6.698   9.913  0.00  0.00    +0.001 A 
ATOM     14  C   UNL     1      -0.698  -8.053   9.769  0.00  0.00    +0.002 A 
ATOM     15  C   UNL     1      -0.411  -8.626   8.542  0.00  0.00    +0.026 A 
ATOM     16  C   UNL     1      -0.379  -7.773   7.440  0.00  0.00    +0.047 A 
ATOM     17  N   UNL     1      -0.135  -7.997   6.116  0.00  0.00    -0.356 N 
ATOM     18  H   UNL     1       0.069  -8.861   5.724  0.00  0.00    +0.166 HD
ATOM     19  C   UNL     1      -0.220  -6.819   5.423  0.00  0.00    +0.046 A 
ATOM     20  C   UNL     1      -0.021  -6.630   3.937  0.00  0.00    +0.154 C 
ENDROOT
BRANCH  20  21
ATOM     21  C   UNL     1       1.250  -7.311   3.499  0.00  0.00    -0.018 A 
ATOM     22  C   UNL     1       1.234  -8.177   2.420  0.00  0.00    +0.006 A 
ATOM     23  C   UNL     1       2.399  -8.799   2.013  0.00  0.00    +0.004 A 
ATOM     24  C   UNL     1       3.581  -8.566   2.689  0.00  0.00    +0.045 A 
ATOM     25  C   UNL     1       3.599  -7.703   3.775  0.00  0.00    +0.120 A 
ATOM     26  C   UNL     1       2.429  -7.075   4.179  0.00  0.00    +0.051 A 
BRANCH  25  27
ATOM     27  O   UNL     1       4.760  -7.472   4.442  0.00  0.00    -0.495 OA
ATOM     28  C   UNL     1       5.925  -8.153   3.971  0.00  0.00    +0.277 C 
ENDBRANCH  25  27
ENDBRANCH  20  21
BRANCH   1  29
ATOM     29  C   UNL     1       0.148  -1.027   2.681  0.00  0.00    +0.106 C 
BRANCH  29  30
ATOM     30  C   UNL     1      -0.713  -0.827   1.432  0.00  0.00    +0.000 C 
BRANCH  30  31
ATOM     31  C   UNL     1      -0.724   0.655   1.053  0.00  0.00    -0.078 C 
BRANCH  31  34
ATOM     32  C   UNL     1      -0.946   0.193  -1.313  0.00  0.00    -0.097 C 
ATOM     33  C   UNL     1      -1.780   2.276  -0.403  0.00  0.00    -0.097 C 
ATOM     34  N   UNL     1      -1.576   0.836  -0.141  0.00  0.00    +0.376 N 
ATOM     35  H   UNL     1      -2.488   0.396   0.031  0.00  0.00    -0.083 HD
ENDBRANCH  31  34
ENDBRANCH  30  31
ENDBRANCH  29  30
ENDBRANCH   1  29
TORSDOF 6
