REMARK  Name = ZINC09397618
REMARK  14 active torsions:
REMARK  status: ('A' for Active; 'I' for Inactive)
REMARK    1  A    between atoms: C_1  and  C_2
REMARK    2  A    between atoms: C_5  and  C_35
REMARK    3  A    between atoms: C_6  and  N_8
REMARK    4  A    between atoms: C_13  and  C_15
REMARK    5  A    between atoms: C_15  and  O_17
REMARK    6  A    between atoms: O_17  and  C_18
REMARK    7  A    between atoms: C_18  and  C_20
REMARK    8  A    between atoms: C_18  and  C_21
REMARK    9  A    between atoms: C_21  and  C_23
REMARK   10  A    between atoms: C_24  and  C_34
REMARK   11  A    between atoms: C_25  and  C_30
REMARK   12  A    between atoms: C_26  and  C_29
REMARK   13  A    between atoms: C_30  and  O_32
REMARK   14  A    between atoms: O_32  and  C_33
REMARK                            x       y       z     vdW  Elec       q    Type
REMARK                         _______ _______ _______ _____ _____    ______ ____
ROOT
ATOM      1  C   UNL     1      -1.283  -1.685  -1.107  0.00  0.00    +0.356 C 
ATOM      2  O   UNL     1      -0.239  -2.282  -1.285  0.00  0.00    -0.244 OA
ENDROOT
BRANCH   1   8
ATOM      3  N   UNL     1      -4.874  -2.115  -1.856  0.00  0.00    -0.160 N 
ATOM      4  C   UNL     1      -4.999  -3.424  -2.152  0.00  0.00    +0.240 C 
ATOM      5  O   UNL     1      -6.061  -3.861  -2.540  0.00  0.00    -0.273 OA
ATOM      6  C   UNL     1      -3.813  -4.342  -2.000  0.00  0.00    +0.104 C 
ATOM      7  C   UNL     1      -2.532  -3.567  -2.327  0.00  0.00    +0.074 C 
ATOM      8  C   UNL     1      -2.543  -2.250  -1.598  0.00  0.00    +0.144 C 
ATOM      9  N   UNL     1      -3.653  -1.605  -1.403  0.00  0.00    -0.170 NA
BRANCH   3  15
ATOM     10  C   UNL     1      -8.439  -0.252  -4.684  0.00  0.00    +0.044 C 
ATOM     11  C   UNL     1      -7.719  -0.338  -3.363  0.00  0.00    -0.049 A 
ATOM     12  C   UNL     1      -8.146   0.428  -2.293  0.00  0.00    +0.004 A 
ATOM     13  C   UNL     1      -7.489   0.351  -1.079  0.00  0.00    +0.005 A 
ATOM     14  C   UNL     1      -6.407  -0.494  -0.929  0.00  0.00    -0.027 A 
ATOM     15  C   UNL     1      -5.973  -1.260  -2.003  0.00  0.00    +0.063 A 
ATOM     16  C   UNL     1      -6.635  -1.182  -3.221  0.00  0.00    +0.029 A 
ATOM     17  C   UNL     1      -5.695  -0.581   0.396  0.00  0.00    +0.046 C 
ENDBRANCH   3  15
ENDBRANCH   1   8
BRANCH   1  18
ATOM     18  O   UNL     1      -1.282  -0.503  -0.457  0.00  0.00    -0.449 OA
BRANCH  18  19
ATOM     19  C   UNL     1       0.002  -0.004   0.002  0.00  0.00    +0.246 C 
ATOM     20  C   UNL     1       0.273  -0.518   1.417  0.00  0.00    +0.061 C 
BRANCH  19  21
ATOM     21  C   UNL     1      -0.018   1.503   0.010  0.00  0.00    +0.219 C 
ATOM     22  O   UNL     1      -1.078   2.095   0.019  0.00  0.00    -0.287 OA
BRANCH  21  23
ATOM     23  C   UNL     1       1.198   2.227   0.003  0.00  0.00    +0.090 A 
ATOM     24  C   UNL     1       1.323   3.600   0.009  0.00  0.00    -0.008 A 
ATOM     25  C   UNL     1       2.705   3.884  -0.003  0.00  0.00    +0.083 A 
ATOM     26  C   UNL     1       3.372   2.671  -0.016  0.00  0.00    +0.028 A 
ATOM     27  N   UNL     1       2.466   1.683  -0.006  0.00  0.00    -0.355 N 
ATOM     28  H   UNL     1       2.670   0.734  -0.008  0.00  0.00    +0.166 HD
ATOM     29  C   UNL     1       4.868   2.491  -0.031  0.00  0.00    +0.064 C 
ATOM     30  C   UNL     1       0.199   4.604   0.025  0.00  0.00    +0.047 C 
BRANCH  25  31
ATOM     31  C   UNL     1       3.322   5.221  -0.002  0.00  0.00    +0.341 C 
ATOM     32  O   UNL     1       3.587   5.767   1.051  0.00  0.00    -0.245 OA
BRANCH  31  33
ATOM     33  O   UNL     1       3.594   5.839  -1.168  0.00  0.00    -0.464 OA
ATOM     34  C   UNL     1       4.202   7.155  -1.091  0.00  0.00    +0.280 C 
ENDBRANCH  31  33
ENDBRANCH  25  31
ENDBRANCH  21  23
ENDBRANCH  19  21
ENDBRANCH  18  19
ENDBRANCH   1  18
TORSDOF 8
