REMARK  Name = ZINC21365170
REMARK  6 active torsions:
REMARK  status: ('A' for Active; 'I' for Inactive)
REMARK    1  A    between atoms: C_8  and  C_10
REMARK    2  A    between atoms: C_13  and  C_16
REMARK    3  A    between atoms: C_21  and  C_23
REMARK    4  A    between atoms: C_23  and  N_24
REMARK    5  A    between atoms: N_27  and  C_30
REMARK    6  A    between atoms: C_33  and  N_36
REMARK                            x       y       z     vdW  Elec       q    Type
REMARK                         _______ _______ _______ _____ _____    ______ ____
ROOT
ATOM      1  C   UNL     1      -2.861   6.139  -5.435  0.00  0.00    +0.104 C 
ATOM      2  N   UNL     1      -2.473   5.259  -4.573  0.00  0.00    -0.178 NA
ATOM      3  N   UNL     1      -1.770   5.792  -3.495  0.00  0.00    -0.184 N 
ATOM      4  C   UNL     1      -1.665   7.249  -3.668  0.00  0.00    +0.173 C 
ATOM      5  C   UNL     1      -2.407   7.512  -4.993  0.00  0.00    +0.093 C 
ATOM      6  C   UNL     1      -1.263   5.086  -2.464  0.00  0.00    +0.219 C 
ATOM      7  O   UNL     1      -0.661   5.655  -1.578  0.00  0.00    -0.276 OA
ENDROOT
BRANCH   1  15
ATOM      8  C   UNL     1      -5.974   4.462 -10.331  0.00  0.00    +0.001 A 
ATOM      9  C   UNL     1      -5.932   5.825 -10.588  0.00  0.00    +0.004 A 
ATOM     10  C   UNL     1      -5.299   6.687  -9.718  0.00  0.00    +0.047 A 
ATOM     11  C   UNL     1      -4.696   6.191  -8.570  0.00  0.00    +0.136 A 
ATOM     12  C   UNL     1      -4.741   4.808  -8.314  0.00  0.00    +0.021 A 
ATOM     13  C   UNL     1      -5.387   3.951  -9.207  0.00  0.00    +0.011 A 
ATOM     14  C   UNL     1      -4.022   4.614  -7.054  0.00  0.00    +0.059 A 
ATOM     15  C   UNL     1      -3.620   5.850  -6.656  0.00  0.00    +0.152 A 
ATOM     16  O   UNL     1      -4.019   6.771  -7.558  0.00  0.00    -0.454 OA
ENDBRANCH   1  15
BRANCH   4  17
ATOM     17  C   UNL     1      -0.221   7.668  -3.773  0.00  0.00    +0.128 A 
ATOM     18  C   UNL     1       0.317   8.779  -3.237  0.00  0.00    +0.046 A 
ATOM     19  C   UNL     1       1.689   8.775  -3.579  0.00  0.00    +0.041 A 
ATOM     20  C   UNL     1       1.907   7.662  -4.303  0.00  0.00    +0.195 A 
ATOM     21  O   UNL     1       0.748   6.993  -4.412  0.00  0.00    -0.466 OA
ENDBRANCH   4  17
BRANCH   6  22
ATOM     22  C   UNL     1      -1.445   3.591  -2.413  0.00  0.00    +0.021 C 
BRANCH  22  23
ATOM     23  N   UNL     1      -0.806   3.062  -1.200  0.00  0.00    +0.387 N 
ATOM     24  C   UNL     1      -0.754   1.593  -1.231  0.00  0.00    -0.059 C 
ATOM     25  C   UNL     1      -0.013   1.086   0.008  0.00  0.00    +0.086 C 
ATOM     26  N   UNL     1      -0.701   1.560   1.216  0.00  0.00    -0.333 N 
ATOM     27  C   UNL     1      -0.754   3.029   1.247  0.00  0.00    +0.086 C 
ATOM     28  C   UNL     1      -1.495   3.536   0.008  0.00  0.00    -0.059 C 
ATOM     29  H   UNL     1       0.227   3.438  -1.172  0.00  0.00    -0.081 HD
BRANCH  26  30
ATOM     30  C   UNL     1      -0.094   1.057   2.369  0.00  0.00    +0.030 A 
ATOM     31  C   UNL     1       1.010   0.219   2.265  0.00  0.00    +0.025 A 
ATOM     32  C   UNL     1       1.611  -0.272   3.407  0.00  0.00    +0.034 A 
ATOM     33  C   UNL     1       1.110   0.059   4.652  0.00  0.00    +0.126 A 
ATOM     34  C   UNL     1       0.008   0.888   4.759  0.00  0.00    +0.034 A 
ATOM     35  C   UNL     1      -0.595   1.388   3.622  0.00  0.00    +0.025 A 
BRANCH  33  36
ATOM     36  N   UNL     1       1.753  -0.474   5.873  0.00  0.00    +0.056 N 
ATOM     37  O   UNL     1       1.312  -0.184   6.971  0.00  0.00    -0.126 OA
ATOM     38  O   UNL     1       2.724  -1.205   5.781  0.00  0.00    -0.126 OA
ENDBRANCH  33  36
ENDBRANCH  26  30
ENDBRANCH  22  23
ENDBRANCH   6  22
TORSDOF 6
