REMARK  Name = ZINC20357167
REMARK  8 active torsions:
REMARK  status: ('A' for Active; 'I' for Inactive)
REMARK    1  A    between atoms: C_1  and  C_2
REMARK    2  A    between atoms: C_5  and  N_22
REMARK    3  A    between atoms: C_6  and  N_8
REMARK    4  A    between atoms: C_9  and  C_11
REMARK    5  A    between atoms: C_12  and  C_13
REMARK    6  A    between atoms: C_18  and  O_19
REMARK    7  A    between atoms: O_19  and  C_20
REMARK    8  A    between atoms: C_23  and  C_25
REMARK                            x       y       z     vdW  Elec       q    Type
REMARK                         _______ _______ _______ _____ _____    ______ ____
ROOT
ATOM      1  C   UNL     1      -2.566   3.435  -0.115  0.00  0.00    +0.044 C 
ATOM      2  C   UNL     1      -1.197   2.804  -0.115  0.00  0.00    -0.049 A 
ATOM      3  C   UNL     1      -1.073   1.427  -0.159  0.00  0.00    +0.005 A 
ATOM      4  C   UNL     1       0.179   0.842  -0.154  0.00  0.00    +0.025 A 
ATOM      5  C   UNL     1       1.316   1.636  -0.116  0.00  0.00    +0.055 A 
ATOM      6  C   UNL     1       1.190   3.025  -0.077  0.00  0.00    +0.055 A 
ATOM      7  C   UNL     1      -0.070   3.603  -0.077  0.00  0.00    +0.028 A 
ENDROOT
BRANCH   6   8
ATOM      8  N   UNL     1       2.333   3.832  -0.037  0.00  0.00    -0.280 N 
ATOM      9  C   UNL     1       2.318   4.989   0.654  0.00  0.00    +0.241 C 
ATOM     10  O   UNL     1       1.346   5.283   1.326  0.00  0.00    -0.270 OA
ATOM     11  H   UNL     1       3.244   3.522  -0.571  0.00  0.00    +0.155 HD
BRANCH   9  12
ATOM     12  C   UNL     1       3.468   5.890   0.598  0.00  0.00    +0.068 C 
ATOM     13  C   UNL     1       3.452   7.048   1.291  0.00  0.00    +0.016 C 
BRANCH  13  14
ATOM     14  C   UNL     1       4.608   7.954   1.234  0.00  0.00    +0.018 A 
ATOM     15  C   UNL     1       5.729   7.617   0.468  0.00  0.00    +0.026 A 
ATOM     16  C   UNL     1       6.808   8.474   0.416  0.00  0.00    +0.019 A 
ATOM     17  C   UNL     1       6.791   9.663   1.128  0.00  0.00    +0.019 A 
ATOM     18  C   UNL     1       5.693  10.006   1.892  0.00  0.00    +0.047 A 
ATOM     19  C   UNL     1       4.597   9.160   1.953  0.00  0.00    +0.127 A 
ATOM     20 BR   UNL     1       8.321   8.021  -0.624  0.00  0.00    -0.050 Br
BRANCH  19  21
ATOM     21  O   UNL     1       3.517   9.496   2.703  0.00  0.00    -0.495 OA
ATOM     22  C   UNL     1       3.577  10.738   3.407  0.00  0.00    +0.277 C 
ENDBRANCH  19  21
ENDBRANCH  13  14
ENDBRANCH   9  12
ENDBRANCH   6   8
BRANCH   5  23
ATOM     23  N   UNL     1       2.585   1.046  -0.116  0.00  0.00    -0.277 N 
ATOM     24  C   UNL     1       2.759  -0.178  -0.653  0.00  0.00    +0.284 C 
ATOM     25  O   UNL     1       1.801  -0.799  -1.075  0.00  0.00    -0.266 OA
ATOM     26  H   UNL     1       3.441   1.580   0.323  0.00  0.00    +0.155 HD
BRANCH  24  27
ATOM     27  C   UNL     1       4.102  -0.761  -0.730  0.00  0.00    +0.189 A 
ATOM     28  C   UNL     1       4.418  -1.985  -1.248  0.00  0.00    +0.054 A 
ATOM     29  C   UNL     1       5.808  -2.132  -1.118  0.00  0.00    +0.042 A 
ATOM     30  C   UNL     1       6.274  -1.006  -0.534  0.00  0.00    +0.196 A 
ATOM     31  O   UNL     1       5.244  -0.180  -0.307  0.00  0.00    -0.458 OA
ENDBRANCH  24  27
ENDBRANCH   5  23
TORSDOF 6
