REMARK  Name = ZINC39361086
REMARK  11 active torsions:
REMARK  status: ('A' for Active; 'I' for Inactive)
REMARK    1  A    between atoms: C_1  and  C_2
REMARK    2  A    between atoms: C_2  and  N_3
REMARK    3  A    between atoms: N_3  and  C_4
REMARK    4  A    between atoms: N_3  and  S_6
REMARK    5  A    between atoms: C_4  and  C_5
REMARK    6  A    between atoms: S_6  and  C_9
REMARK    7  A    between atoms: C_12  and  C_15
REMARK    8  A    between atoms: N_17  and  C_18
REMARK    9  A    between atoms: C_18  and  C_19
REMARK   10  A    between atoms: C_19  and  C_20
REMARK   11  A    between atoms: C_26  and  C_32
REMARK                            x       y       z     vdW  Elec       q    Type
REMARK                         _______ _______ _______ _____ _____    ______ ____
ROOT
ATOM      1  C   UNL     1      -0.698   4.106  -5.875  0.00  0.00    +0.244 C 
ATOM      2  O   UNL     1      -1.638   4.858  -5.702  0.00  0.00    -0.270 OA
ATOM      3  N   UNL     1       0.229   4.389  -6.811  0.00  0.00    -0.311 N 
ATOM      4  H   UNL     1       0.978   3.789  -6.949  0.00  0.00    +0.149 HD
ENDROOT
BRANCH   1   8
ATOM      5  C   UNL     1      -0.337   0.586  -3.526  0.00  0.00    +0.106 A 
ATOM      6  C   UNL     1      -1.407   1.440  -3.327  0.00  0.00    +0.029 A 
ATOM      7  C   UNL     1      -1.531   2.585  -4.086  0.00  0.00    +0.015 A 
ATOM      8  C   UNL     1      -0.573   2.881  -5.057  0.00  0.00    +0.037 A 
ATOM      9  C   UNL     1       0.505   2.015  -5.253  0.00  0.00    +0.015 A 
ATOM     10  C   UNL     1       0.619   0.876  -4.482  0.00  0.00    +0.029 A 
BRANCH   5  11
ATOM     11  S   UNL     1      -0.188  -0.875  -2.551  0.00  0.00    +0.061 S 
ATOM     12  O   UNL     1       0.610  -1.782  -3.300  0.00  0.00    -0.153 OA
ATOM     13  O   UNL     1      -1.496  -1.201  -2.104  0.00  0.00    -0.153 OA
BRANCH  11  14
ATOM     14  N   UNL     1       0.688  -0.476  -1.203  0.00  0.00    -0.177 NA
BRANCH  14  16
ATOM     15  C   UNL     1      -0.019   1.526   0.010  0.00  0.00    +0.022 C 
ATOM     16  C   UNL     1       0.002  -0.004   0.002  0.00  0.00    +0.106 C 
ENDBRANCH  14  16
BRANCH  14  17
ATOM     17  C   UNL     1       2.148  -0.597  -1.216  0.00  0.00    +0.106 C 
ATOM     18  C   UNL     1       2.553  -1.951  -0.632  0.00  0.00    +0.022 C 
ENDBRANCH  14  17
ENDBRANCH  11  14
ENDBRANCH   5  11
ENDBRANCH   1   8
BRANCH   3  19
ATOM     19  C   UNL     1       0.104   5.604  -7.622  0.00  0.00    +0.105 C 
BRANCH  19  20
ATOM     20  C   UNL     1       1.277   5.686  -8.601  0.00  0.00    +0.035 C 
BRANCH  20  21
ATOM     21  C   UNL     1       1.146   6.954  -9.447  0.00  0.00    +0.100 C 
ATOM     22  C   UNL     1       2.192   6.891 -10.543  0.00  0.00    -0.005 C 
ATOM     23  C   UNL     1       3.094   7.911 -10.606  0.00  0.00    -0.007 A 
ATOM     24  C   UNL     1       4.137   7.928 -11.632  0.00  0.00    +0.010 A 
ATOM     25  C   UNL     1       5.015   8.964 -11.656  0.00  0.00    +0.004 A 
ATOM     26  C   UNL     1       4.940  10.002 -10.726  0.00  0.00    -0.049 A 
ATOM     27  C   UNL     1       3.997  10.043  -9.749  0.00  0.00    +0.027 A 
ATOM     28  C   UNL     1       3.038   9.019  -9.637  0.00  0.00    +0.041 A 
ATOM     29  N   UNL     1       2.117   9.071  -8.675  0.00  0.00    -0.284 N 
ATOM     30  C   UNL     1       1.191   8.142  -8.513  0.00  0.00    +0.224 C 
ATOM     31  O   UNL     1       0.376   8.244  -7.615  0.00  0.00    -0.275 OA
ATOM     32  C   UNL     1       5.946  11.120 -10.808  0.00  0.00    +0.044 C 
ATOM     33  H   UNL     1       2.128   9.825  -8.065  0.00  0.00    +0.155 HD
ENDBRANCH  20  21
ENDBRANCH  19  20
ENDBRANCH   3  19
TORSDOF 8
