REMARK  Name = ZINC13445654
REMARK  10 active torsions:
REMARK  status: ('A' for Active; 'I' for Inactive)
REMARK    1  A    between atoms: C_1  and  O_2
REMARK    2  A    between atoms: O_2  and  C_3
REMARK    3  A    between atoms: C_5  and  C_13
REMARK    4  A    between atoms: C_8  and  O_9
REMARK    5  A    between atoms: O_9  and  C_10
REMARK    6  A    between atoms: C_10  and  C_11
REMARK    7  A    between atoms: C_14  and  C_15
REMARK    8  A    between atoms: N_20  and  S_23
REMARK    9  A    between atoms: S_23  and  C_26
REMARK   10  A    between atoms: C_29  and  C_32
REMARK                            x       y       z     vdW  Elec       q    Type
REMARK                         _______ _______ _______ _____ _____    ______ ____
ROOT
ATOM      1  C   UNL     1      -3.761   3.409  -3.634  0.00  0.00    +0.240 C 
ATOM      2  O   UNL     1      -3.658   4.544  -4.063  0.00  0.00    -0.271 OA
ATOM      3  N   UNL     1      -3.044   3.028  -2.558  0.00  0.00    -0.295 N 
ATOM      4  C   UNL     1      -2.051   3.932  -1.962  0.00  0.00    +0.125 C 
ATOM      5  C   UNL     1      -0.698   3.211  -1.914  0.00  0.00    +0.128 C 
ATOM      6  N   UNL     1      -0.895   1.883  -1.317  0.00  0.00    -0.174 NA
ATOM      7  C   UNL     1      -1.884   0.976  -1.916  0.00  0.00    +0.128 C 
ATOM      8  C   UNL     1      -3.241   1.700  -1.961  0.00  0.00    +0.125 C 
ENDROOT
BRANCH   6   9
ATOM      9  S   UNL     1      -0.013   1.414   0.004  0.00  0.00    +0.061 S 
ATOM     10  O   UNL     1       0.005  -0.007  -0.004  0.00  0.00    -0.153 OA
ATOM     11  O   UNL     1       1.177   2.191  -0.006  0.00  0.00    -0.153 OA
BRANCH   9  12
ATOM     12  C   UNL     1      -0.920   1.898   1.435  0.00  0.00    +0.106 A 
ATOM     13  C   UNL     1      -0.705   3.144   1.997  0.00  0.00    +0.029 A 
ATOM     14  C   UNL     1      -1.415   3.531   3.114  0.00  0.00    +0.017 A 
ATOM     15  C   UNL     1      -2.344   2.659   3.684  0.00  0.00    +0.063 A 
ATOM     16  C   UNL     1      -2.551   1.401   3.115  0.00  0.00    +0.017 A 
ATOM     17  C   UNL     1      -1.839   1.028   1.995  0.00  0.00    +0.029 A 
BRANCH  15  18
ATOM     18  C   UNL     1      -3.104   3.065   4.884  0.00  0.00    +0.387 C 
ATOM     19  O   UNL     1      -3.912   2.304   5.378  0.00  0.00    -0.241 OA
ATOM     20  O   UNL     1      -2.901   4.279   5.431  0.00  0.00    -0.241 OA
ENDBRANCH  15  18
ENDBRANCH   9  12
ENDBRANCH   6   9
BRANCH   1  22
ATOM     21  C   UNL     1      -5.305   2.809  -5.421  0.00  0.00    +0.013 C 
ATOM     22  C   UNL     1      -4.665   2.461  -4.285  0.00  0.00    +0.068 C 
BRANCH  21  25
ATOM     23  C   UNL     1      -7.729   1.315  -7.863  0.00  0.00    +0.162 A 
ATOM     24  C   UNL     1      -6.881   2.217  -7.250  0.00  0.00    +0.057 A 
ATOM     25  C   UNL     1      -6.212   1.856  -6.075  0.00  0.00    -0.021 A 
ATOM     26  C   UNL     1      -6.415   0.586  -5.521  0.00  0.00    +0.012 A 
ATOM     27  C   UNL     1      -7.266  -0.305  -6.136  0.00  0.00    +0.050 A 
ATOM     28  C   UNL     1      -7.925   0.052  -7.305  0.00  0.00    +0.162 A 
BRANCH  23  30
ATOM     29  C   UNL     1      -8.129   2.970  -9.523  0.00  0.00    +0.277 C 
ATOM     30  O   UNL     1      -8.377   1.661  -9.008  0.00  0.00    -0.491 OA
ENDBRANCH  23  30
BRANCH  28  31
ATOM     31  O   UNL     1      -8.762  -0.831  -7.907  0.00  0.00    -0.484 OA
BRANCH  31  32
ATOM     32  C   UNL     1      -8.918  -2.107  -7.283  0.00  0.00    +0.256 C 
BRANCH  32  33
ATOM     33  C   UNL     1      -9.877  -2.946  -8.086  0.00  0.00    +0.006 C 
ATOM     34  C   UNL     1      -9.594  -4.199  -8.345  0.00  0.00    +0.007 C 
ENDBRANCH  32  33
ENDBRANCH  31  32
ENDBRANCH  28  31
ENDBRANCH  21  25
ENDBRANCH   1  22
TORSDOF 9
