REMARK  Name = ZINC04794486
REMARK  6 active torsions:
REMARK  status: ('A' for Active; 'I' for Inactive)
REMARK    1  A    between atoms: C_1  and  C_2
REMARK    2  A    between atoms: C_2  and  O_4
REMARK    3  A    between atoms: O_4  and  C_5
REMARK    4  A    between atoms: C_8  and  C_11
REMARK    5  A    between atoms: C_25  and  C_27
REMARK    6  A    between atoms: C_25  and  C_28
REMARK                            x       y       z     vdW  Elec       q    Type
REMARK                         _______ _______ _______ _____ _____    ______ ____
ROOT
ATOM      1  C   UNL     1      -2.342  -2.884   0.775  0.00  0.00    +0.086 C 
ATOM      2  C   UNL     1      -1.047  -2.237   0.374  0.00  0.00    -0.011 A 
ATOM      3  C   UNL     1      -0.937  -0.858   0.373  0.00  0.00    +0.055 A 
ATOM      4  C   UNL     1       0.256  -0.252   0.012  0.00  0.00    +0.162 A 
ATOM      5  C   UNL     1       1.350  -1.031  -0.346  0.00  0.00    +0.164 A 
ATOM      6  C   UNL     1       1.241  -2.413  -0.349  0.00  0.00    +0.073 A 
ATOM      7  C   UNL     1       0.042  -3.015   0.008  0.00  0.00    +0.039 A 
ATOM      8  N   UNL     1      -0.078  -4.406  -0.006  0.00  0.00    -0.317 N 
ATOM      9  C   UNL     1      -1.310  -4.992  -0.065  0.00  0.00    +0.016 C 
ATOM     10  C   UNL     1      -2.420  -4.308   0.287  0.00  0.00    +0.024 C 
ATOM     11  C   UNL     1      -3.690  -4.904   0.209  0.00  0.00    +0.162 C 
ATOM     12  O   UNL     1      -4.670  -4.264   0.538  0.00  0.00    -0.292 OA
ATOM     13  C   UNL     1      -3.862  -6.318  -0.273  0.00  0.00    +0.086 C 
ATOM     14  C   UNL     1      -2.729  -6.651  -1.250  0.00  0.00    -0.023 C 
ATOM     15  C   UNL     1      -1.394  -6.423  -0.538  0.00  0.00    +0.058 C 
ATOM     16  C   UNL     1      -2.822  -5.741  -2.476  0.00  0.00    +0.011 C 
ATOM     17  C   UNL     1      -2.837  -8.114  -1.685  0.00  0.00    +0.011 C 
ATOM     18  O   UNL     1       2.533  -0.455  -0.694  0.00  0.00    -0.485 OA
ATOM     19  C   UNL     1       2.494   0.933  -1.043  0.00  0.00    +0.270 C 
ATOM     20  C   UNL     1       1.658   1.670   0.012  0.00  0.00    +0.270 C 
ATOM     21  O   UNL     1       0.341   1.108   0.014  0.00  0.00    -0.485 OA
ATOM     22  H   UNL     1       0.718  -4.959   0.026  0.00  0.00    +0.152 HD
ENDROOT
BRANCH   1  26
ATOM     23  C   UNL     1      -2.663  -2.850   5.036  0.00  0.00    +0.132 A 
ATOM     24  C   UNL     1      -3.618  -2.207   4.262  0.00  0.00    +0.046 A 
ATOM     25  C   UNL     1      -3.512  -2.219   2.885  0.00  0.00    +0.008 A 
ATOM     26  C   UNL     1      -2.455  -2.872   2.277  0.00  0.00    -0.035 A 
ATOM     27  C   UNL     1      -1.505  -3.518   3.046  0.00  0.00    +0.008 A 
ATOM     28  C   UNL     1      -1.603  -3.504   4.424  0.00  0.00    +0.046 A 
BRANCH  23  29
ATOM     29  O   UNL     1      -2.765  -2.840   6.391  0.00  0.00    -0.426 OA
BRANCH  29  31
ATOM     30  C   UNL     1      -1.819  -2.173   8.572  0.00  0.00    +0.136 C 
ATOM     31  C   UNL     1      -1.849  -2.127   7.066  0.00  0.00    +0.309 C 
ATOM     32  O   UNL     1      -1.049  -1.448   6.466  0.00  0.00    -0.251 OA
ENDBRANCH  29  31
ENDBRANCH  23  29
ENDBRANCH   1  26
TORSDOF 3
