REMARK  Name = ZINC37067898
REMARK  8 active torsions:
REMARK  status: ('A' for Active; 'I' for Inactive)
REMARK    1  A    between atoms: C_1  and  C_2
REMARK    2  A    between atoms: C_2  and  C_3
REMARK    3  A    between atoms: C_2  and  C_4
REMARK    4  A    between atoms: C_2  and  O_5
REMARK    5  A    between atoms: O_5  and  C_6
REMARK    6  A    between atoms: C_7  and  N_21
REMARK    7  A    between atoms: C_10  and  N_12
REMARK    8  A    between atoms: N_12  and  C_13
REMARK                            x       y       z     vdW  Elec       q    Type
REMARK                         _______ _______ _______ _____ _____    ______ ____
ROOT
ATOM      1  C   UNL     1       1.974  -0.135  -1.293  0.00  0.00    +0.238 A 
ATOM      2  C   UNL     1       2.720  -0.684  -2.335  0.00  0.00    +0.087 A 
ATOM      3  C   UNL     1       4.067  -0.360  -2.447  0.00  0.00    +0.031 A 
ATOM      4  C   UNL     1       4.620   0.502  -1.513  0.00  0.00    +0.046 A 
ATOM      5  C   UNL     1       3.818   1.012  -0.501  0.00  0.00    +0.127 A 
ATOM      6  N   UNL     1       2.535   0.688  -0.424  0.00  0.00    -0.196 NA
ENDROOT
BRANCH   2   7
ATOM      7  N   UNL     1       2.119  -1.553  -3.258  0.00  0.00    -0.354 N 
ATOM      8  H   UNL     1       1.179  -1.775  -3.173  0.00  0.00    +0.142 HD
ATOM      9  H   UNL     1       2.644  -1.931  -3.980  0.00  0.00    +0.142 HD
ENDBRANCH   2   7
BRANCH   5  10
ATOM     10  N   UNL     1       4.367   1.879   0.442  0.00  0.00    -0.298 N 
ATOM     11  H   UNL     1       3.809   2.249   1.144  0.00  0.00    +0.154 HD
BRANCH  10  12
ATOM     12  C   UNL     1       5.723   2.216   0.376  0.00  0.00    +0.047 A 
ATOM     13  C   UNL     1       6.635   1.600   1.223  0.00  0.00    +0.027 A 
ATOM     14  C   UNL     1       7.974   1.934   1.157  0.00  0.00    +0.040 A 
ATOM     15  C   UNL     1       8.407   2.883   0.246  0.00  0.00    +0.125 A 
ATOM     16  C   UNL     1       7.501   3.499  -0.600  0.00  0.00    +0.055 A 
ATOM     17  C   UNL     1       6.161   3.164  -0.541  0.00  0.00    +0.042 A 
ATOM     18 BR   UNL     1       4.925   4.000  -1.702  0.00  0.00    -0.048 Br
ATOM     19  F   UNL     1       9.717   3.208   0.183  0.00  0.00    -0.205 F 
ENDBRANCH  10  12
ENDBRANCH   5  10
BRANCH   1  20
ATOM     20  O   UNL     1       0.658  -0.444  -1.174  0.00  0.00    -0.469 OA
BRANCH  20  22
ATOM     21  C   UNL     1       0.001   1.679  -0.223  0.00  0.00    +0.055 C 
ATOM     22  C   UNL     1      -0.053   0.156  -0.089  0.00  0.00    +0.104 C 
ATOM     23  C   UNL     1       0.589  -0.263   1.235  0.00  0.00    +0.055 C 
ATOM     24  C   UNL     1      -1.512  -0.307  -0.117  0.00  0.00    +0.055 C 
ENDBRANCH  20  22
ENDBRANCH   1  20
TORSDOF 5
