REMARK  Name = ZINC64058157
REMARK  6 active torsions:
REMARK  status: ('A' for Active; 'I' for Inactive)
REMARK    1  A    between atoms: C_7  and  C_10
REMARK    2  A    between atoms: C_10  and  C_11
REMARK    3  A    between atoms: C_11  and  N_12
REMARK    4  A    between atoms: C_13  and  C_15
REMARK    5  A    between atoms: C_24  and  C_26
REMARK    6  A    between atoms: C_30  and  N_32
REMARK                            x       y       z     vdW  Elec       q    Type
REMARK                         _______ _______ _______ _____ _____    ______ ____
ROOT
ATOM      1  C   UNL     1      -1.182  -6.664  -2.696  0.00  0.00    +0.082 C 
ATOM      2  C   UNL     1      -2.666  -6.434  -2.990  0.00  0.00    +0.021 C 
ATOM      3  C   UNL     1      -1.792  -7.180  -3.998  0.00  0.00    -0.015 C 
ATOM      4  C   UNL     1      -2.000  -8.691  -4.138  0.00  0.00    +0.026 C 
ATOM      5  C   UNL     1      -3.059  -8.945  -5.217  0.00  0.00    +0.108 C 
ATOM      6  N   UNL     1      -2.688  -8.205  -6.430  0.00  0.00    -0.297 N 
ATOM      7  C   UNL     1      -2.494  -6.752  -6.351  0.00  0.00    +0.108 C 
ATOM      8  C   UNL     1      -1.422  -6.452  -5.295  0.00  0.00    +0.026 C 
ATOM      9  C   UNL     1      -2.528  -8.852  -7.601  0.00  0.00    +0.247 C 
ATOM     10  O   UNL     1      -2.126  -8.249  -8.578  0.00  0.00    -0.270 OA
ENDROOT
BRANCH   9  11
ATOM     11  C   UNL     1      -2.840 -10.293  -7.699  0.00  0.00    +0.039 A 
ATOM     12  C   UNL     1      -3.985 -10.805  -7.085  0.00  0.00    +0.013 A 
ATOM     13  C   UNL     1      -4.275 -12.151  -7.178  0.00  0.00    +0.003 A 
ATOM     14  C   UNL     1      -3.434 -12.997  -7.877  0.00  0.00    +0.028 A 
ATOM     15  C   UNL     1      -2.292 -12.498  -8.491  0.00  0.00    +0.066 A 
ATOM     16  C   UNL     1      -1.996 -11.146  -8.409  0.00  0.00    +0.040 A 
BRANCH  15  17
ATOM     17  N   UNL     1      -1.443 -13.360  -9.199  0.00  0.00    -0.240 N 
ATOM     18  C   UNL     1      -1.667 -14.670  -9.447  0.00  0.00    +0.114 A 
ATOM     19  C   UNL     1      -0.614 -15.140 -10.156  0.00  0.00    +0.041 A 
ATOM     20  C   UNL     1       0.282 -14.083 -10.348  0.00  0.00    +0.135 A 
ATOM     21  N   UNL     1      -0.216 -13.015  -9.780  0.00  0.00    -0.175 NA
ENDBRANCH  15  17
ENDBRANCH   9  11
BRANCH   1  23
ATOM     22  N   UNL     1       1.038  -5.647  -3.088  0.00  0.00    -0.315 N 
ATOM     23  C   UNL     1      -0.263  -5.473  -2.781  0.00  0.00    +0.217 C 
ATOM     24  O   UNL     1      -0.693  -4.358  -2.574  0.00  0.00    -0.275 OA
ATOM     25  H   UNL     1       1.383  -6.538  -3.253  0.00  0.00    +0.149 HD
BRANCH  22  26
ATOM     26  C   UNL     1       1.932  -4.489  -3.171  0.00  0.00    +0.108 C 
BRANCH  26  27
ATOM     27  C   UNL     1       3.343  -4.959  -3.531  0.00  0.00    +0.052 C 
BRANCH  27  34
ATOM     28  C   UNL     1       6.185  -3.013  -0.500  0.00  0.00    +0.001 A 
ATOM     29  C   UNL     1       6.867  -1.897  -1.004  0.00  0.00    +0.002 A 
ATOM     30  C   UNL     1       6.695  -1.446  -2.265  0.00  0.00    +0.026 A 
ATOM     31  C   UNL     1       5.794  -2.104  -3.147  0.00  0.00    +0.043 A 
ATOM     32  N   UNL     1       5.460  -1.865  -4.392  0.00  0.00    -0.380 N 
ATOM     33  C   UNL     1       4.476  -2.869  -4.814  0.00  0.00    +0.144 C 
ATOM     34  C   UNL     1       4.262  -3.768  -3.617  0.00  0.00    -0.040 C 
ATOM     35  C   UNL     1       5.062  -3.286  -2.639  0.00  0.00    -0.001 A 
ATOM     36  C   UNL     1       5.307  -3.711  -1.255  0.00  0.00    +0.010 A 
ATOM     37  H   UNL     1       5.804  -1.144  -4.942  0.00  0.00    +0.160 HD
ENDBRANCH  27  34
ENDBRANCH  26  27
ENDBRANCH  22  26
ENDBRANCH   1  23
TORSDOF 6
