REMARK  Name = ZINC01192195
REMARK  10 active torsions:
REMARK  status: ('A' for Active; 'I' for Inactive)
REMARK    1  A    between atoms: C_1  and  C_2
REMARK    2  A    between atoms: C_5  and  N_8
REMARK    3  A    between atoms: C_10  and  C_14
REMARK    4  A    between atoms: C_11  and  C_13
REMARK    5  A    between atoms: C_14  and  C_16
REMARK    6  A    between atoms: C_14  and  C_25
REMARK    7  A    between atoms: C_20  and  N_22
REMARK    8  A    between atoms: C_27  and  C_39
REMARK    9  A    between atoms: N_29  and  C_32
REMARK   10  A    between atoms: C_35  and  C_38
REMARK                            x       y       z     vdW  Elec       q    Type
REMARK                         _______ _______ _______ _____ _____    ______ ____
ROOT
ATOM      1  C   UNL     1       0.108  -7.541   1.475  0.00  0.00    +0.074 C 
ENDROOT
BRANCH   1   4
ATOM      2  N   UNL     1       0.191  -4.304  -0.293  0.00  0.00    -0.219 N 
ATOM      3  C   UNL     1       0.159  -5.014   0.853  0.00  0.00    +0.276 A 
ATOM      4  C   UNL     1       0.143  -6.385   0.508  0.00  0.00    +0.047 A 
ATOM      5  C   UNL     1       0.166  -6.479  -0.837  0.00  0.00    +0.039 A 
ATOM      6  N   UNL     1       0.190  -5.216  -1.357  0.00  0.00    -0.294 N 
ATOM      7  C   UNL     1       0.161  -7.759  -1.631  0.00  0.00    +0.065 C 
ATOM      8  O   UNL     1       0.146  -4.556   1.982  0.00  0.00    -0.266 OA
ATOM      9  H   UNL     1       0.207  -4.989  -2.301  0.00  0.00    +0.187 HD
BRANCH   2  14
ATOM     10  C   UNL     1       0.284   1.351  -0.729  0.00  0.00    +0.044 C 
ATOM     11  C   UNL     1       0.259  -0.152  -0.614  0.00  0.00    -0.050 A 
ATOM     12  C   UNL     1       0.269  -0.932  -1.755  0.00  0.00    +0.005 A 
ATOM     13  C   UNL     1       0.247  -2.309  -1.653  0.00  0.00    +0.028 A 
ATOM     14  C   UNL     1       0.214  -2.910  -0.401  0.00  0.00    +0.067 A 
ATOM     15  C   UNL     1       0.205  -2.123   0.744  0.00  0.00    +0.028 A 
ATOM     16  C   UNL     1       0.233  -0.747   0.634  0.00  0.00    +0.005 A 
ENDBRANCH   2  14
ENDBRANCH   1   4
BRANCH   1  17
ATOM     17  C   UNL     1      -1.061  -7.358   2.446  0.00  0.00    +0.135 C 
ATOM     18  C   UNL     1      -2.379  -7.359   1.700  0.00  0.00    +0.047 C 
ATOM     19  N   UNL     1      -3.058  -8.347   2.136  0.00  0.00    -0.181 NA
ATOM     20  N   UNL     1      -2.394  -9.076   3.118  0.00  0.00    -0.160 N 
ATOM     21  C   UNL     1      -1.174  -8.550   3.376  0.00  0.00    +0.249 C 
ATOM     22  O   UNL     1      -0.350  -8.945   4.173  0.00  0.00    -0.273 OA
ATOM     23  C   UNL     1      -2.808  -6.376   0.641  0.00  0.00    +0.063 C 
BRANCH  20  24
ATOM     24  C   UNL     1      -2.920 -10.204   3.758  0.00  0.00    +0.060 A 
ATOM     25  C   UNL     1      -2.179 -10.861   4.732  0.00  0.00    +0.026 A 
ATOM     26  C   UNL     1      -2.701 -11.974   5.361  0.00  0.00    +0.005 A 
ATOM     27  C   UNL     1      -3.960 -12.435   5.022  0.00  0.00    -0.050 A 
ATOM     28  C   UNL     1      -4.700 -11.784   4.052  0.00  0.00    +0.005 A 
ATOM     29  C   UNL     1      -4.186 -10.666   3.424  0.00  0.00    +0.026 A 
ATOM     30  C   UNL     1      -4.526 -13.651   5.710  0.00  0.00    +0.044 C 
ENDBRANCH  20  24
ENDBRANCH   1  17
BRANCH   1  31
ATOM     31  C   UNL     1       1.400  -7.589   2.248  0.00  0.00    -0.036 A 
ATOM     32  C   UNL     1       1.675  -6.620   3.195  0.00  0.00    +0.004 A 
ATOM     33  C   UNL     1       2.861  -6.664   3.905  0.00  0.00    +0.003 A 
ATOM     34  C   UNL     1       3.772  -7.677   3.667  0.00  0.00    +0.033 A 
ATOM     35  C   UNL     1       3.496  -8.646   2.720  0.00  0.00    +0.126 A 
ATOM     36  C   UNL     1       2.308  -8.604   2.014  0.00  0.00    +0.037 A 
BRANCH  35  37
ATOM     37  N   UNL     1       4.471  -9.730   2.465  0.00  0.00    +0.056 N 
ATOM     38  O   UNL     1       5.509  -9.768   3.085  0.00  0.00    -0.126 OA
ATOM     39  O   UNL     1       4.230 -10.577   1.637  0.00  0.00    -0.126 OA
ENDBRANCH  35  37
ENDBRANCH   1  31
TORSDOF 6
