REMARK  Name = ZINC11909608
REMARK  15 active torsions:
REMARK  status: ('A' for Active; 'I' for Inactive)
REMARK    1  A    between atoms: C_1  and  C_2
REMARK    2  A    between atoms: C_7  and  C_8
REMARK    3  A    between atoms: C_8  and  S_9
REMARK    4  A    between atoms: S_9  and  C_10
REMARK    5  A    between atoms: C_13  and  C_22
REMARK    6  A    between atoms: N_14  and  C_15
REMARK    7  A    between atoms: C_15  and  C_16
REMARK    8  A    between atoms: C_22  and  N_68
REMARK    9  A    between atoms: C_23  and  N_68
REMARK   10  A    between atoms: C_24  and  C_25
REMARK   11  A    between atoms: C_24  and  N_68
REMARK   12  A    between atoms: C_27  and  O_33
REMARK   13  A    between atoms: C_30  and  O_31
REMARK   14  A    between atoms: O_31  and  C_32
REMARK   15  A    between atoms: O_33  and  C_34
REMARK                            x       y       z     vdW  Elec       q    Type
REMARK                         _______ _______ _______ _____ _____    ______ ____
ROOT
ATOM      1  C   UNL     1       1.733   2.486  -0.077  0.00  0.00    +0.192 A 
ATOM      2  N   UNL     1       2.721   1.664  -0.346  0.00  0.00    -0.123 NA
ATOM      3  N   UNL     1       3.843   2.281  -0.243  0.00  0.00    -0.135 NA
ATOM      4  C   UNL     1       3.641   3.521   0.103  0.00  0.00    +0.117 A 
ATOM      5  N   UNL     1       2.290   3.696   0.221  0.00  0.00    -0.305 N 
ENDROOT
BRANCH   1   6
ATOM      6  S   UNL     1       0.015   2.098  -0.091  0.00  0.00    -0.081 S 
BRANCH   6   7
ATOM      7  C   UNL     1       0.090   0.353  -0.567  0.00  0.00    +0.112 C 
BRANCH   7  14
ATOM      8  C   UNL     1      -1.117  -0.848   1.767  0.00  0.00    +0.044 C 
ATOM      9  C   UNL     1      -1.884  -0.781   0.472  0.00  0.00    -0.046 A 
ATOM     10  C   UNL     1      -3.168  -1.291   0.402  0.00  0.00    +0.003 A 
ATOM     11  C   UNL     1      -3.869  -1.236  -0.787  0.00  0.00    +0.000 A 
ATOM     12  C   UNL     1      -3.290  -0.666  -1.905  0.00  0.00    +0.000 A 
ATOM     13  C   UNL     1      -2.009  -0.151  -1.834  0.00  0.00    +0.005 A 
ATOM     14  C   UNL     1      -1.307  -0.207  -0.645  0.00  0.00    -0.034 A 
ENDBRANCH   7  14
ENDBRANCH   6   7
ENDBRANCH   1   6
BRANCH   5  15
ATOM     15  C   UNL     1       1.586   4.926   0.591  0.00  0.00    +0.157 C 
BRANCH  15  16
ATOM     16  C   UNL     1       1.472   5.010   2.114  0.00  0.00    +0.138 C 
ATOM     17  C   UNL     1       0.729   6.306   2.527  0.00  0.00    +0.035 C 
ATOM     18  C   UNL     1       0.169   5.895   3.916  0.00  0.00    +0.031 C 
ATOM     19  C   UNL     1      -0.133   4.394   3.716  0.00  0.00    +0.160 C 
ATOM     20  O   UNL     1       0.658   3.937   2.613  0.00  0.00    -0.375 OA
ENDBRANCH  15  16
ENDBRANCH   5  15
BRANCH   4  21
ATOM     21  C   UNL     1       4.701   4.569   0.331  0.00  0.00    -0.001 C 
BRANCH  21  23
ATOM     22  C   UNL     1       5.568   4.567  -1.930  0.00  0.00    -0.095 C 
ATOM     23  N   UNL     1       4.857   5.362  -0.907  0.00  0.00    +0.385 N 
ATOM     24  H   UNL     1       3.927   5.611  -1.264  0.00  0.00    -0.081 HD
BRANCH  23  25
ATOM     25  C   UNL     1       5.608   6.603  -0.620  0.00  0.00    -0.039 C 
BRANCH  25  26
ATOM     26  C   UNL     1       5.563   7.491  -1.836  0.00  0.00    -0.019 A 
ATOM     27  C   UNL     1       6.649   7.551  -2.688  0.00  0.00    +0.051 A 
ATOM     28  C   UNL     1       6.608   8.367  -3.808  0.00  0.00    +0.121 A 
ATOM     29  C   UNL     1       5.476   9.124  -4.073  0.00  0.00    +0.049 A 
ATOM     30  C   UNL     1       4.390   9.064  -3.221  0.00  0.00    +0.049 A 
ATOM     31  C   UNL     1       4.430   8.243  -2.104  0.00  0.00    +0.122 A 
BRANCH  31  32
ATOM     32  O   UNL     1       3.359   8.180  -1.268  0.00  0.00    -0.495 OA
ATOM     33  C   UNL     1       2.225   8.982  -1.605  0.00  0.00    +0.277 C 
ENDBRANCH  31  32
BRANCH  28  34
ATOM     34  O   UNL     1       7.677   8.427  -4.646  0.00  0.00    -0.495 OA
ATOM     35  C   UNL     1       7.565   9.289  -5.780  0.00  0.00    +0.277 C 
ENDBRANCH  28  34
ENDBRANCH  25  26
ENDBRANCH  23  25
ENDBRANCH  21  23
ENDBRANCH   4  21
TORSDOF 11
