REMARK  Name = ZINC13032885
REMARK  11 active torsions:
REMARK  status: ('A' for Active; 'I' for Inactive)
REMARK    1  A    between atoms: C_1  and  C_2
REMARK    2  A    between atoms: C_5  and  C_37
REMARK    3  A    between atoms: C_9  and  C_14
REMARK    4  A    between atoms: C_14  and  N_66
REMARK    5  A    between atoms: C_15  and  C_16
REMARK    6  A    between atoms: C_15  and  N_66
REMARK    7  A    between atoms: C_16  and  C_17
REMARK    8  A    between atoms: C_23  and  C_24
REMARK    9  A    between atoms: C_23  and  N_66
REMARK   10  A    between atoms: N_28  and  C_29
REMARK   11  A    between atoms: C_29  and  C_30
REMARK                            x       y       z     vdW  Elec       q    Type
REMARK                         _______ _______ _______ _____ _____    ______ ____
ROOT
ATOM      1  N   UNL     1       1.658  -2.489  -0.458  0.00  0.00    +0.387 N 
ATOM      2  H   UNL     1       0.983  -2.264  -1.198  0.00  0.00    -0.081 HD
ENDROOT
BRANCH   1   3
ATOM      3  C   UNL     1       1.642  -3.948  -0.221  0.00  0.00    -0.037 C 
BRANCH   3  12
ATOM      4  C   UNL     1      -1.562  -5.899  -3.833  0.00  0.00    +0.044 C 
ATOM      5  C   UNL     1      -2.332  -5.833  -2.539  0.00  0.00    -0.041 A 
ATOM      6  C   UNL     1      -3.632  -6.251  -2.493  0.00  0.00    +0.004 A 
ATOM      7  C   UNL     1      -4.350  -6.196  -1.306  0.00  0.00    +0.005 A 
ATOM      8  C   UNL     1      -3.767  -5.717  -0.153  0.00  0.00    -0.026 A 
ATOM      9  C   UNL     1      -2.445  -5.286  -0.176  0.00  0.00    +0.052 A 
ATOM     10  C   UNL     1      -1.720  -5.344  -1.381  0.00  0.00    +0.002 A 
ATOM     11  C   UNL     1      -0.328  -4.888  -1.395  0.00  0.00    +0.017 A 
ATOM     12  C   UNL     1       0.213  -4.425  -0.241  0.00  0.00    +0.001 A 
ATOM     13  C   UNL     1      -0.556  -4.392   0.942  0.00  0.00    +0.251 A 
ATOM     14  O   UNL     1      -0.049  -3.977   1.969  0.00  0.00    -0.268 OA
ATOM     15  N   UNL     1      -1.836  -4.803   0.963  0.00  0.00    -0.322 N 
ATOM     16  H   UNL     1      -2.337  -4.764   1.793  0.00  0.00    +0.169 HD
ATOM     17  C   UNL     1      -4.558  -5.663   1.129  0.00  0.00    +0.046 C 
ENDBRANCH   3  12
ENDBRANCH   1   3
BRANCH   1  18
ATOM     18  C   UNL     1       3.005  -2.062  -0.891  0.00  0.00    -0.073 C 
BRANCH  18  19
ATOM     19  C   UNL     1       3.224  -2.520  -2.335  0.00  0.00    +0.016 C 
BRANCH  19  20
ATOM     20  C   UNL     1       4.629  -2.178  -2.762  0.00  0.00    -0.049 A 
ATOM     21  C   UNL     1       4.912  -0.921  -3.264  0.00  0.00    +0.003 A 
ATOM     22  C   UNL     1       6.201  -0.607  -3.651  0.00  0.00    +0.000 A 
ATOM     23  C   UNL     1       7.205  -1.552  -3.546  0.00  0.00    +0.000 A 
ATOM     24  C   UNL     1       6.920  -2.810  -3.050  0.00  0.00    +0.000 A 
ATOM     25  C   UNL     1       5.632  -3.123  -2.658  0.00  0.00    +0.003 A 
ENDBRANCH  19  20
ENDBRANCH  18  19
ENDBRANCH   1  18
BRANCH   1  26
ATOM     26  C   UNL     1       1.274  -1.772   0.777  0.00  0.00    +0.001 C 
BRANCH  26  27
ATOM     27  C   UNL     1       1.156  -0.302   0.469  0.00  0.00    +0.135 A 
ATOM     28  N   UNL     1       2.126   0.580   0.476  0.00  0.00    -0.115 NA
ATOM     29  N   UNL     1       1.625   1.724   0.162  0.00  0.00    -0.023 NA
ATOM     30  N   UNL     1       0.361   1.596  -0.045  0.00  0.00    -0.044 NA
ATOM     31  N   UNL     1       0.034   0.361   0.135  0.00  0.00    -0.227 N 
BRANCH  31  32
ATOM     32  C   UNL     1      -1.308  -0.211   0.000  0.00  0.00    +0.182 C 
BRANCH  32  33
ATOM     33  C   UNL     1      -1.585  -0.507  -1.452  0.00  0.00    -0.026 A 
ATOM     34  C   UNL     1      -2.073   0.488  -2.278  0.00  0.00    +0.008 A 
ATOM     35  C   UNL     1      -2.322   0.220  -3.611  0.00  0.00    +0.038 A 
ATOM     36  C   UNL     1      -2.094  -1.049  -4.115  0.00  0.00    +0.123 A 
ATOM     37  C   UNL     1      -1.610  -2.046  -3.285  0.00  0.00    +0.038 A 
ATOM     38  C   UNL     1      -1.356  -1.774  -1.954  0.00  0.00    +0.008 A 
ATOM     39  F   UNL     1      -2.341  -1.314  -5.417  0.00  0.00    -0.205 F 
ENDBRANCH  32  33
ENDBRANCH  31  32
ENDBRANCH  26  27
ENDBRANCH   1  26
TORSDOF 9
