REMARK  Name = ZINC02791382
REMARK  5 active torsions:
REMARK  status: ('A' for Active; 'I' for Inactive)
REMARK    1  A    between atoms: C_4  and  C_7
REMARK    2  A    between atoms: C_7  and  N_8
REMARK    3  A    between atoms: C_9  and  C_15
REMARK    4  A    between atoms: C_19  and  C_30
REMARK    5  A    between atoms: C_22  and  C_26
REMARK                            x       y       z     vdW  Elec       q    Type
REMARK                         _______ _______ _______ _____ _____    ______ ____
ROOT
ATOM      1  C   UNL     1       5.360   1.413   1.516  0.00  0.00    +0.092 C 
ATOM      2  C   UNL     1       4.998   1.948   0.317  0.00  0.00    +0.071 C 
ATOM      3  C   UNL     1       5.599   3.218   0.204  0.00  0.00    +0.114 C 
ATOM      4  N   UNL     1       5.523   4.093  -0.767  0.00  0.00    -0.365 N 
ATOM      5  C   UNL     1       6.220   5.377  -0.627  0.00  0.00    +0.113 C 
ATOM      6  C   UNL     1       7.497   5.209   0.196  0.00  0.00    +0.062 C 
ATOM      7  C   UNL     1       7.151   4.632   1.578  0.00  0.00    +0.201 C 
ATOM      8  N   UNL     1       6.350   3.424   1.357  0.00  0.00    -0.226 N 
ATOM      9  N   UNL     1       6.178   2.315   2.178  0.00  0.00    -0.259 N 
ATOM     10  H   UNL     1       6.564   2.193   3.059  0.00  0.00    +0.170 HD
ATOM     11  H   UNL     1       5.013   3.896  -1.568  0.00  0.00    +0.161 HD
ENDROOT
BRANCH   1  13
ATOM     12  N   UNL     1       4.222  -0.853   1.328  0.00  0.00    -0.298 N 
ATOM     13  C   UNL     1       4.946   0.096   2.028  0.00  0.00    +0.178 A 
ATOM     14  N   UNL     1       5.200  -0.374   3.220  0.00  0.00    -0.152 NA
ATOM     15  N   UNL     1       4.636  -1.654   3.310  0.00  0.00    -0.254 N 
ATOM     16  H   UNL     1       4.667  -2.241   4.081  0.00  0.00    +0.191 HD
ATOM     17  C   UNL     1       4.035  -1.919   2.131  0.00  0.00    +0.176 A 
ATOM     18  S   UNL     1       3.191  -3.352   1.728  0.00  0.00    -0.011 S 
BRANCH  12  19
ATOM     19  C   UNL     1       3.736  -0.719  -0.048  0.00  0.00    +0.161 C 
BRANCH  19  23
ATOM     20  C   UNL     1      -0.341   0.554  -0.004  0.00  0.00    +0.000 A 
ATOM     21  C   UNL     1       0.675   1.488   0.075  0.00  0.00    +0.000 A 
ATOM     22  C   UNL     1       1.995   1.076   0.061  0.00  0.00    +0.005 A 
ATOM     23  C   UNL     1       2.298  -0.270  -0.031  0.00  0.00    -0.028 A 
ATOM     24  C   UNL     1       1.281  -1.203  -0.109  0.00  0.00    +0.005 A 
ATOM     25  C   UNL     1      -0.038  -0.791  -0.096  0.00  0.00    +0.000 A 
ENDBRANCH  19  23
ENDBRANCH  12  19
ENDBRANCH   1  13
BRANCH   5  26
ATOM     26  C   UNL     1       5.312   6.363   0.062  0.00  0.00    -0.025 A 
ATOM     27  C   UNL     1       4.521   5.952   1.119  0.00  0.00    +0.007 A 
ATOM     28  C   UNL     1       3.688   6.855   1.751  0.00  0.00    +0.020 A 
ATOM     29  C   UNL     1       3.646   8.171   1.327  0.00  0.00    +0.041 A 
ATOM     30  C   UNL     1       4.438   8.582   0.270  0.00  0.00    +0.020 A 
ATOM     31  C   UNL     1       5.275   7.679  -0.358  0.00  0.00    +0.007 A 
ATOM     32 CL   UNL     1       2.600   9.307   2.120  0.00  0.00    -0.084 Cl
ENDBRANCH   5  26
BRANCH   7  33
ATOM     33  C   UNL     1       8.435   4.277   2.331  0.00  0.00    +0.410 C 
ATOM     34  F   UNL     1       9.214   5.427   2.493  0.00  0.00    -0.169 F 
ATOM     35  F   UNL     1       8.110   3.753   3.587  0.00  0.00    -0.169 F 
ATOM     36  F   UNL     1       9.155   3.325   1.601  0.00  0.00    -0.169 F 
ENDBRANCH   7  33
TORSDOF 5
