REMARK  Name = ZINC39035207
REMARK  13 active torsions:
REMARK  status: ('A' for Active; 'I' for Inactive)
REMARK    1  A    between atoms: C_1  and  C_2
REMARK    2  A    between atoms: C_2  and  C_3
REMARK    3  A    between atoms: C_3  and  O_4
REMARK    4  A    between atoms: O_4  and  C_5
REMARK    5  A    between atoms: C_5  and  C_7
REMARK    6  A    between atoms: C_10  and  O_13
REMARK    7  A    between atoms: O_13  and  C_14
REMARK    8  A    between atoms: C_18  and  C_20
REMARK    9  A    between atoms: C_23  and  O_27
REMARK   10  A    between atoms: C_25  and  O_26
REMARK   11  A    between atoms: O_27  and  C_28
REMARK   12  A    between atoms: C_28  and  C_29
REMARK   13  A    between atoms: C_32  and  C_35
REMARK                            x       y       z     vdW  Elec       q    Type
REMARK                         _______ _______ _______ _____ _____    ______ ____
ROOT
ATOM      1  C   UNL     1       2.170  -8.794   3.525  0.00  0.00    +0.153 C 
ATOM      2  C   UNL     1       2.715  -8.270   4.641  0.00  0.00    +0.176 C 
ATOM      3  N   UNL     1       3.175  -9.237   5.444  0.00  0.00    -0.182 NA
ATOM      4  N   UNL     1       3.015 -10.383   5.019  0.00  0.00    -0.294 N 
ATOM      5  C   UNL     1       2.335 -10.293   3.715  0.00  0.00    +0.199 C 
ATOM      6  H   UNL     1       3.286 -11.200   5.466  0.00  0.00    +0.184 HD
ENDROOT
BRANCH   5   7
ATOM      7  C   UNL     1       0.993 -10.976   3.761  0.00  0.00    +0.025 A 
ATOM      8  C   UNL     1       0.389 -11.230   4.978  0.00  0.00    +0.013 A 
ATOM      9  C   UNL     1      -0.841 -11.857   5.024  0.00  0.00    +0.046 A 
ATOM     10  C   UNL     1      -1.474 -12.233   3.847  0.00  0.00    +0.124 A 
ATOM     11  C   UNL     1      -0.870 -11.979   2.625  0.00  0.00    +0.091 A 
ATOM     12  C   UNL     1       0.362 -11.345   2.582  0.00  0.00    +0.126 A 
BRANCH  12  13
ATOM     13  O   UNL     1       0.954 -11.090   1.385  0.00  0.00    -0.506 OA
ATOM     14  H   UNL     1       1.527 -11.802   1.070  0.00  0.00    +0.292 HD
ENDBRANCH  12  13
BRANCH  10  15
ATOM     15  O   UNL     1      -2.684 -12.850   3.893  0.00  0.00    -0.487 OA
BRANCH  15  16
ATOM     16  C   UNL     1      -3.247 -13.080   5.186  0.00  0.00    +0.264 C 
BRANCH  16  17
ATOM     17  C   UNL     1      -4.580 -13.768   5.039  0.00  0.00    -0.010 A 
ATOM     18  C   UNL     1      -5.734 -13.015   4.918  0.00  0.00    +0.007 A 
ATOM     19  C   UNL     1      -6.957 -13.639   4.783  0.00  0.00    +0.008 A 
ATOM     20  C   UNL     1      -7.028 -15.032   4.768  0.00  0.00    -0.026 A 
ATOM     21  C   UNL     1      -5.860 -15.786   4.890  0.00  0.00    +0.008 A 
ATOM     22  C   UNL     1      -4.643 -15.149   5.019  0.00  0.00    +0.007 A 
BRANCH  20  23
ATOM     23  C   UNL     1      -8.335 -15.707   4.624  0.00  0.00    +0.000 C 
ATOM     24  C   UNL     1      -8.400 -17.031   4.610  0.00  0.00    +0.009 C 
ENDBRANCH  20  23
ENDBRANCH  16  17
ENDBRANCH  15  16
ENDBRANCH  10  15
ENDBRANCH   5   7
BRANCH   1  25
ATOM     25  O   UNL     1       1.605  -8.143   2.486  0.00  0.00    -0.456 OA
BRANCH  25  29
ATOM     26  C   UNL     1       3.505  -8.314  -1.174  0.00  0.00    +0.059 A 
ATOM     27  C   UNL     1       4.108  -8.875  -0.044  0.00  0.00    +0.018 A 
ATOM     28  C   UNL     1       3.471  -8.816   1.175  0.00  0.00    +0.047 A 
ATOM     29  C   UNL     1       2.229  -8.199   1.283  0.00  0.00    +0.128 A 
ATOM     30  C   UNL     1       1.626  -7.640   0.162  0.00  0.00    +0.047 A 
ATOM     31  C   UNL     1       2.260  -7.690  -1.060  0.00  0.00    +0.018 A 
BRANCH  26  32
ATOM     32  C   UNL     1       4.184  -8.376  -2.482  0.00  0.00    +0.339 C 
ATOM     33  O   UNL     1       3.661  -7.883  -3.462  0.00  0.00    -0.245 OA
BRANCH  32  34
ATOM     34  O   UNL     1       5.385  -8.978  -2.590  0.00  0.00    -0.461 OA
BRANCH  34  35
ATOM     35  C   UNL     1       5.985  -9.001  -3.887  0.00  0.00    +0.232 C 
BRANCH  35  37
ATOM     36  C   UNL     1       7.975  -9.745  -5.201  0.00  0.00    +0.007 C 
ATOM     37  C   UNL     1       7.332  -9.721  -3.813  0.00  0.00    +0.038 C 
ENDBRANCH  35  37
ENDBRANCH  34  35
ENDBRANCH  32  34
ENDBRANCH  26  32
ENDBRANCH  25  29
ENDBRANCH   1  25
TORSDOF 12
