REMARK  Name = ZINC63406618
REMARK  3 active torsions:
REMARK  status: ('A' for Active; 'I' for Inactive)
REMARK    1  A    between atoms: C_1  and  N_2
REMARK    2  A    between atoms: C_3  and  C_5
REMARK    3  A    between atoms: C_8  and  N_11
REMARK                            x       y       z     vdW  Elec       q    Type
REMARK                         _______ _______ _______ _____ _____    ______ ____
ROOT
ATOM      1  C   UNL     1       0.606  -2.171  -1.026  0.00  0.00    +0.075 C 
ATOM      2  C   UNL     1       1.345  -2.678   0.213  0.00  0.00    +0.014 C 
ATOM      3  C   UNL     1       1.366  -4.208   0.205  0.00  0.00    +0.023 C 
ATOM      4  C   UNL     1       2.082  -4.701  -1.054  0.00  0.00    +0.074 C 
ATOM      5  C   UNL     1       1.342  -4.195  -2.293  0.00  0.00    +0.023 C 
ATOM      6  C   UNL     1       1.322  -2.665  -2.285  0.00  0.00    +0.014 C 
ENDROOT
BRANCH   4   7
ATOM      7  N   UNL     1       3.457  -4.194  -1.064  0.00  0.00    -0.296 N 
ATOM      8  C   UNL     1       4.413  -4.854  -1.747  0.00  0.00    +0.302 C 
ATOM      9  O   UNL     1       4.136  -5.871  -2.353  0.00  0.00    -0.253 OA
ATOM     10  N   UNL     1       5.678  -4.388  -1.756  0.00  0.00    -0.286 N 
ATOM     11  C   UNL     1       5.977  -3.180  -1.020  0.00  0.00    +0.109 C 
ATOM     12  C   UNL     1       5.763  -1.948  -1.934  0.00  0.00    +0.019 C 
ATOM     13  C   UNL     1       6.820  -1.881  -2.955  0.00  0.00    +0.002 C 
ATOM     14  C   UNL     1       6.840  -3.066  -3.917  0.00  0.00    +0.002 C 
ATOM     15  C   UNL     1       7.634  -4.193  -3.304  0.00  0.00    +0.019 C 
ATOM     16  C   UNL     1       6.702  -5.135  -2.513  0.00  0.00    +0.109 C 
ATOM     17  H   UNL     1       3.678  -3.384  -0.580  0.00  0.00    +0.151 HD
ENDBRANCH   4   7
BRANCH   1  20
ATOM     18  C   UNL     1      -0.018   1.461   0.010  0.00  0.00    +0.128 C 
ATOM     19  N   UNL     1       0.002  -0.004   0.002  0.00  0.00    -0.318 N 
ATOM     20  C   UNL     1       0.585  -0.664  -1.018  0.00  0.00    +0.216 C 
ATOM     21  O   UNL     1       1.093  -0.046  -1.929  0.00  0.00    -0.276 OA
ATOM     22  H   UNL     1      -0.404  -0.499   0.731  0.00  0.00    +0.148 HD
ENDBRANCH   1  20
TORSDOF 2
