REMARK  Name = ZINC00678176
REMARK  10 active torsions:
REMARK  status: ('A' for Active; 'I' for Inactive)
REMARK    1  A    between atoms: C_1  and  C_2
REMARK    2  A    between atoms: C_2  and  O_3
REMARK    3  A    between atoms: O_3  and  C_4
REMARK    4  A    between atoms: C_9  and  N_10
REMARK    5  A    between atoms: C_11  and  C_13
REMARK    6  A    between atoms: C_13  and  N_14
REMARK    7  A    between atoms: N_14  and  C_15
REMARK    8  A    between atoms: N_14  and  S_24
REMARK    9  A    between atoms: C_19  and  N_21
REMARK   10  A    between atoms: S_24  and  C_27
REMARK                            x       y       z     vdW  Elec       q    Type
REMARK                         _______ _______ _______ _____ _____    ______ ____
ROOT
ATOM      1  N   UNL     1       0.046   0.262   0.171  0.00  0.00    -0.194 N 
ENDROOT
BRANCH   1   2
ATOM      2  C   UNL     1       0.023  -0.169  -1.157  0.00  0.00    +0.054 A 
ATOM      3  C   UNL     1       0.980  -1.066  -1.615  0.00  0.00    +0.025 A 
ATOM      4  C   UNL     1       0.951  -1.494  -2.928  0.00  0.00    +0.004 A 
ATOM      5  C   UNL     1      -0.023  -1.022  -3.789  0.00  0.00    +0.033 A 
ATOM      6  C   UNL     1      -0.975  -0.126  -3.338  0.00  0.00    +0.128 A 
ATOM      7  C   UNL     1      -0.954   0.302  -2.025  0.00  0.00    +0.057 A 
BRANCH   6   8
ATOM      8  N   UNL     1      -2.015   0.376  -4.263  0.00  0.00    +0.056 N 
ATOM      9  O   UNL     1      -2.853   1.166  -3.867  0.00  0.00    -0.126 OA
ATOM     10  O   UNL     1      -2.033  -0.001  -5.421  0.00  0.00    -0.126 OA
ENDBRANCH   6   8
ENDBRANCH   1   2
BRANCH   1  11
ATOM     11  S   UNL     1       0.224   1.872   0.516  0.00  0.00    +0.075 S 
ATOM     12  O   UNL     1      -0.131   2.582  -0.663  0.00  0.00    -0.150 OA
ATOM     13  O   UNL     1      -0.421   2.094   1.762  0.00  0.00    -0.150 OA
BRANCH  11  14
ATOM     14  C   UNL     1       1.942   2.162   0.779  0.00  0.00    +0.109 A 
ATOM     15  C   UNL     1       2.476   2.047   2.049  0.00  0.00    +0.029 A 
ATOM     16  C   UNL     1       3.825   2.269   2.254  0.00  0.00    +0.002 A 
ATOM     17  C   UNL     1       4.638   2.616   1.192  0.00  0.00    +0.000 A 
ATOM     18  C   UNL     1       4.103   2.737  -0.077  0.00  0.00    +0.002 A 
ATOM     19  C   UNL     1       2.755   2.510  -0.284  0.00  0.00    +0.029 A 
ENDBRANCH  11  14
ENDBRANCH   1  11
BRANCH   1  20
ATOM     20  C   UNL     1      -0.087  -0.709   1.259  0.00  0.00    +0.227 C 
BRANCH  20  22
ATOM     21  N   UNL     1      -1.912  -1.840   2.487  0.00  0.00    -0.281 N 
ATOM     22  C   UNL     1      -1.547  -0.973   1.522  0.00  0.00    +0.236 C 
ATOM     23  O   UNL     1      -2.394  -0.405   0.865  0.00  0.00    -0.274 OA
ATOM     24  H   UNL     1      -1.239  -2.244   3.056  0.00  0.00    +0.155 HD
BRANCH  21  30
ATOM     25  C   UNL     1      -3.628  -3.395   3.195  0.00  0.00    +0.142 A 
ATOM     26  C   UNL     1      -4.967  -3.703   3.372  0.00  0.00    +0.047 A 
ATOM     27  C   UNL     1      -5.940  -2.784   3.026  0.00  0.00    +0.004 A 
ATOM     28  C   UNL     1      -5.580  -1.555   2.503  0.00  0.00    +0.002 A 
ATOM     29  C   UNL     1      -4.247  -1.238   2.328  0.00  0.00    +0.027 A 
ATOM     30  C   UNL     1      -3.265  -2.157   2.668  0.00  0.00    +0.076 A 
BRANCH  25  31
ATOM     31  O   UNL     1      -2.670  -4.298   3.535  0.00  0.00    -0.490 OA
BRANCH  31  33
ATOM     32  C   UNL     1      -1.904  -6.424   4.391  0.00  0.00    +0.048 C 
ATOM     33  C   UNL     1      -3.115  -5.546   4.070  0.00  0.00    +0.226 C 
ENDBRANCH  31  33
ENDBRANCH  25  31
ENDBRANCH  21  30
ENDBRANCH  20  22
ENDBRANCH   1  20
TORSDOF 9
