REMARK  Name = ZINC40993098
REMARK  6 active torsions:
REMARK  status: ('A' for Active; 'I' for Inactive)
REMARK    1  A    between atoms: C_1  and  C_2
REMARK    2  A    between atoms: C_2  and  C_30
REMARK    3  A    between atoms: C_3  and  C_26
REMARK    4  A    between atoms: C_5  and  C_7
REMARK    5  A    between atoms: C_12  and  C_15
REMARK    6  A    between atoms: C_19  and  N_21
REMARK                            x       y       z     vdW  Elec       q    Type
REMARK                         _______ _______ _______ _____ _____    ______ ____
ROOT
ATOM      1  C   UNL     1       0.116  -2.011   1.645  0.00  0.00    +0.223 C 
ATOM      2  O   UNL     1      -0.874  -2.464   1.110  0.00  0.00    -0.275 OA
ATOM      3  N   UNL     1       0.691  -2.673   2.668  0.00  0.00    -0.264 N 
ATOM      4  C   UNL     1       0.151  -3.875   3.109  0.00  0.00    +0.165 A 
ATOM      5  N   UNL     1       0.557  -4.665   4.086  0.00  0.00    -0.225 NA
ATOM      6  C   UNL     1      -0.084  -5.787   4.375  0.00  0.00    +0.080 A 
ATOM      7  C   UNL     1      -1.188  -6.136   3.647  0.00  0.00    +0.076 A 
ATOM      8  S   UNL     1      -1.282  -4.759   2.509  0.00  0.00    -0.060 S 
ATOM      9  H   UNL     1       1.483  -2.311   3.097  0.00  0.00    +0.157 HD
ENDROOT
BRANCH   6  10
ATOM     10  C   UNL     1       0.391  -6.659   5.477  0.00  0.00    +0.003 A 
ATOM     11  C   UNL     1      -0.284  -7.843   5.773  0.00  0.00    +0.010 A 
ATOM     12  C   UNL     1       0.160  -8.652   6.799  0.00  0.00    +0.003 A 
ATOM     13  C   UNL     1       1.273  -8.293   7.536  0.00  0.00    +0.028 A 
ATOM     14  C   UNL     1       1.951  -7.115   7.248  0.00  0.00    +0.069 A 
ATOM     15  C   UNL     1       1.515  -6.299   6.216  0.00  0.00    +0.038 A 
BRANCH  14  16
ATOM     16  N   UNL     1       3.080  -6.754   7.999  0.00  0.00    -0.200 N 
ATOM     17  C   UNL     1       3.692  -7.480   8.960  0.00  0.00    +0.250 A 
ATOM     18  N   UNL     1       4.700  -6.771   9.398  0.00  0.00    -0.116 NA
ATOM     19  N   UNL     1       4.766  -5.648   8.780  0.00  0.00    -0.023 NA
ATOM     20  N   UNL     1       3.820  -5.562   7.909  0.00  0.00    -0.039 NA
ENDBRANCH  14  16
ENDBRANCH   6  10
BRANCH   1  24
ATOM     21  C   UNL     1      -0.019   1.526   0.010  0.00  0.00    +0.012 C 
ATOM     22  C   UNL     1       0.002  -0.004   0.002  0.00  0.00    -0.016 C 
ATOM     23  C   UNL     1       1.351  -0.691  -0.218  0.00  0.00    +0.033 C 
ATOM     24  C   UNL     1       0.701  -0.708   1.167  0.00  0.00    +0.089 C 
ATOM     25  C   UNL     1      -1.239  -0.678  -0.588  0.00  0.00    +0.012 C 
BRANCH  23  26
ATOM     26  C   UNL     1       2.558   0.191  -0.410  0.00  0.00    +0.010 C 
ATOM     27  C   UNL     1       3.255   0.117  -1.521  0.00  0.00    +0.103 C 
ATOM     28 CL   UNL     1       2.786  -0.997  -2.768  0.00  0.00    -0.071 Cl
ATOM     29 CL   UNL     1       4.645   1.133  -1.743  0.00  0.00    -0.071 Cl
ENDBRANCH  23  26
ENDBRANCH   1  24
TORSDOF 4
