REMARK  Name = ZINC66704869
REMARK  5 active torsions:
REMARK  status: ('A' for Active; 'I' for Inactive)
REMARK    1  A    between atoms: C_1  and  C_2
REMARK    2  A    between atoms: C_2  and  C_3
REMARK    3  A    between atoms: N_13  and  C_14
REMARK    4  A    between atoms: C_14  and  C_15
REMARK    5  A    between atoms: C_15  and  C_20
REMARK                            x       y       z     vdW  Elec       q    Type
REMARK                         _______ _______ _______ _____ _____    ______ ____
ROOT
ATOM      1  C   UNL     1       0.795  -0.407  -1.238  0.00  0.00    +0.163 C 
ATOM      2  C   UNL     1       0.730  -1.898  -1.433  0.00  0.00    +0.234 C 
ATOM      3  O   UNL     1      -0.350  -2.445  -1.349  0.00  0.00    -0.274 OA
ATOM      4  N   UNL     1       1.803  -2.645  -1.694  0.00  0.00    -0.312 N 
ATOM      5  C   UNL     1       3.170  -2.143  -1.734  0.00  0.00    +0.123 C 
ATOM      6  C   UNL     1       3.187  -0.633  -1.980  0.00  0.00    +0.129 C 
ATOM      7  N   UNL     1       2.202  -0.007  -1.080  0.00  0.00    -0.273 N 
ATOM      8  C   UNL     1       2.574   0.892  -0.148  0.00  0.00    +0.303 C 
ATOM      9  O   UNL     1       1.755   1.330   0.636  0.00  0.00    -0.253 OA
ATOM     10  N   UNL     1       3.855   1.307  -0.086  0.00  0.00    -0.299 N 
ATOM     11  H   UNL     1       1.664  -3.589  -1.869  0.00  0.00    +0.149 HD
ATOM     12  H   UNL     1       4.523   0.907  -0.665  0.00  0.00    +0.150 HD
ENDROOT
BRANCH   1  14
ATOM     13  C   UNL     1       0.587  -0.751   1.228  0.00  0.00    +0.006 C 
ATOM     14  C   UNL     1       0.008  -0.019   0.015  0.00  0.00    +0.028 C 
ENDBRANCH   1  14
BRANCH  10  15
ATOM     15  C   UNL     1       4.238   2.362   0.855  0.00  0.00    +0.112 C 
BRANCH  15  16
ATOM     16  C   UNL     1       5.737   2.643   0.724  0.00  0.00    -0.016 C 
ATOM     17  C   UNL     1       6.545   1.386   1.107  0.00  0.00    +0.008 C 
ATOM     18  C   UNL     1       7.787   1.944   1.845  0.00  0.00    +0.001 C 
ATOM     19  C   UNL     1       7.201   3.128   2.654  0.00  0.00    +0.001 C 
ATOM     20  C   UNL     1       6.154   3.750   1.708  0.00  0.00    +0.008 C 
ATOM     21  C   UNL     1       6.068   3.063  -0.710  0.00  0.00    +0.013 C 
ENDBRANCH  15  16
ENDBRANCH  10  15
TORSDOF 3
