REMARK  Name = ZINC12491796
REMARK  6 active torsions:
REMARK  status: ('A' for Active; 'I' for Inactive)
REMARK    1  A    between atoms: C_4  and  C_7
REMARK    2  A    between atoms: C_7  and  N_15
REMARK    3  A    between atoms: N_8  and  C_9
REMARK    4  A    between atoms: P_16  and  C_17
REMARK    5  A    between atoms: P_16  and  N_27
REMARK    6  A    between atoms: P_16  and  N_33
REMARK                            x       y       z     vdW  Elec       q    Type
REMARK                         _______ _______ _______ _____ _____    ______ ____
ROOT
ATOM      1  N   UNL     1       0.884   4.409   1.382  0.00  0.00    -0.216 NA
ATOM      2  P   UNL     1       1.233   3.075   0.666  0.00  0.00    +0.113 P 
ENDROOT
BRANCH   2   3
ATOM      3  C   UNL     1       3.041   2.942   0.476  0.00  0.00    +0.033 C 
ATOM      4  C   UNL     1       3.727   3.501   1.724  0.00  0.00    +0.019 C 
ATOM      5  C   UNL     1       5.245   3.390   1.565  0.00  0.00    -0.009 C 
ATOM      6  C   UNL     1       5.689   4.188   0.338  0.00  0.00    +0.007 C 
ATOM      7  C   UNL     1       5.003   3.629  -0.910  0.00  0.00    -0.009 C 
ATOM      8  C   UNL     1       3.485   3.741  -0.751  0.00  0.00    +0.019 C 
ATOM      9  C   UNL     1       5.390   2.160  -1.090  0.00  0.00    +0.007 C 
ATOM     10  C   UNL     1       4.946   1.361   0.137  0.00  0.00    -0.009 C 
ATOM     11  C   UNL     1       5.632   1.921   1.385  0.00  0.00    +0.007 C 
ATOM     12  C   UNL     1       3.428   1.473   0.296  0.00  0.00    +0.019 C 
ENDBRANCH   2   3
BRANCH   2  13
ATOM     13  N   UNL     1       0.668   1.782   1.583  0.00  0.00    -0.252 NA
ATOM     14  C   UNL     1      -0.792   1.848   1.745  0.00  0.00    +0.119 C 
ATOM     15  C   UNL     1      -1.268   0.625   2.532  0.00  0.00    +0.175 C 
ATOM     16  O   UNL     1      -0.586   0.577   3.788  0.00  0.00    -0.377 OA
ATOM     17  C   UNL     1       0.837   0.511   3.668  0.00  0.00    +0.175 C 
ATOM     18  C   UNL     1       1.335   1.733   2.892  0.00  0.00    +0.119 C 
ENDBRANCH   2  13
BRANCH   2  19
ATOM     19  N   UNL     1       0.506   3.047  -0.851  0.00  0.00    -0.252 NA
ATOM     20  C   UNL     1       1.032   1.942  -1.667  0.00  0.00    +0.119 C 
ATOM     21  C   UNL     1       0.303   1.917  -3.013  0.00  0.00    +0.175 C 
ATOM     22  O   UNL     1       0.455   3.185  -3.656  0.00  0.00    -0.377 OA
ATOM     23  C   UNL     1      -0.047   4.283  -2.890  0.00  0.00    +0.175 C 
ATOM     24  C   UNL     1       0.678   4.333  -1.543  0.00  0.00    +0.119 C 
ENDBRANCH   2  19
BRANCH   1  25
ATOM     25  C   UNL     1      -0.293   4.964   1.200  0.00  0.00    +0.162 C 
ATOM     26  N   UNL     1      -1.197   4.374   0.404  0.00  0.00    -0.228 NA
BRANCH  25  30
ATOM     27  C   UNL     1      -1.236   8.631   3.137  0.00  0.00    +0.000 A 
ATOM     28  C   UNL     1      -0.515   7.662   3.810  0.00  0.00    +0.001 A 
ATOM     29  C   UNL     1      -0.207   6.470   3.187  0.00  0.00    +0.011 A 
ATOM     30  C   UNL     1      -0.623   6.244   1.876  0.00  0.00    +0.019 A 
ATOM     31  C   UNL     1      -1.344   7.226   1.200  0.00  0.00    +0.011 A 
ATOM     32  C   UNL     1      -1.651   8.412   1.835  0.00  0.00    +0.001 A 
ENDBRANCH  25  30
BRANCH  26  33
ATOM     33  C   UNL     1      -2.437   4.874   0.313  0.00  0.00    +0.066 A 
ATOM     34  C   UNL     1      -3.239   5.003   1.467  0.00  0.00    +0.028 A 
ATOM     35  C   UNL     1      -4.499   5.518   1.362  0.00  0.00    +0.002 A 
ATOM     36  C   UNL     1      -4.996   5.904   0.125  0.00  0.00    +0.000 A 
ATOM     37  C   UNL     1      -4.219   5.778  -1.019  0.00  0.00    +0.002 A 
ATOM     38  C   UNL     1      -2.954   5.270  -0.939  0.00  0.00    +0.028 A 
ENDBRANCH  26  33
ENDBRANCH   1  25
TORSDOF 6
