REMARK  Name = ZINC38597149
REMARK  7 active torsions:
REMARK  status: ('A' for Active; 'I' for Inactive)
REMARK    1  A    between atoms: C_1  and  C_2
REMARK    2  A    between atoms: N_7  and  C_9
REMARK    3  A    between atoms: C_9  and  C_10
REMARK    4  A    between atoms: N_12  and  C_13
REMARK    5  A    between atoms: C_21  and  C_23
REMARK    6  A    between atoms: C_23  and  O_25
REMARK    7  A    between atoms: O_25  and  C_26
REMARK                            x       y       z     vdW  Elec       q    Type
REMARK                         _______ _______ _______ _____ _____    ______ ____
ROOT
ATOM      1  C   UNL     1       1.718  -6.039   3.689  0.00  0.00    +0.053 C 
ATOM      2  C   UNL     1       2.073  -6.896   4.716  0.00  0.00    +0.019 A 
ATOM      3  C   UNL     1       2.745  -6.687   5.945  0.00  0.00    +0.031 A 
ATOM      4  C   UNL     1       2.962  -7.735   6.778  0.00  0.00    +0.042 A 
ATOM      5  C   UNL     1       2.539  -9.028   6.456  0.00  0.00    +0.022 A 
ATOM      6  C   UNL     1       1.891  -9.301   5.298  0.00  0.00    +0.027 A 
ATOM      7  C   UNL     1       1.626  -8.257   4.374  0.00  0.00    +0.045 A 
ATOM      8  N   UNL     1       1.024  -8.262   3.201  0.00  0.00    -0.367 N 
ATOM      9  C   UNL     1       1.014  -6.898   2.662  0.00  0.00    +0.234 C 
ATOM     10 CL   UNL     1       3.787  -7.464   8.282  0.00  0.00    -0.084 Cl
ATOM     11  H   UNL     1       0.645  -9.041   2.766  0.00  0.00    +0.161 HD
ENDROOT
BRANCH   1  14
ATOM     12  C   UNL     1       1.313  -3.951   2.696  0.00  0.00    +0.200 C 
ATOM     13  O   UNL     1       0.582  -4.481   1.887  0.00  0.00    -0.278 OA
ATOM     14  N   UNL     1       1.951  -4.698   3.619  0.00  0.00    -0.288 N 
ATOM     15  H   UNL     1       2.575  -4.281   4.234  0.00  0.00    +0.155 HD
BRANCH  12  16
ATOM     16  C   UNL     1       1.510  -2.457   2.669  0.00  0.00    +0.019 C 
BRANCH  16  22
ATOM     17  C   UNL     1       0.008   1.723   0.609  0.00  0.00    +0.005 C 
ATOM     18  C   UNL     1      -0.090   0.197   0.551  0.00  0.00    -0.031 C 
ATOM     19  C   UNL     1       0.376  -0.293  -0.823  0.00  0.00    -0.001 C 
ATOM     20  C   UNL     1       0.349  -1.825  -0.843  0.00  0.00    -0.018 C 
ATOM     21  C   UNL     1       1.225  -2.360   0.291  0.00  0.00    -0.078 C 
ATOM     22  N   UNL     1       0.713  -1.878   1.579  0.00  0.00    +0.386 N 
ATOM     23  C   UNL     1       0.802  -0.413   1.635  0.00  0.00    -0.075 C 
ATOM     24  H   UNL     1      -0.251  -2.159   1.684  0.00  0.00    -0.081 HD
ENDBRANCH  16  22
ENDBRANCH  12  16
ENDBRANCH   1  14
BRANCH   9  25
ATOM     25  C   UNL     1       1.757  -6.855   1.352  0.00  0.00    +0.335 C 
ATOM     26  O   UNL     1       2.466  -7.779   1.029  0.00  0.00    -0.248 OA
BRANCH  25  27
ATOM     27  O   UNL     1       1.630  -5.792   0.543  0.00  0.00    -0.466 OA
ATOM     28  C   UNL     1       2.363  -5.819  -0.684  0.00  0.00    +0.280 C 
ENDBRANCH  25  27
ENDBRANCH   9  25
TORSDOF 5
