REMARK  Name = ZINC09008147
REMARK  7 active torsions:
REMARK  status: ('A' for Active; 'I' for Inactive)
REMARK    1  A    between atoms: C_4  and  S_24
REMARK    2  A    between atoms: C_5  and  N_7
REMARK    3  A    between atoms: N_7  and  C_8
REMARK    4  A    between atoms: C_9  and  C_10
REMARK    5  A    between atoms: C_9  and  C_12
REMARK    6  A    between atoms: C_14  and  C_17
REMARK    7  A    between atoms: S_24  and  C_25
REMARK                            x       y       z     vdW  Elec       q    Type
REMARK                         _______ _______ _______ _____ _____    ______ ____
ROOT
ATOM      1  C   UNL     1       2.182  -4.231  -0.042  0.00  0.00    +0.093 C 
ATOM      2  C   UNL     1       2.361  -2.879  -0.036  0.00  0.00    +0.098 C 
ENDROOT
BRANCH   2   3
ATOM      3  C   UNL     1       1.192  -1.979  -0.020  0.00  0.00    +0.120 A 
ATOM      4  N   UNL     1       1.153  -0.655  -0.018  0.00  0.00    -0.238 NA
ATOM      5  C   UNL     1       0.002  -0.004   0.002  0.00  0.00    +0.079 A 
ATOM      6  C   UNL     1      -1.170  -0.710   0.009  0.00  0.00    +0.075 A 
ATOM      7  S   UNL     1      -0.549  -2.387  -0.005  0.00  0.00    -0.074 S 
BRANCH   5   8
ATOM      8  C   UNL     1      -0.018   1.479   0.010  0.00  0.00    +0.001 A 
ATOM      9  C   UNL     1      -1.233   2.162   0.020  0.00  0.00    +0.011 A 
ATOM     10  C   UNL     1      -1.246   3.542   0.032  0.00  0.00    +0.016 A 
ATOM     11  C   UNL     1      -0.056   4.248   0.025  0.00  0.00    +0.018 A 
ATOM     12  C   UNL     1       1.154   3.575   0.010  0.00  0.00    +0.016 A 
ATOM     13  C   UNL     1       1.178   2.195   0.003  0.00  0.00    +0.011 A 
ATOM     14 BR   UNL     1      -0.081   6.138   0.035  0.00  0.00    -0.050 Br
ENDBRANCH   5   8
ENDBRANCH   2   3
BRANCH   1  15
ATOM     15  N   UNL     1       3.264  -5.063  -0.057  0.00  0.00    -0.318 N 
ATOM     16  H   UNL     1       4.161  -4.693  -0.064  0.00  0.00    +0.152 HD
BRANCH  15  21
ATOM     17  C   UNL     1       1.619  -8.352  -0.058  0.00  0.00    +0.002 A 
ATOM     18  C   UNL     1       2.714  -9.198  -0.073  0.00  0.00    +0.001 A 
ATOM     19  C   UNL     1       3.994  -8.677  -0.084  0.00  0.00    +0.017 A 
ATOM     20  C   UNL     1       4.184  -7.303  -0.084  0.00  0.00    +0.037 A 
ATOM     21  C   UNL     1       3.080  -6.450  -0.062  0.00  0.00    +0.045 A 
ATOM     22  C   UNL     1       1.799  -6.982  -0.052  0.00  0.00    +0.024 A 
BRANCH  20  23
ATOM     23  S   UNL     1       5.815  -6.636  -0.104  0.00  0.00    -0.014 S 
BRANCH  23  24
ATOM     24  C   UNL     1       6.887  -8.100  -0.128  0.00  0.00    +0.448 C 
ATOM     25  F   UNL     1       6.614  -8.859  -1.271  0.00  0.00    -0.160 F 
ATOM     26  F   UNL     1       8.227  -7.696  -0.146  0.00  0.00    -0.160 F 
ATOM     27  F   UNL     1       6.648  -8.872   1.014  0.00  0.00    -0.160 F 
ENDBRANCH  23  24
ENDBRANCH  20  23
ENDBRANCH  15  21
ENDBRANCH   1  15
BRANCH   2  28
ATOM     28  C   UNL     1       3.685  -2.332  -0.046  0.00  0.00    +0.103 C 
ATOM     29  N   UNL     1       4.735  -1.899  -0.054  0.00  0.00    -0.191 NA
ENDBRANCH   2  28
TORSDOF 7
