REMARK  Name = ZINC63383876
REMARK  11 active torsions:
REMARK  status: ('A' for Active; 'I' for Inactive)
REMARK    1  A    between atoms: C_1  and  C_2
REMARK    2  A    between atoms: C_2  and  C_3
REMARK    3  A    between atoms: C_3  and  C_4
REMARK    4  A    between atoms: C_4  and  N_5
REMARK    5  A    between atoms: C_6  and  C_8
REMARK    6  A    between atoms: C_8  and  C_10
REMARK    7  A    between atoms: C_8  and  N_15
REMARK    8  A    between atoms: C_10  and  C_12
REMARK    9  A    between atoms: C_10  and  C_13
REMARK   10  A    between atoms: C_13  and  C_14
REMARK   11  A    between atoms: C_16  and  C_18
REMARK                            x       y       z     vdW  Elec       q    Type
REMARK                         _______ _______ _______ _____ _____    ______ ____
ROOT
ATOM      1  C   UNL     1      -5.566  -8.521   0.503  0.00  0.00    +0.167 C 
ATOM      2  C   UNL     1      -4.597  -9.213  -0.476  0.00  0.00    +0.065 C 
ATOM      3  C   UNL     1      -5.409 -10.200  -1.276  0.00  0.00    -0.034 C 
ATOM      4  C   UNL     1      -5.207 -11.493  -1.512  0.00  0.00    -0.001 A 
ATOM      5  C   UNL     1      -4.091 -12.387  -1.164  0.00  0.00    +0.010 A 
ATOM      6  C   UNL     1      -4.218 -13.684  -1.554  0.00  0.00    +0.001 A 
ATOM      7  C   UNL     1      -5.330 -14.173  -2.246  0.00  0.00    +0.002 A 
ATOM      8  C   UNL     1      -6.397 -13.421  -2.614  0.00  0.00    +0.026 A 
ATOM      9  C   UNL     1      -6.377 -12.039  -2.264  0.00  0.00    +0.043 A 
ATOM     10  N   UNL     1      -7.243 -11.099  -2.502  0.00  0.00    -0.375 N 
ATOM     11  C   UNL     1      -6.708  -9.839  -1.982  0.00  0.00    +0.131 C 
ATOM     12  C   UNL     1      -7.631  -9.209  -0.941  0.00  0.00    +0.134 C 
ATOM     13  N   UNL     1      -6.894  -9.125   0.336  0.00  0.00    -0.276 N 
ATOM     14  C   UNL     1      -7.635  -9.705   1.299  0.00  0.00    +0.248 C 
ATOM     15  O   UNL     1      -7.369  -9.694   2.485  0.00  0.00    -0.270 OA
ATOM     16  C   UNL     1      -8.809 -10.350   0.708  0.00  0.00    +0.042 A 
ATOM     17  C   UNL     1      -8.837 -10.054  -0.692  0.00  0.00    -0.013 A 
ATOM     18  C   UNL     1      -9.825 -10.518  -1.531  0.00  0.00    +0.006 A 
ATOM     19  C   UNL     1     -10.830 -11.291  -0.958  0.00  0.00    +0.000 A 
ATOM     20  C   UNL     1     -10.844 -11.583   0.392  0.00  0.00    +0.001 A 
ATOM     21  C   UNL     1      -9.813 -11.128   1.291  0.00  0.00    +0.013 A 
ATOM     22  H   UNL     1      -8.097 -11.213  -2.947  0.00  0.00    +0.160 HD
ENDROOT
BRANCH   1  24
ATOM     23  N   UNL     1      -4.521  -6.291   0.272  0.00  0.00    -0.302 N 
ATOM     24  C   UNL     1      -5.634  -7.048   0.196  0.00  0.00    +0.235 C 
ATOM     25  O   UNL     1      -6.690  -6.542  -0.121  0.00  0.00    -0.274 OA
ATOM     26  H   UNL     1      -3.676  -6.695   0.526  0.00  0.00    +0.150 HD
BRANCH  23  27
ATOM     27  C   UNL     1      -4.587  -4.858  -0.026  0.00  0.00    +0.162 C 
BRANCH  27  29
ATOM     28  N   UNL     1      -3.118  -3.218  -1.153  0.00  0.00    -0.314 N 
ATOM     29  C   UNL     1      -3.231  -4.375  -0.470  0.00  0.00    +0.234 C 
ATOM     30  O   UNL     1      -2.240  -5.026  -0.213  0.00  0.00    -0.274 OA
ATOM     31  H   UNL     1      -3.914  -2.733  -1.421  0.00  0.00    +0.149 HD
BRANCH  28  32
ATOM     32  C   UNL     1      -1.792  -2.693  -1.490  0.00  0.00    +0.104 C 
BRANCH  32  33
ATOM     33  C   UNL     1      -1.945  -1.379  -2.260  0.00  0.00    +0.018 C 
BRANCH  33  35
ATOM     34  C   UNL     1      -0.713   0.483  -3.381  0.00  0.00    +0.004 C 
ATOM     35  C   UNL     1      -0.561  -0.831  -2.612  0.00  0.00    -0.002 C 
ENDBRANCH  33  35
ENDBRANCH  32  33
ENDBRANCH  28  32
ENDBRANCH  27  29
BRANCH  27  36
ATOM     36  C   UNL     1      -5.016  -4.095   1.228  0.00  0.00    +0.015 C 
ATOM     37  C   UNL     1      -4.086  -4.458   2.388  0.00  0.00    +0.010 C 
BRANCH  36  38
ATOM     38  C   UNL     1      -6.454  -4.473   1.589  0.00  0.00    +0.002 C 
ATOM     39  C   UNL     1      -7.404  -3.957   0.507  0.00  0.00    +0.004 C 
ENDBRANCH  36  38
ENDBRANCH  27  36
ENDBRANCH  23  27
ENDBRANCH   1  24
TORSDOF 8
