REMARK  Name = ZINC12135372
REMARK  9 active torsions:
REMARK  status: ('A' for Active; 'I' for Inactive)
REMARK    1  A    between atoms: C_4  and  N_7
REMARK    2  A    between atoms: C_8  and  C_29
REMARK    3  A    between atoms: C_11  and  S_12
REMARK    4  A    between atoms: S_12  and  C_13
REMARK    5  A    between atoms: C_13  and  C_14
REMARK    6  A    between atoms: N_16  and  C_17
REMARK    7  A    between atoms: N_16  and  C_23
REMARK    8  A    between atoms: C_17  and  C_18
REMARK    9  A    between atoms: C_29  and  N_68
REMARK                            x       y       z     vdW  Elec       q    Type
REMARK                         _______ _______ _______ _____ _____    ______ ____
ROOT
ATOM      1  N   UNL     1       1.403   7.950   0.037  0.00  0.00    -0.276 N 
ATOM      2  C   UNL     1       2.771   8.015   0.044  0.00  0.00    +0.122 A 
ATOM      3  N   UNL     1       3.217   6.791   0.070  0.00  0.00    -0.135 NA
ATOM      4  N   UNL     1       2.235   5.962   0.085  0.00  0.00    -0.122 NA
ATOM      5  C   UNL     1       1.097   6.617   0.060  0.00  0.00    +0.197 A 
ENDROOT
BRANCH   1   9
ATOM      6  C   UNL     1      -1.271  11.148  -0.036  0.00  0.00    +0.000 A 
ATOM      7  C   UNL     1      -1.223  10.313   1.066  0.00  0.00    +0.002 A 
ATOM      8  C   UNL     1      -0.339   9.253   1.093  0.00  0.00    +0.026 A 
ATOM      9  C   UNL     1       0.503   9.026   0.013  0.00  0.00    +0.050 A 
ATOM     10  C   UNL     1       0.457   9.868  -1.089  0.00  0.00    +0.026 A 
ATOM     11  C   UNL     1      -0.433  10.924  -1.113  0.00  0.00    +0.002 A 
ENDBRANCH   1   9
BRANCH   5  12
ATOM     12  S   UNL     1      -0.518   5.912   0.063  0.00  0.00    -0.076 S 
BRANCH  12  13
ATOM     13  C   UNL     1      -0.092   4.153   0.098  0.00  0.00    +0.173 C 
BRANCH  13  14
ATOM     14  C   UNL     1      -1.356   3.331   0.105  0.00  0.00    +0.230 C 
ATOM     15  O   UNL     1      -2.435   3.878   0.193  0.00  0.00    -0.274 OA
ATOM     16  N   UNL     1      -1.286   1.988   0.015  0.00  0.00    -0.267 N 
BRANCH  16  17
ATOM     17  C   UNL     1      -0.047   1.353   0.021  0.00  0.00    +0.010 C 
ATOM     18  C   UNL     1       0.672   1.424   1.106  0.00  0.00    -0.008 C 
ATOM     19  C   UNL     1       2.026   0.793   1.257  0.00  0.00    +0.029 C 
ATOM     20  C   UNL     1       2.240  -0.262   0.169  0.00  0.00    +0.004 C 
ATOM     21  C   UNL     1       1.884   0.360  -1.187  0.00  0.00    +0.006 C 
ATOM     22  C   UNL     1       0.377   0.623  -1.220  0.00  0.00    +0.051 C 
ENDBRANCH  16  17
BRANCH  16  23
ATOM     23  C   UNL     1      -2.514   1.196  -0.090  0.00  0.00    +0.187 C 
BRANCH  23  24
ATOM     24  C   UNL     1      -3.041   0.900   1.291  0.00  0.00    +0.122 A 
ATOM     25  C   UNL     1      -3.904   1.664   1.984  0.00  0.00    +0.046 A 
ATOM     26  C   UNL     1      -4.123   1.015   3.221  0.00  0.00    +0.041 A 
ATOM     27  C   UNL     1      -3.380  -0.107   3.210  0.00  0.00    +0.195 A 
ATOM     28  O   UNL     1      -2.731  -0.174   2.036  0.00  0.00    -0.466 OA
ENDBRANCH  23  24
ENDBRANCH  16  23
ENDBRANCH  13  14
ENDBRANCH  12  13
ENDBRANCH   5  12
BRANCH   2  29
ATOM     29  C   UNL     1       3.606   9.270   0.027  0.00  0.00    -0.001 C 
BRANCH  29  35
ATOM     30  C   UNL     1       2.627  10.111   2.075  0.00  0.00    -0.078 C 
ATOM     31  C   UNL     1       2.915  10.415   3.547  0.00  0.00    -0.019 C 
ATOM     32  C   UNL     1       3.958  11.533   3.638  0.00  0.00    -0.004 C 
ATOM     33  C   UNL     1       5.224  11.101   2.893  0.00  0.00    -0.019 C 
ATOM     34  C   UNL     1       4.869  10.777   1.440  0.00  0.00    -0.078 C 
ATOM     35  N   UNL     1       3.880   9.678   1.421  0.00  0.00    +0.384 N 
ATOM     36  H   UNL     1       4.263   8.876   1.934  0.00  0.00    -0.081 HD
ENDBRANCH  29  35
ENDBRANCH   2  29
TORSDOF 9
