REMARK  Name = ZINC10353208
REMARK  8 active torsions:
REMARK  status: ('A' for Active; 'I' for Inactive)
REMARK    1  A    between atoms: C_1  and  C_2
REMARK    2  A    between atoms: C_8  and  C_10
REMARK    3  A    between atoms: C_11  and  C_34
REMARK    4  A    between atoms: N_12  and  C_28
REMARK    5  A    between atoms: C_16  and  C_18
REMARK    6  A    between atoms: C_23  and  O_24
REMARK    7  A    between atoms: O_24  and  C_25
REMARK    8  A    between atoms: C_25  and  C_26
REMARK                            x       y       z     vdW  Elec       q    Type
REMARK                         _______ _______ _______ _____ _____    ______ ____
ROOT
ATOM      1  C   UNL     1       5.836  -0.656  -0.337  0.00  0.00    +0.056 C 
ATOM      2  C   UNL     1       4.636  -0.043  -0.254  0.00  0.00    +0.025 C 
ATOM      3  N   UNL     1       3.481  -0.767  -0.149  0.00  0.00    -0.255 N 
ATOM      4  C   UNL     1       3.442  -2.105  -0.133  0.00  0.00    +0.142 C 
ATOM      5  S   UNL     1       1.925  -2.888  -0.005  0.00  0.00    -0.018 S 
ATOM      6  N   UNL     1       4.559  -2.856  -0.214  0.00  0.00    -0.315 N 
ATOM      7  C   UNL     1       5.858  -2.171  -0.324  0.00  0.00    +0.143 C 
ATOM      8  C   UNL     1       4.569   1.462  -0.270  0.00  0.00    +0.062 C 
ATOM      9  H   UNL     1       4.508  -3.824  -0.200  0.00  0.00    +0.149 HD
ENDROOT
BRANCH   1  17
ATOM     10  C   UNL     1      11.527   3.143  -1.110  0.00  0.00    +0.089 C 
ATOM     11  C   UNL     1      10.830   1.811  -0.999  0.00  0.00    +0.136 A 
ATOM     12  C   UNL     1       9.515   1.605  -0.760  0.00  0.00    +0.091 A 
ATOM     13  C   UNL     1       9.386   0.190  -0.755  0.00  0.00    +0.168 A 
ATOM     14  N   UNL     1      10.583  -0.286  -0.976  0.00  0.00    -0.063 NA
ATOM     15  O   UNL     1      11.393   0.600  -1.119  0.00  0.00    -0.358 OA
ATOM     16  N   UNL     1       8.218  -0.543  -0.550  0.00  0.00    -0.264 N 
ATOM     17  C   UNL     1       7.034   0.092  -0.440  0.00  0.00    +0.249 C 
ATOM     18  O   UNL     1       6.995   1.309  -0.429  0.00  0.00    -0.270 OA
ATOM     19  H   UNL     1       8.258  -1.510  -0.485  0.00  0.00    +0.157 HD
ENDBRANCH   1  17
BRANCH   7  20
ATOM     20  C   UNL     1       6.715  -2.613   0.834  0.00  0.00    +0.019 A 
ATOM     21  C   UNL     1       6.875  -1.788   1.931  0.00  0.00    +0.009 A 
ATOM     22  C   UNL     1       7.660  -2.194   2.994  0.00  0.00    +0.001 A 
ATOM     23  C   UNL     1       8.290  -3.425   2.961  0.00  0.00    +0.004 A 
ATOM     24  C   UNL     1       8.134  -4.252   1.866  0.00  0.00    +0.046 A 
ATOM     25  C   UNL     1       7.341  -3.850   0.801  0.00  0.00    +0.127 A 
BRANCH  25  26
ATOM     26  O   UNL     1       7.182  -4.666  -0.274  0.00  0.00    -0.479 OA
BRANCH  26  27
ATOM     27  C   UNL     1       7.773  -5.964  -0.198  0.00  0.00    +0.317 C 
BRANCH  27  28
ATOM     28  C   UNL     1       7.559  -6.677  -1.468  0.00  0.00    -0.065 C 
ATOM     29  C   UNL     1       7.389  -7.245  -2.481  0.00  0.00    +0.007 C 
ENDBRANCH  27  28
ENDBRANCH  26  27
ENDBRANCH  25  26
ENDBRANCH   7  20
BRANCH   3  30
ATOM     30  C   UNL     1       2.270  -0.069  -0.060  0.00  0.00    +0.040 A 
ATOM     31  C   UNL     1       1.835   0.416   1.166  0.00  0.00    +0.024 A 
ATOM     32  C   UNL     1       0.640   1.104   1.251  0.00  0.00    +0.002 A 
ATOM     33  C   UNL     1      -0.122   1.310   0.116  0.00  0.00    +0.000 A 
ATOM     34  C   UNL     1       0.308   0.828  -1.107  0.00  0.00    +0.002 A 
ATOM     35  C   UNL     1       1.502   0.139  -1.198  0.00  0.00    +0.024 A 
ENDBRANCH   3  30
TORSDOF 6
