REMARK  Name = ZINC28161584
REMARK  8 active torsions:
REMARK  status: ('A' for Active; 'I' for Inactive)
REMARK    1  A    between atoms: C_1  and  C_2
REMARK    2  A    between atoms: C_2  and  C_3
REMARK    3  A    between atoms: C_6  and  C_9
REMARK    4  A    between atoms: C_12  and  C_34
REMARK    5  A    between atoms: C_19  and  C_22
REMARK    6  A    between atoms: C_22  and  C_23
REMARK    7  A    between atoms: N_25  and  C_26
REMARK    8  A    between atoms: C_29  and  C_33
REMARK                            x       y       z     vdW  Elec       q    Type
REMARK                         _______ _______ _______ _____ _____    ______ ____
ROOT
ATOM      1  C   UNL     1      -2.579   3.867   0.037  0.00  0.00    +0.136 C 
ATOM      2  C   UNL     1      -3.197   3.924  -1.374  0.00  0.00    +0.087 C 
ATOM      3  C   UNL     1      -4.510   3.188  -1.227  0.00  0.00    +0.075 C 
ATOM      4  N   UNL     1      -4.643   2.785  -0.008  0.00  0.00    -0.181 NA
ATOM      5  N   UNL     1      -3.577   3.124   0.822  0.00  0.00    -0.195 N 
ATOM      6  C   UNL     1      -3.475   2.817   2.147  0.00  0.00    +0.170 C 
ATOM      7  N   UNL     1      -2.487   3.113   2.984  0.00  0.00    -0.157 NA
ATOM      8  C   UNL     1      -2.467   2.781   4.245  0.00  0.00    +0.252 C 
ATOM      9  O   UNL     1      -1.542   3.071   4.979  0.00  0.00    -0.272 OA
ATOM     10  C   UNL     1      -3.682   2.002   4.734  0.00  0.00    +0.150 C 
ATOM     11  S   UNL     1      -4.642   1.928   3.168  0.00  0.00    -0.078 S 
ENDROOT
BRANCH   1  15
ATOM     12  C   UNL     1       1.142   1.770  -0.035  0.00  0.00    -0.048 A 
ATOM     13  C   UNL     1      -0.048   1.067  -0.020  0.00  0.00    +0.004 A 
ATOM     14  C   UNL     1      -1.252   1.745  -0.002  0.00  0.00    +0.006 A 
ATOM     15  C   UNL     1      -1.266   3.127   0.011  0.00  0.00    -0.025 A 
ATOM     16  C   UNL     1      -0.077   3.831  -0.003  0.00  0.00    +0.006 A 
ATOM     17  C   UNL     1       1.127   3.152  -0.026  0.00  0.00    +0.004 A 
BRANCH  12  19
ATOM     18  C   UNL     1       2.875   0.788  -1.512  0.00  0.00    +0.009 C 
ATOM     19  C   UNL     1       2.454   1.030  -0.061  0.00  0.00    +0.032 C 
ENDBRANCH  12  19
ENDBRANCH   1  15
BRANCH   3  20
ATOM     20  C   UNL     1      -5.481   2.967  -2.303  0.00  0.00    +0.035 A 
ATOM     21  C   UNL     1      -6.698   2.309  -2.259  0.00  0.00    +0.017 A 
ATOM     22  C   UNL     1      -7.441   2.230  -3.413  0.00  0.00    +0.008 A 
ATOM     23  C   UNL     1      -6.963   2.795  -4.552  0.00  0.00    +0.046 A 
ATOM     24  S   UNL     1      -5.406   3.482  -4.011  0.00  0.00    -0.095 S 
ENDBRANCH   3  20
BRANCH  10  25
ATOM     25  C   UNL     1      -3.291   0.606   5.224  0.00  0.00    +0.120 C 
BRANCH  25  26
ATOM     26  C   UNL     1      -4.500  -0.077   5.809  0.00  0.00    +0.219 C 
ATOM     27  O   UNL     1      -5.568   0.495   5.833  0.00  0.00    -0.275 OA
ATOM     28  N   UNL     1      -4.393  -1.325   6.307  0.00  0.00    -0.285 N 
ATOM     29  H   UNL     1      -3.443  -1.874   6.217  0.00  0.00    +0.155 HD
BRANCH  28  30
ATOM     30  C   UNL     1      -5.489  -1.924   6.937  0.00  0.00    +0.036 A 
ATOM     31  C   UNL     1      -5.292  -2.775   8.017  0.00  0.00    +0.024 A 
ATOM     32  C   UNL     1      -6.376  -3.360   8.642  0.00  0.00    +0.008 A 
ATOM     33  C   UNL     1      -7.657  -3.109   8.186  0.00  0.00    -0.015 A 
ATOM     34  C   UNL     1      -7.858  -2.265   7.107  0.00  0.00    +0.128 A 
ATOM     35  C   UNL     1      -6.776  -1.671   6.481  0.00  0.00    +0.062 A 
ATOM     36  F   UNL     1      -9.111  -2.021   6.664  0.00  0.00    -0.205 F 
ATOM     37  C   UNL     1      -8.837  -3.754   8.867  0.00  0.00    +0.047 C 
ENDBRANCH  28  30
ENDBRANCH  25  26
ENDBRANCH  10  25
TORSDOF 6
