REMARK  Name = ZINC38705025
REMARK  15 active torsions:
REMARK  status: ('A' for Active; 'I' for Inactive)
REMARK    1  A    between atoms: C_1  and  C_2
REMARK    2  A    between atoms: C_4  and  C_41
REMARK    3  A    between atoms: C_5  and  C_9
REMARK    4  A    between atoms: C_6  and  O_8
REMARK    5  A    between atoms: N_17  and  C_29
REMARK    6  A    between atoms: C_18  and  C_20
REMARK    7  A    between atoms: C_23  and  O_28
REMARK    8  A    between atoms: C_24  and  O_26
REMARK    9  A    between atoms: O_26  and  C_27
REMARK   10  A    between atoms: C_29  and  C_30
REMARK   11  A    between atoms: C_30  and  C_31
REMARK   12  A    between atoms: C_34  and  O_39
REMARK   13  A    between atoms: C_35  and  O_37
REMARK   14  A    between atoms: O_37  and  C_38
REMARK   15  A    between atoms: O_39  and  C_40
REMARK                            x       y       z     vdW  Elec       q    Type
REMARK                         _______ _______ _______ _____ _____    ______ ____
ROOT
ATOM      1  C   UNL     1      -0.191  -4.647  -0.106  0.00  0.00    +0.102 A 
ATOM      2  C   UNL     1       0.060  -5.312   1.099  0.00  0.00    +0.035 A 
ATOM      3  C   UNL     1       0.106  -6.657   0.785  0.00  0.00    +0.126 A 
ATOM      4  N   UNL     1      -0.113  -6.740  -0.561  0.00  0.00    -0.272 N 
ATOM      5  H   UNL     1      -0.139  -7.564  -1.071  0.00  0.00    +0.189 HD
ATOM      6  N   UNL     1      -0.288  -5.563  -1.049  0.00  0.00    -0.173 NA
ATOM      7  C   UNL     1       0.368  -7.415   2.014  0.00  0.00    +0.265 C 
ATOM      8  O   UNL     1       0.467  -8.625   2.075  0.00  0.00    -0.268 OA
ATOM      9  N   UNL     1       0.482  -6.581   3.063  0.00  0.00    -0.285 N 
ATOM     10  C   UNL     1       0.301  -5.205   2.580  0.00  0.00    +0.141 C 
ENDROOT
BRANCH   1  15
ATOM     11  C   UNL     1      -0.735   1.046  -0.814  0.00  0.00    +0.044 C 
ATOM     12  C   UNL     1      -0.591  -0.442  -0.627  0.00  0.00    -0.047 A 
ATOM     13  C   UNL     1      -1.529  -1.299  -1.173  0.00  0.00    +0.007 A 
ATOM     14  C   UNL     1      -1.404  -2.664  -1.007  0.00  0.00    -0.037 A 
ATOM     15  C   UNL     1      -0.330  -3.181  -0.288  0.00  0.00    +0.047 A 
ATOM     16  C   UNL     1       0.617  -2.313   0.263  0.00  0.00    +0.127 A 
ATOM     17  C   UNL     1       0.482  -0.945   0.084  0.00  0.00    +0.049 A 
ATOM     18  C   UNL     1      -2.430  -3.593  -1.603  0.00  0.00    +0.044 C 
BRANCH  16  19
ATOM     19  O   UNL     1       1.668  -2.808   0.966  0.00  0.00    -0.506 OA
ATOM     20  H   UNL     1       2.472  -2.926   0.442  0.00  0.00    +0.292 HD
ENDBRANCH  16  19
ENDBRANCH   1  15
BRANCH  10  21
ATOM     21  C   UNL     1      -0.889  -4.573   3.255  0.00  0.00    -0.019 A 
ATOM     22  C   UNL     1      -2.054  -5.298   3.423  0.00  0.00    +0.009 A 
ATOM     23  C   UNL     1      -3.148  -4.723   4.041  0.00  0.00    +0.049 A 
ATOM     24  C   UNL     1      -3.079  -3.415   4.494  0.00  0.00    +0.158 A 
ATOM     25  C   UNL     1      -1.906  -2.684   4.326  0.00  0.00    +0.162 A 
ATOM     26  C   UNL     1      -0.812  -3.269   3.709  0.00  0.00    +0.055 A 
BRANCH  25  27
ATOM     27  O   UNL     1      -1.834  -1.401   4.769  0.00  0.00    -0.491 OA
ATOM     28  C   UNL     1      -0.599  -0.712   4.562  0.00  0.00    +0.277 C 
ENDBRANCH  25  27
BRANCH  24  29
ATOM     29  O   UNL     1      -4.154  -2.847   5.102  0.00  0.00    -0.503 OA
ATOM     30  H   UNL     1      -4.174  -2.969   6.061  0.00  0.00    +0.292 HD
ENDBRANCH  24  29
ENDBRANCH  10  21
BRANCH   9  31
ATOM     31  C   UNL     1       0.742  -6.976   4.449  0.00  0.00    +0.114 C 
BRANCH  31  32
ATOM     32  C   UNL     1       2.252  -7.010   4.695  0.00  0.00    +0.054 C 
BRANCH  32  33
ATOM     33  C   UNL     1       2.519  -7.417   6.121  0.00  0.00    -0.042 A 
ATOM     34  C   UNL     1       2.607  -6.453   7.109  0.00  0.00    +0.007 A 
ATOM     35  C   UNL     1       2.853  -6.822   8.418  0.00  0.00    +0.049 A 
ATOM     36  C   UNL     1       3.010  -8.159   8.744  0.00  0.00    +0.161 A 
ATOM     37  C   UNL     1       2.921  -9.129   7.750  0.00  0.00    +0.162 A 
ATOM     38  C   UNL     1       2.671  -8.754   6.440  0.00  0.00    +0.053 A 
BRANCH  37  39
ATOM     39  O   UNL     1       3.076 -10.443   8.065  0.00  0.00    -0.491 OA
ATOM     40  C   UNL     1       2.971 -11.383   6.994  0.00  0.00    +0.277 C 
ENDBRANCH  37  39
BRANCH  36  41
ATOM     41  O   UNL     1       3.252  -8.523  10.032  0.00  0.00    -0.491 OA
ATOM     42  C   UNL     1       3.331  -7.474  10.999  0.00  0.00    +0.277 C 
ENDBRANCH  36  41
ENDBRANCH  32  33
ENDBRANCH  31  32
ENDBRANCH   9  31
TORSDOF 10
