REMARK  Name = ZINC46660663
REMARK  14 active torsions:
REMARK  status: ('A' for Active; 'I' for Inactive)
REMARK    1  A    between atoms: C_1  and  C_2
REMARK    2  A    between atoms: C_2  and  O_3
REMARK    3  A    between atoms: O_3  and  C_4
REMARK    4  A    between atoms: N_6  and  C_7
REMARK    5  A    between atoms: C_7  and  C_9
REMARK    6  A    between atoms: C_7  and  C_12
REMARK    7  A    between atoms: C_9  and  C_10
REMARK    8  A    between atoms: C_9  and  C_11
REMARK    9  A    between atoms: N_14  and  N_15
REMARK   10  A    between atoms: C_16  and  C_18
REMARK   11  A    between atoms: C_22  and  S_24
REMARK   12  A    between atoms: S_24  and  N_27
REMARK   13  A    between atoms: N_27  and  C_28
REMARK   14  A    between atoms: C_28  and  C_29
REMARK                            x       y       z     vdW  Elec       q    Type
REMARK                         _______ _______ _______ _____ _____    ______ ____
ROOT
ATOM      1  N   UNL     1       2.266  -5.946  -5.799  0.00  0.00    -0.230 N 
ATOM      2  C   UNL     1       2.427  -7.201  -6.263  0.00  0.00    +0.260 C 
ATOM      3  O   UNL     1       2.545  -8.127  -5.483  0.00  0.00    -0.269 OA
ATOM      4  H   UNL     1       2.172  -5.208  -6.420  0.00  0.00    +0.173 HD
ENDROOT
BRANCH   2   5
ATOM      5  C   UNL     1       2.460  -7.452  -7.719  0.00  0.00    +0.040 A 
ATOM      6  C   UNL     1       2.331  -6.391  -8.617  0.00  0.00    +0.013 A 
ATOM      7  C   UNL     1       2.364  -6.632  -9.974  0.00  0.00    +0.003 A 
ATOM      8  C   UNL     1       2.524  -7.923 -10.447  0.00  0.00    +0.028 A 
ATOM      9  C   UNL     1       2.652  -8.979  -9.563  0.00  0.00    +0.106 A 
ATOM     10  C   UNL     1       2.627  -8.751  -8.203  0.00  0.00    +0.041 A 
BRANCH   9  11
ATOM     11  S   UNL     1       2.854 -10.619 -10.176  0.00  0.00    +0.059 S 
ATOM     12  O   UNL     1       2.405 -11.494  -9.151  0.00  0.00    -0.153 OA
ATOM     13  O   UNL     1       2.303 -10.633 -11.486  0.00  0.00    -0.153 OA
BRANCH  11  14
ATOM     14  N   UNL     1       4.480 -10.882 -10.344  0.00  0.00    -0.186 NA
ATOM     15  H   UNL     1       4.860 -11.024 -11.225  0.00  0.00    +0.148 HD
BRANCH  14  16
ATOM     16  C   UNL     1       5.345 -10.899  -9.161  0.00  0.00    +0.141 C 
BRANCH  16  17
ATOM     17  C   UNL     1       6.675 -11.509  -9.521  0.00  0.00    -0.032 A 
ATOM     18  C   UNL     1       6.865 -12.873  -9.401  0.00  0.00    +0.005 A 
ATOM     19  C   UNL     1       8.085 -13.433  -9.731  0.00  0.00    +0.000 A 
ATOM     20  C   UNL     1       9.116 -12.629 -10.181  0.00  0.00    +0.000 A 
ATOM     21  C   UNL     1       8.926 -11.265 -10.302  0.00  0.00    +0.000 A 
ATOM     22  C   UNL     1       7.704 -10.706  -9.976  0.00  0.00    +0.005 A 
ENDBRANCH  16  17
ENDBRANCH  14  16
ENDBRANCH  11  14
ENDBRANCH   9  11
ENDBRANCH   2   5
BRANCH   1  25
ATOM     23  C   UNL     1       2.073  -4.453  -3.954  0.00  0.00    +0.250 C 
ATOM     24  O   UNL     1       2.047  -3.519  -4.728  0.00  0.00    -0.272 OA
ATOM     25  N   UNL     1       2.234  -5.708  -4.418  0.00  0.00    -0.233 N 
ATOM     26  H   UNL     1       2.328  -6.447  -3.797  0.00  0.00    +0.173 HD
BRANCH  23  27
ATOM     27  C   UNL     1       1.926  -4.210  -2.474  0.00  0.00    +0.166 C 
BRANCH  27  30
ATOM     28  C   UNL     1       0.665  -2.626  -1.118  0.00  0.00    +0.401 C 
ATOM     29  O   UNL     1       0.533  -3.495  -0.279  0.00  0.00    -0.226 OA
ATOM     30  N   UNL     1       1.346  -2.883  -2.253  0.00  0.00    -0.270 N 
ATOM     31  H   UNL     1       1.451  -2.190  -2.923  0.00  0.00    +0.153 HD
BRANCH  28  32
ATOM     32  O   UNL     1       0.132  -1.407  -0.915  0.00  0.00    -0.451 OA
BRANCH  32  34
ATOM     33  C   UNL     1      -1.107   0.229   0.362  0.00  0.00    +0.048 C 
ATOM     34  C   UNL     1      -0.577  -1.205   0.310  0.00  0.00    +0.230 C 
ENDBRANCH  32  34
ENDBRANCH  28  32
ENDBRANCH  27  30
BRANCH  27  35
ATOM     35  C   UNL     1       3.301  -4.283  -1.807  0.00  0.00    +0.012 C 
ATOM     36  C   UNL     1       4.181  -3.144  -2.325  0.00  0.00    +0.009 C 
ATOM     37  C   UNL     1       3.139  -4.152  -0.291  0.00  0.00    +0.009 C 
ENDBRANCH  27  35
ENDBRANCH  23  27
ENDBRANCH   1  25
TORSDOF 11
