REMARK  Name = ZINC17173007
REMARK  4 active torsions:
REMARK  status: ('A' for Active; 'I' for Inactive)
REMARK    1  A    between atoms: N_7  and  C_15
REMARK    2  A    between atoms: C_15  and  C_16
REMARK    3  A    between atoms: N_18  and  N_19
REMARK    4  A    between atoms: N_21  and  C_26
REMARK                            x       y       z     vdW  Elec       q    Type
REMARK                         _______ _______ _______ _____ _____    ______ ____
ROOT
ATOM      1  C   UNL     1      -0.973  -3.077  -0.090  0.00  0.00    +0.250 C 
ATOM      2  O   UNL     1      -1.005  -2.686  -1.239  0.00  0.00    -0.272 OA
ATOM      3  N   UNL     1      -2.023  -3.744   0.424  0.00  0.00    -0.203 N 
ATOM      4  H   UNL     1      -1.997  -4.056   1.342  0.00  0.00    +0.177 HD
ENDROOT
BRANCH   3   5
ATOM      5  N   UNL     1      -3.154  -3.986  -0.367  0.00  0.00    -0.157 NA
ATOM      6  C   UNL     1      -4.170  -4.631   0.130  0.00  0.00    +0.185 C 
ATOM      7  N   UNL     1      -5.367  -4.957  -0.494  0.00  0.00    -0.216 N 
ATOM      8  C   UNL     1      -6.324  -5.625   0.129  0.00  0.00    +0.236 C 
ATOM      9  O   UNL     1      -7.367  -5.913  -0.417  0.00  0.00    -0.274 OA
ATOM     10  C   UNL     1      -6.038  -6.003   1.573  0.00  0.00    +0.173 C 
ATOM     11  S   UNL     1      -4.355  -5.298   1.777  0.00  0.00    -0.079 S 
BRANCH   7  12
ATOM     12  C   UNL     1      -5.566  -4.572  -1.827  0.00  0.00    +0.062 A 
ATOM     13  C   UNL     1      -5.183  -5.416  -2.860  0.00  0.00    +0.027 A 
ATOM     14  C   UNL     1      -5.385  -5.036  -4.172  0.00  0.00    +0.022 A 
ATOM     15  C   UNL     1      -5.958  -3.810  -4.458  0.00  0.00    +0.042 A 
ATOM     16  C   UNL     1      -6.336  -2.963  -3.432  0.00  0.00    +0.042 A 
ATOM     17  C   UNL     1      -6.142  -3.341  -2.116  0.00  0.00    +0.064 A 
ATOM     18 CL   UNL     1      -6.615  -2.278  -0.828  0.00  0.00    -0.082 Cl
ATOM     19 CL   UNL     1      -6.205  -3.333  -6.109  0.00  0.00    -0.083 Cl
ENDBRANCH   7  12
ENDBRANCH   3   5
BRANCH   1  20
ATOM     20  C   UNL     1       0.244  -2.816   0.760  0.00  0.00    +0.208 C 
BRANCH  20  27
ATOM     21  C   UNL     1      -0.017   1.380   0.010  0.00  0.00    +0.002 A 
ATOM     22  C   UNL     1       1.165   2.096   0.002  0.00  0.00    +0.001 A 
ATOM     23  C   UNL     1       2.380   1.430  -0.013  0.00  0.00    +0.017 A 
ATOM     24  C   UNL     1       2.404   0.049  -0.020  0.00  0.00    +0.034 A 
ATOM     25  C   UNL     1       1.212  -0.680  -0.013  0.00  0.00    +0.048 A 
ATOM     26  C   UNL     1       0.002  -0.004   0.002  0.00  0.00    +0.024 A 
ATOM     27  N   UNL     1       1.239  -2.079  -0.023  0.00  0.00    -0.289 N 
ATOM     28  C   UNL     1       2.189  -2.795  -0.760  0.00  0.00    +0.048 A 
ATOM     29  C   UNL     1       1.835  -3.973  -1.400  0.00  0.00    +0.024 A 
ATOM     30  C   UNL     1       2.780  -4.675  -2.127  0.00  0.00    +0.002 A 
ATOM     31  C   UNL     1       4.078  -4.210  -2.222  0.00  0.00    +0.001 A 
ATOM     32  C   UNL     1       4.442  -3.034  -1.586  0.00  0.00    +0.017 A 
ATOM     33  C   UNL     1       3.502  -2.330  -0.858  0.00  0.00    +0.034 A 
ATOM     34  S   UNL     1       3.936  -0.828  -0.037  0.00  0.00    -0.086 S 
ENDBRANCH  20  27
ENDBRANCH   1  20
TORSDOF 4
