REMARK  Name = ZINC61890594
REMARK  3 active torsions:
REMARK  status: ('A' for Active; 'I' for Inactive)
REMARK    1  A    between atoms: C_10  and  C_13
REMARK    2  A    between atoms: N_15  and  C_16
REMARK    3  A    between atoms: C_21  and  C_23
REMARK                            x       y       z     vdW  Elec       q    Type
REMARK                         _______ _______ _______ _____ _____    ______ ____
ROOT
ATOM      1  C   UNL     1      -0.019   1.533   0.011  0.00  0.00    +0.000 C 
ATOM      2  C   UNL     1       1.393   2.111   0.000  0.00  0.00    -0.002 C 
ATOM      3  C   UNL     1       2.237   1.553   1.158  0.00  0.00    -0.015 C 
ATOM      4  C   UNL     1       2.252   0.044   1.018  0.00  0.00    -0.068 C 
ATOM      5  C   UNL     1       0.793  -0.451   1.218  0.00  0.00    -0.026 C 
ATOM      6  C   UNL     1       0.002  -0.004   0.002  0.00  0.00    +0.002 C 
ATOM      7  C   UNL     1       0.993  -1.959   1.370  0.00  0.00    -0.005 C 
ATOM      8  C   UNL     1       2.424  -2.090   1.952  0.00  0.00    +0.017 C 
ATOM      9  N   UNL     1       2.990  -0.709   2.038  0.00  0.00    +0.389 N 
ATOM     10  H   UNL     1       3.977  -0.712   1.829  0.00  0.00    -0.084 HD
ATOM     11  H   UNL     1       2.822  -0.319   2.954  0.00  0.00    -0.084 HD
ENDROOT
BRANCH   8  12
ATOM     12  C   UNL     1       2.368  -2.717   3.321  0.00  0.00    +0.199 C 
ATOM     13  O   UNL     1       2.440  -2.020   4.311  0.00  0.00    -0.278 OA
ATOM     14  N   UNL     1       2.239  -4.053   3.445  0.00  0.00    -0.313 N 
ATOM     15  H   UNL     1       2.182  -4.611   2.653  0.00  0.00    +0.149 HD
BRANCH  14  16
ATOM     16  C   UNL     1       2.186  -4.663   4.776  0.00  0.00    +0.090 C 
ATOM     17  C   UNL     1       3.613  -4.957   5.281  0.00  0.00    +0.023 C 
ATOM     18  C   UNL     1       3.479  -6.299   6.042  0.00  0.00    +0.003 C 
ATOM     19  C   UNL     1       2.468  -7.086   5.171  0.00  0.00    +0.020 C 
ATOM     20  C   UNL     1       1.456  -6.016   4.706  0.00  0.00    +0.112 C 
BRANCH  20  21
ATOM     21  C   UNL     1       1.032  -6.290   3.323  0.00  0.00    +0.068 C 
ATOM     22  N   UNL     1       0.705  -6.501   2.256  0.00  0.00    -0.196 NA
ENDBRANCH  20  21
ENDBRANCH  14  16
ENDBRANCH   8  12
TORSDOF 3
