REMARK  Name = ZINC13335130
REMARK  8 active torsions:
REMARK  status: ('A' for Active; 'I' for Inactive)
REMARK    1  A    between atoms: C_1  and  C_2
REMARK    2  A    between atoms: C_2  and  C_4
REMARK    3  A    between atoms: C_2  and  N_6
REMARK    4  A    between atoms: C_16  and  S_17
REMARK    5  A    between atoms: S_17  and  C_18
REMARK    6  A    between atoms: C_18  and  C_19
REMARK    7  A    between atoms: C_22  and  C_32
REMARK    8  A    between atoms: C_25  and  C_27
REMARK                            x       y       z     vdW  Elec       q    Type
REMARK                         _______ _______ _______ _____ _____    ______ ____
ROOT
ATOM      1  C   UNL     1       6.306  -1.234  -0.066  0.00  0.00    +0.175 C 
ENDROOT
BRANCH   1   2
ATOM      2  C   UNL     1       7.748  -1.671  -0.083  0.00  0.00    +0.246 C 
ATOM      3  O   UNL     1       8.024  -2.853  -0.092  0.00  0.00    -0.273 OA
ATOM      4  N   UNL     1       8.731  -0.749  -0.087  0.00  0.00    -0.181 N 
ATOM      5  C   UNL     1      10.174  -1.038  -0.103  0.00  0.00    +0.173 C 
ATOM      6  C   UNL     1      10.823   0.360  -0.102  0.00  0.00    +0.093 C 
ATOM      7  C   UNL     1       9.646   1.309  -0.085  0.00  0.00    +0.104 C 
ATOM      8  N   UNL     1       8.547   0.632  -0.084  0.00  0.00    -0.178 NA
BRANCH   7   9
ATOM      9  C   UNL     1       9.739   2.772  -0.078  0.00  0.00    +0.150 A 
ATOM     10  C   UNL     1       8.687   3.642  -0.063  0.00  0.00    +0.051 A 
ATOM     11  C   UNL     1       9.234   4.939  -0.061  0.00  0.00    +0.042 A 
ATOM     12  C   UNL     1      10.576   4.803  -0.076  0.00  0.00    +0.196 A 
ATOM     13  O   UNL     1      10.878   3.494  -0.080  0.00  0.00    -0.462 OA
ENDBRANCH   7   9
BRANCH   5  14
ATOM     14  C   UNL     1      10.549  -1.798  -1.349  0.00  0.00    +0.128 A 
ATOM     15  C   UNL     1      11.445  -2.799  -1.420  0.00  0.00    +0.046 A 
ATOM     16  C   UNL     1      11.483  -3.220  -2.769  0.00  0.00    +0.041 A 
ATOM     17  C   UNL     1      10.608  -2.452  -3.442  0.00  0.00    +0.195 A 
ATOM     18  O   UNL     1      10.041  -1.596  -2.575  0.00  0.00    -0.466 OA
ENDBRANCH   5  14
ENDBRANCH   1   2
BRANCH   1  19
ATOM     19  S   UNL     1       5.234  -2.693  -0.064  0.00  0.00    -0.078 S 
BRANCH  19  30
ATOM     20  N   UNL     1       2.538  -2.699  -0.037  0.00  0.00    -0.273 N 
ATOM     21  C   UNL     1       1.305  -2.141  -0.022  0.00  0.00    +0.263 A 
ATOM     22  O   UNL     1       0.301  -2.829  -0.016  0.00  0.00    -0.267 OA
ATOM     23  C   UNL     1       1.224  -0.674  -0.013  0.00  0.00    +0.065 A 
ATOM     24  C   UNL     1       0.002  -0.004   0.002  0.00  0.00    +0.015 A 
ATOM     25  C   UNL     1      -0.017   1.363   0.009  0.00  0.00    +0.001 A 
ATOM     26  C   UNL     1       1.168   2.089   0.002  0.00  0.00    +0.002 A 
ATOM     27  C   UNL     1       2.379   1.458  -0.013  0.00  0.00    +0.028 A 
ATOM     28  C   UNL     1       2.432   0.061  -0.021  0.00  0.00    +0.079 A 
ATOM     29  N   UNL     1       3.605  -0.602  -0.036  0.00  0.00    -0.223 NA
ATOM     30  C   UNL     1       3.654  -1.911  -0.044  0.00  0.00    +0.173 A 
BRANCH  20  32
ATOM     31  C   UNL     1       2.020  -4.740   1.207  0.00  0.00    +0.043 C 
ATOM     32  C   UNL     1       2.677  -4.157  -0.046  0.00  0.00    +0.202 C 
BRANCH  32  33
ATOM     33  C   UNL     1       2.006  -4.718  -1.273  0.00  0.00    +0.378 C 
ATOM     34  O   UNL     1       1.466  -3.976  -2.059  0.00  0.00    -0.244 OA
ATOM     35  O   UNL     1       2.007  -6.043  -1.492  0.00  0.00    -0.244 OA
ENDBRANCH  32  33
ENDBRANCH  20  32
ENDBRANCH  19  30
ENDBRANCH   1  19
TORSDOF 7
