REMARK  Name = ZINC29898364
REMARK  7 active torsions:
REMARK  status: ('A' for Active; 'I' for Inactive)
REMARK    1  A    between atoms: C_3  and  C_6
REMARK    2  A    between atoms: C_6  and  C_8
REMARK    3  A    between atoms: C_6  and  N_29
REMARK    4  A    between atoms: C_8  and  N_9
REMARK    5  A    between atoms: C_10  and  C_12
REMARK    6  A    between atoms: C_12  and  C_13
REMARK    7  A    between atoms: C_20  and  C_25
REMARK                            x       y       z     vdW  Elec       q    Type
REMARK                         _______ _______ _______ _____ _____    ______ ____
ROOT
ATOM      1  N   UNL     1       2.234   3.320   3.606  0.00  0.00    -0.316 N 
ATOM      2  C   UNL     1       1.907   3.563   2.321  0.00  0.00    +0.215 C 
ATOM      3  O   UNL     1       1.015   4.342   2.060  0.00  0.00    -0.276 OA
ATOM      4  H   UNL     1       3.043   2.613   3.843  0.00  0.00    +0.149 HD
ENDROOT
BRANCH   1   5
ATOM      5  C   UNL     1       1.513   3.997   4.686  0.00  0.00    +0.096 C 
BRANCH   5   6
ATOM      6  C   UNL     1       1.994   3.459   6.035  0.00  0.00    +0.016 C 
BRANCH   6   7
ATOM      7  N   UNL     1       3.454   3.595   6.125  0.00  0.00    +0.387 N 
ATOM      8  C   UNL     1       3.961   3.015   7.375  0.00  0.00    -0.078 C 
ATOM      9  C   UNL     1       5.491   3.043   7.368  0.00  0.00    -0.019 C 
ATOM     10  C   UNL     1       5.970   4.490   7.223  0.00  0.00    -0.004 C 
ATOM     11  C   UNL     1       5.389   5.086   5.938  0.00  0.00    -0.019 C 
ATOM     12  C   UNL     1       3.861   4.999   5.987  0.00  0.00    -0.078 C 
ATOM     13  H   UNL     1       3.899   3.033   5.290  0.00  0.00    -0.081 HD
ENDBRANCH   6   7
BRANCH   6  16
ATOM     14  C   UNL     1       0.075   4.851   8.858  0.00  0.00    +0.041 A 
ATOM     15  C   UNL     1       0.386   3.793   7.973  0.00  0.00    +0.043 A 
ATOM     16  C   UNL     1       1.348   4.244   7.148  0.00  0.00    +0.093 A 
ATOM     17  O   UNL     1       1.639   5.510   7.488  0.00  0.00    -0.469 OA
ATOM     18  C   UNL     1       0.866   5.885   8.520  0.00  0.00    +0.195 A 
ENDBRANCH   6  16
ENDBRANCH   5   6
ENDBRANCH   1   5
BRANCH   2  19
ATOM     19  C   UNL     1       2.649   2.867   1.210  0.00  0.00    +0.119 C 
BRANCH  19  20
ATOM     20  C   UNL     1       2.085   3.316  -0.140  0.00  0.00    +0.146 C 
ATOM     21  C   UNL     1       2.887   2.698  -1.255  0.00  0.00    +0.231 C 
ATOM     22  O   UNL     1       3.753   3.364  -1.781  0.00  0.00    -0.274 OA
ATOM     23  N   UNL     1       2.691   1.458  -1.691  0.00  0.00    -0.284 N 
ATOM     24  C   UNL     1       1.678   0.589  -1.297  0.00  0.00    +0.047 A 
ATOM     25  C   UNL     1       1.807  -0.771  -1.565  0.00  0.00    +0.036 A 
ATOM     26  C   UNL     1       0.825  -1.655  -1.166  0.00  0.00    +0.057 A 
ATOM     27  C   UNL     1      -0.298  -1.202  -0.498  0.00  0.00    +0.013 A 
ATOM     28  C   UNL     1      -0.442   0.147  -0.230  0.00  0.00    +0.017 A 
ATOM     29  C   UNL     1       0.539   1.039  -0.629  0.00  0.00    +0.030 A 
ATOM     30  S   UNL     1       0.359   2.764  -0.296  0.00  0.00    -0.110 S 
ATOM     31  H   UNL     1       3.371   1.024  -2.440  0.00  0.00    +0.155 HD
BRANCH  26  32
ATOM     32  C   UNL     1       0.978  -3.125  -1.461  0.00  0.00    +0.417 C 
ATOM     33  F   UNL     1      -0.132  -3.818  -0.966  0.00  0.00    -0.166 F 
ATOM     34  F   UNL     1       1.069  -3.317  -2.844  0.00  0.00    -0.166 F 
ATOM     35  F   UNL     1       2.139  -3.606  -0.846  0.00  0.00    -0.166 F 
ENDBRANCH  26  32
ENDBRANCH  19  20
ENDBRANCH   2  19
TORSDOF 7
