REMARK  Name = ZINC35851567
REMARK  4 active torsions:
REMARK  status: ('A' for Active; 'I' for Inactive)
REMARK    1  A    between atoms: C_8  and  C_27
REMARK    2  A    between atoms: C_10  and  C_18
REMARK    3  A    between atoms: C_22  and  N_24
REMARK    4  A    between atoms: C_27  and  C_29
REMARK                            x       y       z     vdW  Elec       q    Type
REMARK                         _______ _______ _______ _____ _____    ______ ____
ROOT
ATOM      1  C   UNL     1      -0.105   1.358  -0.155  0.00  0.00    +0.000 A 
ATOM      2  C   UNL     1       1.080   2.071  -0.173  0.00  0.00    +0.002 A 
ATOM      3  C   UNL     1       2.291   1.411  -0.145  0.00  0.00    +0.023 A 
ATOM      4  C   UNL     1       2.330   0.020  -0.098  0.00  0.00    +0.039 A 
ATOM      5  C   UNL     1       1.131  -0.687  -0.080  0.00  0.00    +0.004 A 
ATOM      6  C   UNL     1      -0.075  -0.024  -0.109  0.00  0.00    +0.008 A 
ATOM      7  C   UNL     1       1.511  -2.140  -0.026  0.00  0.00    +0.137 C 
ATOM      8  C   UNL     1       0.955  -2.911  -1.228  0.00  0.00    +0.103 C 
ATOM      9  C   UNL     1      -0.395  -3.470  -0.728  0.00  0.00    +0.050 C 
ATOM     10  C   UNL     1      -0.348  -3.336   0.798  0.00  0.00    +0.077 C 
ATOM     11  N   UNL     1       0.964  -2.795   1.176  0.00  0.00    -0.271 NA
ATOM     12  C   UNL     1       1.923  -3.861   1.600  0.00  0.00    +0.155 C 
ATOM     13  S   UNL     1       0.777  -5.001   2.492  0.00  0.00    -0.144 S 
ATOM     14  C   UNL     1      -0.711  -4.665   1.478  0.00  0.00    +0.090 C 
ATOM     15  C   UNL     1       3.016  -2.150  -0.018  0.00  0.00    +0.243 C 
ATOM     16  O   UNL     1       3.734  -3.127   0.021  0.00  0.00    -0.273 OA
ATOM     17  N   UNL     1       3.411  -0.863  -0.063  0.00  0.00    -0.283 N 
ATOM     18  H   UNL     1       4.340  -0.582  -0.071  0.00  0.00    +0.155 HD
ENDROOT
BRANCH   9  19
ATOM     19  C   UNL     1      -1.536  -2.661  -1.290  0.00  0.00    -0.040 A 
ATOM     20  C   UNL     1      -1.443  -2.127  -2.562  0.00  0.00    +0.004 A 
ATOM     21  C   UNL     1      -2.489  -1.385  -3.078  0.00  0.00    +0.002 A 
ATOM     22  C   UNL     1      -3.628  -1.178  -2.322  0.00  0.00    +0.033 A 
ATOM     23  C   UNL     1      -3.721  -1.714  -1.051  0.00  0.00    +0.126 A 
ATOM     24  C   UNL     1      -2.677  -2.459  -0.537  0.00  0.00    +0.036 A 
BRANCH  23  25
ATOM     25  N   UNL     1      -4.941  -1.492  -0.242  0.00  0.00    +0.056 N 
ATOM     26  O   UNL     1      -5.856  -0.842  -0.693  0.00  0.00    -0.126 OA
ATOM     27  O   UNL     1      -5.022  -1.960   0.870  0.00  0.00    -0.126 OA
ENDBRANCH  23  25
ENDBRANCH   9  19
BRANCH   8  28
ATOM     28  C   UNL     1       1.885  -4.033  -1.611  0.00  0.00    +0.176 C 
ATOM     29  O   UNL     1       1.743  -5.134  -1.118  0.00  0.00    -0.291 OA
BRANCH  28  30
ATOM     30  C   UNL     1       2.920  -3.805  -2.544  0.00  0.00    +0.055 A 
ATOM     31  C   UNL     1       3.873  -4.695  -3.033  0.00  0.00    +0.019 A 
ATOM     32  C   UNL     1       4.760  -4.176  -3.941  0.00  0.00    +0.008 A 
ATOM     33  C   UNL     1       4.657  -2.869  -4.293  0.00  0.00    +0.046 A 
ATOM     34  S   UNL     1       3.345  -2.305  -3.408  0.00  0.00    -0.094 S 
ENDBRANCH  28  30
ENDBRANCH   8  28
TORSDOF 4
