REMARK  Name = ZINC24631133
REMARK  11 active torsions:
REMARK  status: ('A' for Active; 'I' for Inactive)
REMARK    1  A    between atoms: C_1  and  C_2
REMARK    2  A    between atoms: C_2  and  C_3
REMARK    3  A    between atoms: C_2  and  C_4
REMARK    4  A    between atoms: C_2  and  O_5
REMARK    5  A    between atoms: O_5  and  C_6
REMARK    6  A    between atoms: N_8  and  C_9
REMARK    7  A    between atoms: C_12  and  C_15
REMARK    8  A    between atoms: N_17  and  C_18
REMARK    9  A    between atoms: C_18  and  C_19
REMARK   10  A    between atoms: C_19  and  C_21
REMARK   11  A    between atoms: C_19  and  N_26
REMARK                            x       y       z     vdW  Elec       q    Type
REMARK                         _______ _______ _______ _____ _____    ______ ____
ROOT
ATOM      1  C   UNL     1      -0.742   0.239  -2.835  0.00  0.00    +0.244 C 
ATOM      2  O   UNL     1      -1.666   0.933  -3.215  0.00  0.00    -0.270 OA
ATOM      3  N   UNL     1      -0.362   0.272  -1.543  0.00  0.00    -0.313 N 
ATOM      4  H   UNL     1       0.474  -0.355  -1.199  0.00  0.00    +0.149 HD
ENDROOT
BRANCH   1   8
ATOM      5  C   UNL     1       1.284  -2.289  -5.581  0.00  0.00    +0.036 A 
ATOM      6  C   UNL     1       0.227  -1.496  -6.017  0.00  0.00    +0.024 A 
ATOM      7  C   UNL     1      -0.432  -0.675  -5.130  0.00  0.00    +0.015 A 
ATOM      8  C   UNL     1      -0.038  -0.640  -3.789  0.00  0.00    +0.037 A 
ATOM      9  C   UNL     1       1.027  -1.434  -3.356  0.00  0.00    +0.015 A 
ATOM     10  C   UNL     1       1.678  -2.256  -4.247  0.00  0.00    +0.024 A 
BRANCH   5  13
ATOM     11  C   UNL     1       1.252  -3.793  -7.419  0.00  0.00    +0.405 C 
ATOM     12  O   UNL     1       0.053  -3.622  -7.524  0.00  0.00    -0.226 OA
ATOM     13  N   UNL     1       1.949  -3.119  -6.483  0.00  0.00    -0.251 N 
ATOM     14  H   UNL     1       3.043  -3.224  -6.430  0.00  0.00    +0.158 HD
BRANCH  11  15
ATOM     15  O   UNL     1       1.883  -4.656  -8.237  0.00  0.00    -0.444 OA
BRANCH  15  17
ATOM     16  C   UNL     1       0.402  -4.322 -10.140  0.00  0.00    +0.055 C 
ATOM     17  C   UNL     1       1.069  -5.347  -9.221  0.00  0.00    +0.107 C 
ATOM     18  C   UNL     1       1.954  -6.278 -10.052  0.00  0.00    +0.055 C 
ATOM     19  C   UNL     1      -0.006  -6.169  -8.507  0.00  0.00    +0.055 C 
ENDBRANCH  15  17
ENDBRANCH  11  15
ENDBRANCH   5  13
ENDBRANCH   1   8
BRANCH   3  20
ATOM     20  C   UNL     1      -1.060   1.145  -0.596  0.00  0.00    +0.094 C 
BRANCH  20  21
ATOM     21  C   UNL     1      -0.334   1.122   0.750  0.00  0.00    -0.013 C 
BRANCH  21  22
ATOM     22  N   UNL     1       1.029   1.643   0.580  0.00  0.00    +0.386 N 
ATOM     23  C   UNL     1       1.683   1.866   1.895  0.00  0.00    -0.078 C 
ATOM     24  C   UNL     1       3.191   1.887   1.543  0.00  0.00    -0.020 C 
ATOM     25  C   UNL     1       3.304   0.806   0.444  0.00  0.00    -0.020 C 
ATOM     26  C   UNL     1       1.883   0.669  -0.135  0.00  0.00    -0.078 C 
ATOM     27  H   UNL     1       0.923   2.579   0.012  0.00  0.00    -0.081 HD
ENDBRANCH  21  22
BRANCH  21  28
ATOM     28  C   UNL     1      -1.080   1.981   1.739  0.00  0.00    -0.022 A 
ATOM     29  C   UNL     1      -1.852   1.602   2.787  0.00  0.00    +0.009 A 
ATOM     30  C   UNL     1      -2.445   2.575   3.568  0.00  0.00    +0.008 A 
ATOM     31  C   UNL     1      -2.237   3.880   3.264  0.00  0.00    +0.045 A 
ATOM     32  S   UNL     1      -1.169   3.761   1.838  0.00  0.00    -0.103 S 
ENDBRANCH  21  28
ENDBRANCH  20  21
ENDBRANCH   3  20
TORSDOF 8
