REMARK  Name = ZINC13696528
REMARK  11 active torsions:
REMARK  status: ('A' for Active; 'I' for Inactive)
REMARK    1  A    between atoms: C_1  and  C_2
REMARK    2  A    between atoms: C_2  and  C_3
REMARK    3  A    between atoms: C_2  and  C_4
REMARK    4  A    between atoms: N_6  and  C_7
REMARK    5  A    between atoms: C_10  and  S_13
REMARK    6  A    between atoms: S_13  and  N_16
REMARK    7  A    between atoms: N_16  and  C_17
REMARK    8  A    between atoms: C_26  and  C_28
REMARK    9  A    between atoms: C_28  and  C_29
REMARK   10  A    between atoms: C_28  and  C_30
REMARK   11  A    between atoms: C_28  and  C_31
REMARK                            x       y       z     vdW  Elec       q    Type
REMARK                         _______ _______ _______ _____ _____    ______ ____
ROOT
ATOM      1  N   UNL     1      -1.962   8.153   1.371  0.00  0.00    -0.216 N 
ATOM      2  H   UNL     1      -2.521   8.827   1.790  0.00  0.00    +0.174 HD
ENDROOT
BRANCH   1   3
ATOM      3  C   UNL     1      -0.749   7.788   1.958  0.00  0.00    +0.050 A 
ATOM      4  C   UNL     1       0.391   7.659   1.173  0.00  0.00    +0.025 A 
ATOM      5  C   UNL     1       1.589   7.298   1.758  0.00  0.00    +0.007 A 
ATOM      6  C   UNL     1       1.656   7.065   3.119  0.00  0.00    -0.024 A 
ATOM      7  C   UNL     1       0.527   7.190   3.914  0.00  0.00    +0.041 A 
ATOM      8  C   UNL     1      -0.681   7.560   3.323  0.00  0.00    +0.048 A 
ATOM      9  N   UNL     1       0.808   6.912   5.255  0.00  0.00    -0.270 N 
ATOM     10  C   UNL     1       2.224   6.570   5.412  0.00  0.00    +0.118 C 
ATOM     11  C   UNL     1       2.820   6.664   3.998  0.00  0.00    +0.056 C 
ATOM     12  C   UNL     1      -0.093   6.953   6.257  0.00  0.00    +0.225 C 
ATOM     13  O   UNL     1      -1.264   7.154   6.013  0.00  0.00    -0.275 OA
BRANCH  12  14
ATOM     14  C   UNL     1       0.355   6.750   7.682  0.00  0.00    +0.039 C 
ATOM     15  C   UNL     1      -0.864   6.752   8.605  0.00  0.00    +0.020 C 
ATOM     16  C   UNL     1       1.083   5.409   7.801  0.00  0.00    +0.020 C 
ATOM     17  C   UNL     1       1.303   7.881   8.085  0.00  0.00    +0.020 C 
ENDBRANCH  12  14
ENDBRANCH   1   3
BRANCH   1  18
ATOM     18  S   UNL     1      -2.448   7.436  -0.040  0.00  0.00    +0.072 S 
ATOM     19  O   UNL     1      -1.341   7.497  -0.929  0.00  0.00    -0.150 OA
ATOM     20  O   UNL     1      -3.716   7.992  -0.363  0.00  0.00    -0.150 OA
BRANCH  18  24
ATOM     21  C   UNL     1      -3.149   3.053   0.857  0.00  0.00    +0.034 A 
ATOM     22  C   UNL     1      -1.894   3.488   0.452  0.00  0.00    +0.025 A 
ATOM     23  C   UNL     1      -1.685   4.825   0.174  0.00  0.00    +0.030 A 
ATOM     24  C   UNL     1      -2.721   5.731   0.309  0.00  0.00    +0.109 A 
ATOM     25  C   UNL     1      -3.970   5.301   0.718  0.00  0.00    +0.030 A 
ATOM     26  C   UNL     1      -4.187   3.965   0.992  0.00  0.00    +0.025 A 
BRANCH  21  29
ATOM     27  C   UNL     1      -4.551   1.130   0.834  0.00  0.00    +0.220 C 
ATOM     28  O   UNL     1      -5.462   1.813   0.416  0.00  0.00    -0.275 OA
ATOM     29  N   UNL     1      -3.366   1.698   1.133  0.00  0.00    -0.285 N 
ATOM     30  H   UNL     1      -2.663   1.168   1.540  0.00  0.00    +0.155 HD
BRANCH  27  32
ATOM     31  C   UNL     1      -4.519  -0.711   2.494  0.00  0.00    +0.017 C 
ATOM     32  C   UNL     1      -4.746  -0.352   1.024  0.00  0.00    +0.069 C 
ATOM     33  C   UNL     1      -6.171  -0.735   0.620  0.00  0.00    +0.017 C 
ENDBRANCH  27  32
ENDBRANCH  21  29
ENDBRANCH  18  24
ENDBRANCH   1  18
TORSDOF 6
