REMARK  Name = ZINC02743415
REMARK  12 active torsions:
REMARK  status: ('A' for Active; 'I' for Inactive)
REMARK    1  A    between atoms: C_1  and  C_2
REMARK    2  A    between atoms: C_2  and  O_3
REMARK    3  A    between atoms: O_3  and  C_4
REMARK    4  A    between atoms: C_4  and  C_6
REMARK    5  A    between atoms: C_7  and  C_35
REMARK    6  A    between atoms: C_11  and  C_13
REMARK    7  A    between atoms: C_15  and  C_19
REMARK    8  A    between atoms: C_16  and  C_18
REMARK    9  A    between atoms: C_19  and  S_20
REMARK   10  A    between atoms: S_20  and  C_21
REMARK   11  A    between atoms: C_31  and  C_33
REMARK   12  A    between atoms: C_31  and  C_34
REMARK                            x       y       z     vdW  Elec       q    Type
REMARK                         _______ _______ _______ _____ _____    ______ ____
ROOT
ATOM      1  C   UNL     1      -4.478   1.766   4.263  0.00  0.00    +0.066 C 
ATOM      2  C   UNL     1      -5.648   1.784   3.601  0.00  0.00    +0.016 C 
ATOM      3  N   UNL     1      -5.961   2.827   2.775  0.00  0.00    -0.321 N 
ATOM      4  C   UNL     1      -5.319   4.030   2.899  0.00  0.00    +0.016 C 
ATOM      5  C   UNL     1      -4.128   4.110   3.530  0.00  0.00    +0.024 C 
ATOM      6  C   UNL     1      -3.482   2.878   4.112  0.00  0.00    +0.099 C 
ATOM      7  C   UNL     1      -3.457   5.338   3.660  0.00  0.00    +0.162 C 
ATOM      8  O   UNL     1      -2.393   5.377   4.245  0.00  0.00    -0.292 OA
ATOM      9  C   UNL     1      -4.032   6.605   3.087  0.00  0.00    +0.086 C 
ATOM     10  C   UNL     1      -4.901   6.254   1.875  0.00  0.00    -0.023 C 
ATOM     11  C   UNL     1      -5.975   5.259   2.319  0.00  0.00    +0.058 C 
ATOM     12  C   UNL     1      -4.032   5.620   0.786  0.00  0.00    +0.011 C 
ATOM     13  C   UNL     1      -5.566   7.520   1.330  0.00  0.00    +0.011 C 
ATOM     14  C   UNL     1      -6.620   0.645   3.769  0.00  0.00    +0.061 C 
ATOM     15  H   UNL     1      -6.735   2.705   2.004  0.00  0.00    +0.152 HD
ENDROOT
BRANCH   6  16
ATOM     16  C   UNL     1      -2.370   2.425   3.202  0.00  0.00    +0.002 A 
ATOM     17  C   UNL     1      -1.047   2.294   3.469  0.00  0.00    +0.017 A 
ATOM     18  C   UNL     1      -0.201   1.857   2.468  0.00  0.00    -0.027 A 
ATOM     19  C   UNL     1      -0.718   1.572   1.248  0.00  0.00    -0.009 A 
ATOM     20  S   UNL     1      -2.451   1.929   1.489  0.00  0.00    -0.097 S 
ATOM     21  C   UNL     1      -0.013   1.086   0.008  0.00  0.00    +0.052 C 
BRANCH  18  22
ATOM     22  C   UNL     1       1.275   1.698   2.729  0.00  0.00    +0.110 C 
BRANCH  22  23
ATOM     23  S   UNL     1       2.127   3.253   2.346  0.00  0.00    -0.120 S 
BRANCH  23  24
ATOM     24  C   UNL     1       3.819   2.910   2.697  0.00  0.00    +0.008 A 
ATOM     25  C   UNL     1       4.193   1.655   3.163  0.00  0.00    +0.016 A 
ATOM     26  C   UNL     1       5.520   1.388   3.433  0.00  0.00    +0.021 A 
ATOM     27  C   UNL     1       6.477   2.371   3.250  0.00  0.00    +0.041 A 
ATOM     28  C   UNL     1       6.107   3.623   2.791  0.00  0.00    +0.021 A 
ATOM     29  C   UNL     1       4.782   3.895   2.514  0.00  0.00    +0.016 A 
ATOM     30 CL   UNL     1       8.144   2.032   3.596  0.00  0.00    -0.084 Cl
ENDBRANCH  23  24
ENDBRANCH  22  23
ENDBRANCH  18  22
ENDBRANCH   6  16
BRANCH   1  31
ATOM     31  C   UNL     1      -4.181   0.680   5.118  0.00  0.00    +0.338 C 
ATOM     32  O   UNL     1      -4.981  -0.228   5.249  0.00  0.00    -0.245 OA
BRANCH  31  33
ATOM     33  O   UNL     1      -3.010   0.649   5.789  0.00  0.00    -0.462 OA
BRANCH  33  35
ATOM     34  C   UNL     1      -1.409  -0.337   7.306  0.00  0.00    +0.048 C 
ATOM     35  C   UNL     1      -2.776  -0.478   6.634  0.00  0.00    +0.229 C 
ENDBRANCH  33  35
ENDBRANCH  31  33
ENDBRANCH   1  31
TORSDOF 7
