REMARK  Name = ZINC08993023
REMARK  7 active torsions:
REMARK  status: ('A' for Active; 'I' for Inactive)
REMARK    1  A    between atoms: C_1  and  C_2
REMARK    2  A    between atoms: C_2  and  N_3
REMARK    3  A    between atoms: C_5  and  C_12
REMARK    4  A    between atoms: C_19  and  O_24
REMARK    5  A    between atoms: C_20  and  C_23
REMARK    6  A    between atoms: O_24  and  C_25
REMARK    7  A    between atoms: C_25  and  C_26
REMARK                            x       y       z     vdW  Elec       q    Type
REMARK                         _______ _______ _______ _____ _____    ______ ____
ROOT
ATOM      1  C   UNL     1       0.063  -1.277   4.699  0.00  0.00    +0.060 C 
ATOM      2  C   UNL     1       0.353  -1.353   3.370  0.00  0.00    +0.176 C 
ATOM      3  C   UNL     1       0.741  -2.528   2.672  0.00  0.00    +0.231 C 
ATOM      4  O   UNL     1       0.878  -3.650   3.129  0.00  0.00    -0.283 OA
ATOM      5  C   UNL     1       0.939  -2.099   1.276  0.00  0.00    +0.068 A 
ATOM      6  C   UNL     1       1.318  -2.766   0.111  0.00  0.00    +0.019 A 
ATOM      7  C   UNL     1       1.418  -2.078  -1.065  0.00  0.00    +0.047 A 
ATOM      8  C   UNL     1       1.137  -0.714  -1.105  0.00  0.00    +0.127 A 
ATOM      9  C   UNL     1       0.766  -0.038   0.045  0.00  0.00    +0.034 A 
ATOM     10  C   UNL     1       0.660  -0.723   1.248  0.00  0.00    +0.146 A 
ATOM     11  O   UNL     1       0.321  -0.323   2.492  0.00  0.00    -0.451 OA
ATOM     12  C   UNL     1       0.471   1.439  -0.010  0.00  0.00    +0.051 C 
ENDROOT
BRANCH   1  15
ATOM     13  N   UNL     1      -0.470  -4.590   6.134  0.00  0.00    -0.346 N 
ATOM     14  C   UNL     1      -0.581  -3.698   5.119  0.00  0.00    +0.094 A 
ATOM     15  C   UNL     1      -0.023  -2.496   5.500  0.00  0.00    +0.004 A 
ATOM     16  C   UNL     1       0.474  -2.689   6.876  0.00  0.00    +0.007 A 
ATOM     17  C   UNL     1       0.161  -4.014   7.218  0.00  0.00    +0.050 A 
ATOM     18  C   UNL     1       0.509  -4.493   8.477  0.00  0.00    +0.026 A 
ATOM     19  C   UNL     1       1.149  -3.667   9.375  0.00  0.00    +0.002 A 
ATOM     20  C   UNL     1       1.452  -2.356   9.037  0.00  0.00    +0.001 A 
ATOM     21  C   UNL     1       1.116  -1.863   7.794  0.00  0.00    +0.010 A 
BRANCH  13  23
ATOM     22  C   UNL     1      -2.353  -6.044   6.701  0.00  0.00    +0.027 C 
ATOM     23  C   UNL     1      -0.954  -5.972   6.086  0.00  0.00    +0.118 C 
ENDBRANCH  13  23
ENDBRANCH   1  15
BRANCH   8  24
ATOM     24  O   UNL     1       1.234  -0.042  -2.280  0.00  0.00    -0.487 OA
BRANCH  24  25
ATOM     25  C   UNL     1       1.621  -0.797  -3.430  0.00  0.00    +0.267 C 
BRANCH  25  26
ATOM     26  C   UNL     1       1.675   0.111  -4.632  0.00  0.00    +0.025 A 
ATOM     27  C   UNL     1       1.365   1.452  -4.501  0.00  0.00    +0.010 A 
ATOM     28  C   UNL     1       1.419   2.285  -5.602  0.00  0.00    +0.001 A 
ATOM     29  C   UNL     1       1.773   1.777  -6.838  0.00  0.00    +0.003 A 
ATOM     30  C   UNL     1       2.078   0.436  -6.973  0.00  0.00    +0.039 A 
ATOM     31  C   UNL     1       2.029  -0.399  -5.869  0.00  0.00    +0.130 A 
ATOM     32  F   UNL     1       2.326  -1.710  -6.000  0.00  0.00    -0.205 F 
ENDBRANCH  25  26
ENDBRANCH  24  25
ENDBRANCH   8  24
TORSDOF 5
