REMARK  Name = ZINC08721679
REMARK  9 active torsions:
REMARK  status: ('A' for Active; 'I' for Inactive)
REMARK    1  A    between atoms: C_1  and  C_2
REMARK    2  A    between atoms: C_3  and  N_15
REMARK    3  A    between atoms: C_4  and  C_14
REMARK    4  A    between atoms: N_5  and  C_7
REMARK    5  A    between atoms: C_7  and  C_8
REMARK    6  A    between atoms: N_15  and  C_16
REMARK    7  A    between atoms: C_18  and  C_39
REMARK    8  A    between atoms: N_20  and  C_23
REMARK    9  A    between atoms: C_26  and  C_29
REMARK                            x       y       z     vdW  Elec       q    Type
REMARK                         _______ _______ _______ _____ _____    ______ ____
ROOT
ATOM      1  C   UNL     1       0.133   0.876  -2.793  0.00  0.00    +0.087 C 
ATOM      2  C   UNL     1      -0.090   1.343  -4.079  0.00  0.00    +0.075 C 
ATOM      3  C   UNL     1       0.232   2.673  -4.617  0.00  0.00    +0.070 C 
ATOM      4  N   UNL     1      -0.141   2.693  -5.860  0.00  0.00    -0.176 NA
ATOM      5  N   UNL     1      -0.704   1.476  -6.241  0.00  0.00    -0.156 N 
ATOM      6  C   UNL     1      -0.694   0.616  -5.202  0.00  0.00    +0.273 C 
ATOM      7  O   UNL     1      -1.106  -0.532  -5.196  0.00  0.00    -0.268 OA
ATOM      8  C   UNL     1       0.877   3.806  -3.862  0.00  0.00    +0.068 C 
ENDROOT
BRANCH   5   9
ATOM      9  C   UNL     1      -1.202   1.185  -7.517  0.00  0.00    +0.060 A 
ATOM     10  C   UNL     1      -1.748  -0.063  -7.784  0.00  0.00    +0.026 A 
ATOM     11  C   UNL     1      -2.238  -0.346  -9.044  0.00  0.00    +0.006 A 
ATOM     12  C   UNL     1      -2.185   0.613 -10.039  0.00  0.00    -0.041 A 
ATOM     13  C   UNL     1      -1.642   1.857  -9.777  0.00  0.00    +0.006 A 
ATOM     14  C   UNL     1      -1.156   2.148  -8.517  0.00  0.00    +0.026 A 
BRANCH  12  15
ATOM     15  C   UNL     1      -2.719   0.300 -11.413  0.00  0.00    -0.003 C 
ATOM     16  C   UNL     1      -4.205  -0.050 -11.315  0.00  0.00    +0.015 C 
ATOM     17  C   UNL     1      -4.748  -0.367 -12.710  0.00  0.00    -0.010 C 
ATOM     18  C   UNL     1      -4.571   0.853 -13.616  0.00  0.00    +0.007 C 
ATOM     19  C   UNL     1      -3.085   1.203 -13.714  0.00  0.00    -0.010 C 
ATOM     20  C   UNL     1      -2.542   1.520 -12.319  0.00  0.00    +0.015 C 
ATOM     21  C   UNL     1      -2.319   0.016 -14.302  0.00  0.00    +0.007 C 
ATOM     22  C   UNL     1      -2.496  -1.204 -13.396  0.00  0.00    -0.010 C 
ATOM     23  C   UNL     1      -3.982  -1.554 -13.297  0.00  0.00    +0.007 C 
ATOM     24  C   UNL     1      -1.954  -0.887 -12.001  0.00  0.00    +0.015 C 
ENDBRANCH  12  15
ENDBRANCH   5   9
BRANCH   1  25
ATOM     25  N   UNL     1      -0.220  -0.382  -2.463  0.00  0.00    -0.317 N 
ATOM     26  H   UNL     1      -0.554  -0.987  -3.144  0.00  0.00    +0.152 HD
BRANCH  25  29
ATOM     27  C   UNL     1      -0.067   1.510   0.009  0.00  0.00    +0.069 C 
ATOM     28  C   UNL     1      -0.032   0.003   0.004  0.00  0.00    +0.081 A 
ATOM     29  C   UNL     1      -0.103  -0.818  -1.132  0.00  0.00    +0.075 A 
ATOM     30  C   UNL     1      -0.039  -2.109  -0.715  0.00  0.00    +0.058 A 
ATOM     31  N   UNL     1       0.068  -2.099   0.633  0.00  0.00    -0.262 N 
ATOM     32  N   UNL     1       0.076  -0.765   1.057  0.00  0.00    -0.174 NA
ATOM     33  C   UNL     1      -0.081  -3.331  -1.596  0.00  0.00    +0.067 C 
BRANCH  31  34
ATOM     34  C   UNL     1       0.165  -3.278   1.497  0.00  0.00    +0.179 C 
BRANCH  34  35
ATOM     35  C   UNL     1       1.614  -3.650   1.680  0.00  0.00    -0.026 A 
ATOM     36  C   UNL     1       2.220  -4.526   0.799  0.00  0.00    +0.005 A 
ATOM     37  C   UNL     1       3.549  -4.866   0.967  0.00  0.00    +0.000 A 
ATOM     38  C   UNL     1       4.272  -4.330   2.016  0.00  0.00    +0.000 A 
ATOM     39  C   UNL     1       3.667  -3.454   2.897  0.00  0.00    +0.000 A 
ATOM     40  C   UNL     1       2.339  -3.110   2.726  0.00  0.00    +0.005 A 
ENDBRANCH  34  35
ENDBRANCH  31  34
ENDBRANCH  25  29
ENDBRANCH   1  25
TORSDOF 6
