REMARK  Name = ZINC39280163
REMARK  5 active torsions:
REMARK  status: ('A' for Active; 'I' for Inactive)
REMARK    1  A    between atoms: C_1  and  C_2
REMARK    2  A    between atoms: C_2  and  C_3
REMARK    3  A    between atoms: C_5  and  C_17
REMARK    4  A    between atoms: C_7  and  C_15
REMARK    5  A    between atoms: C_8  and  N_14
REMARK                            x       y       z     vdW  Elec       q    Type
REMARK                         _______ _______ _______ _____ _____    ______ ____
ROOT
ATOM      1  C   UNL     1       0.707  -0.490  -1.238  0.00  0.00    +0.069 C 
ATOM      2  C   UNL     1       1.976  -0.816  -1.299  0.00  0.00    +0.030 C 
ATOM      3  C   UNL     1       3.060  -0.961  -0.266  0.00  0.00    +0.098 C 
ATOM      4  C   UNL     1       3.816  -2.221  -0.645  0.00  0.00    +0.097 C 
ATOM      5  C   UNL     1       3.588  -2.862  -1.810  0.00  0.00    +0.195 C 
ATOM      6  O   UNL     1       2.690  -2.522  -2.752  0.00  0.00    -0.448 OA
ATOM      7  C   UNL     1       2.226  -1.170  -2.765  0.00  0.00    +0.343 C 
ATOM      8  N   UNL     1       0.883  -1.050  -3.341  0.00  0.00    -0.138 NA
ATOM      9  N   UNL     1       0.119  -0.659  -2.450  0.00  0.00    -0.155 NA
ENDROOT
BRANCH   3  10
ATOM     10  C   UNL     1       3.979   0.233  -0.304  0.00  0.00    -0.032 A 
ATOM     11  C   UNL     1       4.670   0.537  -1.463  0.00  0.00    +0.005 A 
ATOM     12  C   UNL     1       5.513   1.631  -1.500  0.00  0.00    +0.003 A 
ATOM     13  C   UNL     1       5.668   2.422  -0.377  0.00  0.00    +0.038 A 
ATOM     14  C   UNL     1       4.977   2.119   0.784  0.00  0.00    +0.124 A 
ATOM     15  C   UNL     1       4.128   1.026   0.817  0.00  0.00    +0.043 A 
ATOM     16  F   UNL     1       5.128   2.892   1.882  0.00  0.00    -0.205 F 
ENDBRANCH   3  10
BRANCH   5  17
ATOM     17  N   UNL     1       4.352  -3.974  -2.061  0.00  0.00    -0.329 N 
ATOM     18  H   UNL     1       5.015  -4.263  -1.414  0.00  0.00    +0.145 HD
ATOM     19  H   UNL     1       4.228  -4.472  -2.884  0.00  0.00    +0.145 HD
ENDBRANCH   5  17
BRANCH   1  21
ATOM     20  C   UNL     1      -0.019   1.526   0.010  0.00  0.00    +0.010 C 
ATOM     21  C   UNL     1       0.002  -0.004   0.002  0.00  0.00    +0.054 C 
ENDBRANCH   1  21
BRANCH   4  22
ATOM     22  C   UNL     1       4.797  -2.744   0.258  0.00  0.00    +0.101 C 
ATOM     23  N   UNL     1       5.575  -3.158   0.975  0.00  0.00    -0.191 NA
ENDBRANCH   4  22
TORSDOF 4
