REMARK  Name = ZINC09805127
REMARK  7 active torsions:
REMARK  status: ('A' for Active; 'I' for Inactive)
REMARK    1  A    between atoms: C_1  and  C_2
REMARK    2  A    between atoms: C_10  and  C_13
REMARK    3  A    between atoms: C_18  and  C_23
REMARK    4  A    between atoms: C_31  and  C_37
REMARK    5  A    between atoms: C_32  and  C_33
REMARK    6  A    between atoms: C_33  and  O_35
REMARK    7  A    between atoms: O_35  and  C_36
REMARK                            x       y       z     vdW  Elec       q    Type
REMARK                         _______ _______ _______ _____ _____    ______ ____
ROOT
ATOM      1  C   UNL     1       0.088  -5.156   3.538  0.00  0.00    +0.099 C 
ATOM      2  C   UNL     1       1.331  -4.856   4.337  0.00  0.00    +0.024 C 
ATOM      3  C   UNL     1       1.269  -4.089   5.446  0.00  0.00    +0.016 C 
ATOM      4  C   UNL     1       2.510  -3.773   6.243  0.00  0.00    +0.059 C 
ATOM      5  C   UNL     1       3.502  -4.933   6.130  0.00  0.00    +0.033 C 
ATOM      6  C   UNL     1       3.831  -5.149   4.649  0.00  0.00    +0.088 C 
ATOM      7  C   UNL     1       2.552  -5.396   3.896  0.00  0.00    +0.162 C 
ATOM      8  O   UNL     1       2.575  -6.074   2.888  0.00  0.00    -0.292 OA
ATOM      9  N   UNL     1       0.071  -3.582   5.874  0.00  0.00    -0.321 N 
ATOM     10  C   UNL     1      -1.108  -4.130   5.452  0.00  0.00    +0.016 C 
ATOM     11  C   UNL     1      -1.147  -4.890   4.346  0.00  0.00    +0.065 C 
ATOM     12  C   UNL     1      -2.371  -3.878   6.234  0.00  0.00    +0.061 C 
ATOM     13  H   UNL     1       0.060  -2.826   6.482  0.00  0.00    +0.152 HD
ENDROOT
BRANCH   1  23
ATOM     14  C   UNL     1      -0.018   1.503   0.010  0.00  0.00    +0.044 C 
ATOM     15  C   UNL     1       0.002  -0.004   0.002  0.00  0.00    -0.050 A 
ATOM     16  C   UNL     1       0.006  -0.688  -1.205  0.00  0.00    +0.007 A 
ATOM     17  C   UNL     1       0.024  -2.066  -1.234  0.00  0.00    +0.047 A 
ATOM     18  C   UNL     1       0.039  -2.784  -0.043  0.00  0.00    +0.138 A 
ATOM     19  C   UNL     1       0.036  -2.090   1.178  0.00  0.00    +0.064 A 
ATOM     20  C   UNL     1       0.023  -0.696   1.193  0.00  0.00    +0.018 A 
ATOM     21  C   UNL     1       0.052  -2.874   2.428  0.00  0.00    +0.197 A 
ATOM     22  O   UNL     1       0.050  -2.331   3.519  0.00  0.00    -0.287 OA
ATOM     23  C   UNL     1       0.070  -4.289   2.305  0.00  0.00    +0.047 A 
ATOM     24  C   UNL     1       0.072  -4.850   1.083  0.00  0.00    +0.204 A 
ATOM     25  O   UNL     1       0.057  -4.132  -0.045  0.00  0.00    -0.462 OA
ENDBRANCH   1  23
BRANCH   5  26
ATOM     26  C   UNL     1       4.761  -4.598   6.888  0.00  0.00    -0.025 A 
ATOM     27  C   UNL     1       5.503  -3.485   6.538  0.00  0.00    +0.005 A 
ATOM     28  C   UNL     1       6.658  -3.178   7.234  0.00  0.00    +0.000 A 
ATOM     29  C   UNL     1       7.071  -3.983   8.278  0.00  0.00    +0.001 A 
ATOM     30  C   UNL     1       6.330  -5.096   8.629  0.00  0.00    +0.020 A 
ATOM     31  C   UNL     1       5.171  -5.401   7.937  0.00  0.00    +0.044 A 
ATOM     32 CL   UNL     1       4.237  -6.795   8.381  0.00  0.00    -0.083 Cl
ENDBRANCH   5  26
BRANCH  11  33
ATOM     33  C   UNL     1      -2.380  -5.450   3.935  0.00  0.00    +0.337 C 
ATOM     34  O   UNL     1      -3.389  -5.241   4.582  0.00  0.00    -0.245 OA
BRANCH  33  35
ATOM     35  O   UNL     1      -2.436  -6.216   2.825  0.00  0.00    -0.465 OA
ATOM     36  C   UNL     1      -3.712  -6.750   2.469  0.00  0.00    +0.280 C 
ENDBRANCH  33  35
ENDBRANCH  11  33
TORSDOF 4
