REMARK  Name = ZINC35991159
REMARK  15 active torsions:
REMARK  status: ('A' for Active; 'I' for Inactive)
REMARK    1  A    between atoms: C_1  and  C_2
REMARK    2  A    between atoms: C_2  and  N_3
REMARK    3  A    between atoms: C_4  and  C_26
REMARK    4  A    between atoms: C_5  and  C_21
REMARK    5  A    between atoms: C_6  and  C_11
REMARK    6  A    between atoms: C_15  and  O_19
REMARK    7  A    between atoms: C_16  and  O_17
REMARK    8  A    between atoms: O_17  and  C_18
REMARK    9  A    between atoms: O_19  and  C_20
REMARK   10  A    between atoms: C_21  and  O_23
REMARK   11  A    between atoms: O_23  and  C_24
REMARK   12  A    between atoms: C_24  and  C_25
REMARK   13  A    between atoms: C_26  and  N_27
REMARK   14  A    between atoms: N_27  and  C_28
REMARK   15  A    between atoms: N_27  and  C_29
REMARK                            x       y       z     vdW  Elec       q    Type
REMARK                         _______ _______ _______ _____ _____    ______ ____
ROOT
ATOM      1  N   UNL     1      -1.407  -0.323  -0.187  0.00  0.00    -0.261 N 
ATOM      2  C   UNL     1      -2.015  -1.119   0.741  0.00  0.00    +0.010 C 
ATOM      3  C   UNL     1      -3.099  -1.858   0.422  0.00  0.00    +0.077 C 
ATOM      4  C   UNL     1      -3.617  -1.773  -1.000  0.00  0.00    +0.147 C 
ATOM      5  N   UNL     1      -2.890  -0.886  -1.923  0.00  0.00    -0.288 N 
ATOM      6  C   UNL     1      -1.825  -0.206  -1.454  0.00  0.00    +0.307 C 
ATOM      7  O   UNL     1      -1.220   0.532  -2.207  0.00  0.00    -0.252 OA
ATOM      8  H   UNL     1      -3.174  -0.789  -2.845  0.00  0.00    +0.151 HD
ENDROOT
BRANCH   4   9
ATOM      9  C   UNL     1      -5.051  -1.312  -0.945  0.00  0.00    +0.023 A 
ATOM     10  C   UNL     1      -5.536  -0.697   0.195  0.00  0.00    +0.009 A 
ATOM     11  C   UNL     1      -6.851  -0.274   0.248  0.00  0.00    +0.004 A 
ATOM     12  C   UNL     1      -7.686  -0.463  -0.838  0.00  0.00    +0.049 A 
ATOM     13  C   UNL     1      -7.206  -1.078  -1.982  0.00  0.00    +0.162 A 
ATOM     14  C   UNL     1      -5.880  -1.499  -2.038  0.00  0.00    +0.167 A 
BRANCH  14  15
ATOM     15  O   UNL     1      -5.403  -2.099  -3.162  0.00  0.00    -0.491 OA
ATOM     16  C   UNL     1      -5.622  -3.505  -3.290  0.00  0.00    +0.277 C 
ENDBRANCH  14  15
BRANCH  13  17
ATOM     17  O   UNL     1      -8.026  -1.264  -3.051  0.00  0.00    -0.491 OA
ATOM     18  C   UNL     1      -9.372  -0.801  -2.924  0.00  0.00    +0.277 C 
ENDBRANCH  13  17
ENDBRANCH   4   9
BRANCH   1  20
ATOM     19  C   UNL     1      -0.680   1.838   0.698  0.00  0.00    +0.025 C 
ATOM     20  C   UNL     1      -0.235   0.452   0.228  0.00  0.00    +0.111 C 
ENDBRANCH   1  20
BRANCH   3  21
ATOM     21  C   UNL     1      -3.729  -2.683   1.382  0.00  0.00    +0.339 C 
ATOM     22  O   UNL     1      -3.353  -2.667   2.539  0.00  0.00    -0.245 OA
BRANCH  21  23
ATOM     23  O   UNL     1      -4.748  -3.489   1.015  0.00  0.00    -0.462 OA
BRANCH  23  24
ATOM     24  C   UNL     1      -5.411  -4.212   2.054  0.00  0.00    +0.229 C 
ATOM     25  C   UNL     1      -6.446  -5.155   1.439  0.00  0.00    +0.048 C 
ENDBRANCH  23  24
ENDBRANCH  21  23
ENDBRANCH   3  21
BRANCH   2  26
ATOM     26  C   UNL     1      -1.467  -1.173   2.144  0.00  0.00    -0.026 C 
BRANCH  26  27
ATOM     27  N   UNL     1      -0.649  -2.383   2.303  0.00  0.00    +0.383 N 
ATOM     28  C   UNL     1       0.509  -2.314   1.402  0.00  0.00    -0.095 C 
ATOM     29  H   UNL     1      -1.203  -3.196   2.078  0.00  0.00    -0.081 HD
BRANCH  27  30
ATOM     30  C   UNL     1      -0.183  -2.479   3.693  0.00  0.00    -0.068 C 
ATOM     31  C   UNL     1       0.669  -3.739   3.859  0.00  0.00    -0.015 C 
ATOM     32  C   UNL     1       1.154  -3.840   5.307  0.00  0.00    -0.002 C 
ATOM     33  C   UNL     1      -0.052  -3.912   6.245  0.00  0.00    -0.000 C 
ATOM     34  C   UNL     1      -0.903  -2.651   6.079  0.00  0.00    -0.002 C 
ATOM     35  C   UNL     1      -1.389  -2.551   4.632  0.00  0.00    -0.015 C 
ENDBRANCH  27  30
ENDBRANCH  26  27
ENDBRANCH   2  26
TORSDOF 10
