REMARK  Name = ZINC63478888
REMARK  10 active torsions:
REMARK  status: ('A' for Active; 'I' for Inactive)
REMARK    1  A    between atoms: C_1  and  C_2
REMARK    2  A    between atoms: C_5  and  N_8
REMARK    3  A    between atoms: N_8  and  C_9
REMARK    4  A    between atoms: N_8  and  S_21
REMARK    5  A    between atoms: C_9  and  C_10
REMARK    6  A    between atoms: N_12  and  C_13
REMARK    7  A    between atoms: C_16  and  C_20
REMARK    8  A    between atoms: S_21  and  C_24
REMARK    9  A    between atoms: C_25  and  C_31
REMARK   10  A    between atoms: C_28  and  C_30
REMARK                            x       y       z     vdW  Elec       q    Type
REMARK                         _______ _______ _______ _____ _____    ______ ____
ROOT
ATOM      1  N   UNL     1       0.109  -3.836  -0.261  0.00  0.00    -0.194 N 
ENDROOT
BRANCH   1   6
ATOM      2  C   UNL     1      -0.306   1.623  -1.737  0.00  0.00    +0.044 C 
ATOM      3  C   UNL     1      -0.195   0.172  -1.345  0.00  0.00    -0.050 A 
ATOM      4  C   UNL     1      -0.840  -0.795  -2.093  0.00  0.00    +0.005 A 
ATOM      5  C   UNL     1      -0.741  -2.126  -1.737  0.00  0.00    +0.025 A 
ATOM      6  C   UNL     1       0.007  -2.492  -0.625  0.00  0.00    +0.052 A 
ATOM      7  C   UNL     1       0.653  -1.517   0.125  0.00  0.00    +0.025 A 
ATOM      8  C   UNL     1       0.554  -0.189  -0.240  0.00  0.00    +0.005 A 
ENDBRANCH   1   6
BRANCH   1   9
ATOM      9  S   UNL     1      -0.415  -4.333   1.229  0.00  0.00    +0.075 S 
ATOM     10  O   UNL     1       0.330  -5.499   1.554  0.00  0.00    -0.150 OA
ATOM     11  O   UNL     1      -0.427  -3.181   2.060  0.00  0.00    -0.150 OA
BRANCH   9  12
ATOM     12  C   UNL     1      -2.092  -4.842   1.048  0.00  0.00    +0.134 C 
ATOM     13  C   UNL     1      -3.194  -4.193   1.430  0.00  0.00    +0.085 C 
ATOM     14  N   UNL     1      -4.301  -4.903   1.120  0.00  0.00    -0.157 NA
ATOM     15  N   UNL     1      -4.079  -5.980   0.561  0.00  0.00    -0.178 NA
ATOM     16  C   UNL     1      -2.620  -6.118   0.416  0.00  0.00    +0.176 C 
ATOM     17  C   UNL     1      -2.116  -7.347   1.176  0.00  0.00    +0.041 C 
ATOM     18  C   UNL     1      -3.203  -2.850   2.114  0.00  0.00    +0.069 C 
ENDBRANCH   9  12
ENDBRANCH   1   9
BRANCH   1  19
ATOM     19  C   UNL     1       0.680  -4.807  -1.198  0.00  0.00    +0.227 C 
BRANCH  19  20
ATOM     20  C   UNL     1       2.182  -4.808  -1.069  0.00  0.00    +0.236 C 
ATOM     21  O   UNL     1       2.722  -4.070  -0.272  0.00  0.00    -0.274 OA
ATOM     22  N   UNL     1       2.924  -5.628  -1.838  0.00  0.00    -0.284 N 
ATOM     23  H   UNL     1       2.498  -6.171  -2.520  0.00  0.00    +0.155 HD
BRANCH  22  24
ATOM     24  C   UNL     1       4.309  -5.698  -1.652  0.00  0.00    +0.036 A 
ATOM     25  C   UNL     1       5.147  -5.906  -2.741  0.00  0.00    +0.024 A 
ATOM     26  C   UNL     1       6.514  -5.973  -2.556  0.00  0.00    +0.008 A 
ATOM     27  C   UNL     1       7.050  -5.835  -1.289  0.00  0.00    -0.015 A 
ATOM     28  C   UNL     1       6.218  -5.628  -0.201  0.00  0.00    +0.128 A 
ATOM     29  C   UNL     1       4.849  -5.554  -0.382  0.00  0.00    +0.062 A 
ATOM     30  F   UNL     1       6.745  -5.494   1.036  0.00  0.00    -0.205 F 
ATOM     31  C   UNL     1       8.542  -5.911  -1.091  0.00  0.00    +0.047 C 
ENDBRANCH  22  24
ENDBRANCH  19  20
ENDBRANCH   1  19
TORSDOF 6
