REMARK  Name = ZINC40729248
REMARK  7 active torsions:
REMARK  status: ('A' for Active; 'I' for Inactive)
REMARK    1  A    between atoms: C_4  and  C_7
REMARK    2  A    between atoms: C_7  and  C_8
REMARK    3  A    between atoms: C_15  and  N_34
REMARK    4  A    between atoms: C_16  and  N_20
REMARK    5  A    between atoms: N_20  and  N_21
REMARK    6  A    between atoms: N_21  and  C_22
REMARK    7  A    between atoms: N_21  and  C_28
REMARK                            x       y       z     vdW  Elec       q    Type
REMARK                         _______ _______ _______ _____ _____    ______ ____
ROOT
ATOM      1  C   UNL     1       0.406  -3.852   4.131  0.00  0.00    -0.004 C 
ATOM      2  C   UNL     1       1.159  -3.478   5.409  0.00  0.00    +0.023 C 
ATOM      3  C   UNL     1       2.667  -3.537   5.144  0.00  0.00    +0.107 C 
ATOM      4  N   UNL     1       3.002  -4.865   4.613  0.00  0.00    -0.314 N 
ATOM      5  C   UNL     1       2.272  -5.360   3.438  0.00  0.00    +0.107 C 
ATOM      6  C   UNL     1       0.769  -5.281   3.722  0.00  0.00    +0.023 C 
ATOM      7  C   UNL     1       3.991  -5.638   5.210  0.00  0.00    +0.147 A 
ATOM      8  C   UNL     1       5.328  -5.492   4.834  0.00  0.00    +0.105 A 
ATOM      9  C   UNL     1       6.281  -6.293   5.465  0.00  0.00    +0.139 A 
ATOM     10  N   UNL     1       5.882  -7.159   6.394  0.00  0.00    -0.332 N 
ATOM     11  C   UNL     1       4.610  -7.265   6.719  0.00  0.00    +0.200 A 
ATOM     12  N   UNL     1       3.679  -6.524   6.152  0.00  0.00    -0.221 NA
ATOM     13  H   UNL     1       6.538  -7.720   6.837  0.00  0.00    +0.168 HD
ENDROOT
BRANCH   8  14
ATOM     14  N   UNL     1       5.703  -4.565   3.848  0.00  0.00    -0.353 N 
ATOM     15  H   UNL     1       5.064  -3.908   3.531  0.00  0.00    +0.143 HD
ATOM     16  H   UNL     1       6.602  -4.581   3.484  0.00  0.00    +0.143 HD
ENDBRANCH   8  14
BRANCH   9  17
ATOM     17  N   UNL     1       7.625  -6.188   5.128  0.00  0.00    -0.243 N 
ATOM     18  H   UNL     1       7.908  -5.555   4.450  0.00  0.00    +0.172 HD
BRANCH  17  19
ATOM     19  N   UNL     1       8.573  -6.997   5.769  0.00  0.00    -0.221 N 
BRANCH  19  20
ATOM     20  C   UNL     1       9.130  -8.087   5.095  0.00  0.00    +0.053 A 
ATOM     21  C   UNL     1       8.621  -8.479   3.863  0.00  0.00    +0.025 A 
ATOM     22  C   UNL     1       9.175  -9.556   3.200  0.00  0.00    +0.002 A 
ATOM     23  C   UNL     1      10.235 -10.245   3.760  0.00  0.00    +0.000 A 
ATOM     24  C   UNL     1      10.744  -9.858   4.986  0.00  0.00    +0.002 A 
ATOM     25  C   UNL     1      10.199  -8.777   5.652  0.00  0.00    +0.025 A 
ENDBRANCH  19  20
BRANCH  19  26
ATOM     26  C   UNL     1       8.960  -6.715   7.081  0.00  0.00    +0.053 A 
ATOM     27  C   UNL     1       9.433  -5.451   7.411  0.00  0.00    +0.025 A 
ATOM     28  C   UNL     1       9.815  -5.175   8.709  0.00  0.00    +0.002 A 
ATOM     29  C   UNL     1       9.727  -6.156   9.680  0.00  0.00    +0.000 A 
ATOM     30  C   UNL     1       9.258  -7.415   9.355  0.00  0.00    +0.002 A 
ATOM     31  C   UNL     1       8.868  -7.696   8.061  0.00  0.00    +0.025 A 
ENDBRANCH  19  26
ENDBRANCH  17  19
ENDBRANCH   9  17
BRANCH   1  32
ATOM     32  C   UNL     1      -1.101  -3.760   4.382  0.00  0.00    +0.038 C 
BRANCH  32  36
ATOM     33  C   UNL     1      -2.169   0.297   5.183  0.00  0.00    +0.000 A 
ATOM     34  C   UNL     1      -2.179  -0.176   3.884  0.00  0.00    +0.000 A 
ATOM     35  C   UNL     1      -1.833  -1.489   3.625  0.00  0.00    +0.003 A 
ATOM     36  C   UNL     1      -1.477  -2.328   4.664  0.00  0.00    -0.047 A 
ATOM     37  C   UNL     1      -1.466  -1.854   5.963  0.00  0.00    +0.003 A 
ATOM     38  C   UNL     1      -1.814  -0.542   6.222  0.00  0.00    +0.000 A 
ENDBRANCH  32  36
ENDBRANCH   1  32
TORSDOF 7
