REMARK  Name = ZINC19110769
REMARK  7 active torsions:
REMARK  status: ('A' for Active; 'I' for Inactive)
REMARK    1  A    between atoms: C_1  and  C_2
REMARK    2  A    between atoms: C_2  and  C_24
REMARK    3  A    between atoms: N_5  and  C_9
REMARK    4  A    between atoms: C_9  and  C_10
REMARK    5  A    between atoms: N_12  and  C_13
REMARK    6  A    between atoms: C_13  and  C_14
REMARK    7  A    between atoms: N_16  and  C_17
REMARK                            x       y       z     vdW  Elec       q    Type
REMARK                         _______ _______ _______ _____ _____    ______ ____
ROOT
ATOM      1  C   UNL     1       1.639   2.579   1.263  0.00  0.00    +0.047 C 
ATOM      2  C   UNL     1       1.325   1.770   0.002  0.00  0.00    +0.135 C 
ATOM      3  C   UNL     1       2.115   0.477  -0.012  0.00  0.00    +0.251 C 
ATOM      4  O   UNL     1       3.321   0.356  -0.024  0.00  0.00    -0.272 OA
ATOM      5  N   UNL     1       1.198  -0.511  -0.010  0.00  0.00    -0.215 N 
ATOM      6  C   UNL     1      -0.049  -0.026   0.004  0.00  0.00    +0.310 C 
ATOM      7  O   UNL     1      -1.045  -0.723   0.009  0.00  0.00    -0.252 OA
ATOM      8  N   UNL     1      -0.078   1.319   0.012  0.00  0.00    -0.281 N 
ATOM      9  H   UNL     1      -0.868   1.882   0.019  0.00  0.00    +0.152 HD
ENDROOT
BRANCH   2  10
ATOM     10  C   UNL     1       1.612   2.581  -1.235  0.00  0.00    -0.015 A 
ATOM     11  C   UNL     1       2.876   2.565  -1.795  0.00  0.00    +0.006 A 
ATOM     12  C   UNL     1       3.135   3.305  -2.932  0.00  0.00    +0.004 A 
ATOM     13  C   UNL     1       2.136   4.072  -3.507  0.00  0.00    -0.044 A 
ATOM     14  C   UNL     1       0.874   4.092  -2.945  0.00  0.00    -0.044 A 
ATOM     15  C   UNL     1       0.614   3.346  -1.807  0.00  0.00    +0.010 A 
ATOM     16  C   UNL     1      -0.032   4.998  -3.752  0.00  0.00    +0.036 C 
ATOM     17  C   UNL     1       0.684   5.181  -5.107  0.00  0.00    +0.009 C 
ATOM     18  C   UNL     1       2.165   4.962  -4.731  0.00  0.00    +0.036 C 
ENDBRANCH   2  10
BRANCH   5  19
ATOM     19  C   UNL     1       1.526  -1.938  -0.021  0.00  0.00    +0.213 C 
BRANCH  19  20
ATOM     20  C   UNL     1       1.626  -2.420  -1.445  0.00  0.00    +0.231 C 
ATOM     21  O   UNL     1       1.442  -1.647  -2.361  0.00  0.00    -0.274 OA
ATOM     22  N   UNL     1       1.920  -3.710  -1.701  0.00  0.00    -0.305 N 
ATOM     23  H   UNL     1       2.068  -4.329  -0.968  0.00  0.00    +0.149 HD
BRANCH  22  24
ATOM     24  C   UNL     1       2.018  -4.179  -3.085  0.00  0.00    +0.200 C 
BRANCH  24  25
ATOM     25  C   UNL     1       2.355  -5.647  -3.096  0.00  0.00    +0.234 C 
ATOM     26  O   UNL     1       2.500  -6.244  -2.050  0.00  0.00    -0.274 OA
ATOM     27  N   UNL     1       2.496  -6.298  -4.268  0.00  0.00    -0.283 N 
ATOM     28  H   UNL     1       2.316  -5.838  -5.103  0.00  0.00    +0.155 HD
BRANCH  27  29
ATOM     29  C   UNL     1       2.901  -7.638  -4.281  0.00  0.00    +0.047 A 
ATOM     30  C   UNL     1       2.494  -8.497  -3.269  0.00  0.00    +0.024 A 
ATOM     31  C   UNL     1       2.893  -9.819  -3.286  0.00  0.00    +0.002 A 
ATOM     32  C   UNL     1       3.703 -10.286  -4.305  0.00  0.00    +0.001 A 
ATOM     33  C   UNL     1       4.114  -9.432  -5.312  0.00  0.00    +0.017 A 
ATOM     34  C   UNL     1       3.716  -8.109  -5.303  0.00  0.00    +0.039 A 
ATOM     35 BR   UNL     1       4.279  -6.941  -6.679  0.00  0.00    -0.048 Br
ENDBRANCH  27  29
ENDBRANCH  24  25
ENDBRANCH  22  24
ENDBRANCH  19  20
ENDBRANCH   5  19
TORSDOF 6
