REMARK  Name = ZINC24772294
REMARK  9 active torsions:
REMARK  status: ('A' for Active; 'I' for Inactive)
REMARK    1  A    between atoms: C_1  and  N_2
REMARK    2  A    between atoms: N_2  and  C_3
REMARK    3  A    between atoms: N_2  and  C_16
REMARK    4  A    between atoms: C_3  and  C_4
REMARK    5  A    between atoms: N_6  and  C_7
REMARK    6  A    between atoms: C_12  and  O_13
REMARK    7  A    between atoms: O_13  and  C_14
REMARK    8  A    between atoms: C_16  and  C_17
REMARK    9  A    between atoms: C_27  and  C_29
REMARK                            x       y       z     vdW  Elec       q    Type
REMARK                         _______ _______ _______ _____ _____    ______ ____
ROOT
ATOM      1  C   UNL     1      -1.860   0.885   1.089  0.00  0.00    -0.095 C 
ATOM      2  N   UNL     1      -0.545   1.512   0.897  0.00  0.00    +0.389 N 
ATOM      3  H   UNL     1      -0.691   2.602   0.873  0.00  0.00    -0.081 HD
ENDROOT
BRANCH   2   4
ATOM      4  C   UNL     1       0.050   1.107  -0.383  0.00  0.00    +0.019 C 
BRANCH   4   5
ATOM      5  C   UNL     1      -0.778   1.656  -1.517  0.00  0.00    +0.201 C 
ATOM      6  O   UNL     1      -1.766   2.318  -1.282  0.00  0.00    -0.278 OA
ATOM      7  N   UNL     1      -0.420   1.409  -2.793  0.00  0.00    -0.284 N 
ATOM      8  H   UNL     1       0.516   0.873  -3.008  0.00  0.00    +0.155 HD
BRANCH   7   9
ATOM      9  C   UNL     1      -1.240   1.837  -3.846  0.00  0.00    +0.077 A 
ATOM     10  C   UNL     1      -1.947   3.026  -3.738  0.00  0.00    +0.047 A 
ATOM     11  C   UNL     1      -2.756   3.446  -4.778  0.00  0.00    +0.043 A 
ATOM     12  C   UNL     1      -2.862   2.682  -5.927  0.00  0.00    +0.024 A 
ATOM     13  C   UNL     1      -2.160   1.496  -6.041  0.00  0.00    +0.049 A 
ATOM     14  C   UNL     1      -1.343   1.072  -5.005  0.00  0.00    +0.141 A 
ATOM     15 CL   UNL     1      -3.640   4.933  -4.642  0.00  0.00    -0.083 Cl
BRANCH  14  16
ATOM     16  O   UNL     1      -0.648  -0.091  -5.118  0.00  0.00    -0.493 OA
ATOM     17  C   UNL     1      -0.802  -0.823  -6.336  0.00  0.00    +0.277 C 
ENDBRANCH  14  16
ENDBRANCH   7   9
ENDBRANCH   4   5
ENDBRANCH   2   4
BRANCH   2  18
ATOM     18  C   UNL     1       0.354   1.203   2.017  0.00  0.00    +0.019 C 
BRANCH  18  19
ATOM     19  C   UNL     1      -0.170   1.846   3.275  0.00  0.00    +0.200 C 
ATOM     20  O   UNL     1      -1.192   2.498   3.242  0.00  0.00    -0.278 OA
ATOM     21  N   UNL     1       0.497   1.696   4.437  0.00  0.00    -0.291 N 
ATOM     22  C   UNL     1       1.780   0.979   4.473  0.00  0.00    +0.114 C 
ATOM     23  C   UNL     1       2.877   1.984   4.877  0.00  0.00    +0.062 C 
ATOM     24  C   UNL     1       2.364   2.827   5.999  0.00  0.00    -0.003 A 
ATOM     25  C   UNL     1       1.075   2.985   6.404  0.00  0.00    -0.012 A 
ATOM     26  C   UNL     1       0.858   3.841   7.483  0.00  0.00    +0.013 A 
ATOM     27  C   UNL     1       1.904   4.463   8.073  0.00  0.00    +0.046 A 
ATOM     28  S   UNL     1       3.283   3.858   7.111  0.00  0.00    -0.101 S 
ATOM     29  C   UNL     1      -0.051   2.242   5.686  0.00  0.00    +0.144 C 
BRANCH  29  30
ATOM     30  C   UNL     1      -1.176   3.195   5.376  0.00  0.00    +0.015 A 
ATOM     31  C   UNL     1      -2.493   3.089   5.682  0.00  0.00    +0.013 A 
ATOM     32  C   UNL     1      -3.354   4.097   5.293  0.00  0.00    +0.008 A 
ATOM     33  C   UNL     1      -2.857   5.162   4.617  0.00  0.00    +0.045 A 
ATOM     34  S   UNL     1      -1.121   4.760   4.519  0.00  0.00    -0.099 S 
ENDBRANCH  29  30
ENDBRANCH  18  19
ENDBRANCH   2  18
TORSDOF 7
