REMARK  Name = ZINC21351913
REMARK  7 active torsions:
REMARK  status: ('A' for Active; 'I' for Inactive)
REMARK    1  A    between atoms: C_1  and  C_2
REMARK    2  A    between atoms: C_5  and  C_8
REMARK    3  A    between atoms: C_8  and  C_10
REMARK    4  A    between atoms: C_8  and  N_29
REMARK    5  A    between atoms: C_10  and  N_11
REMARK    6  A    between atoms: C_12  and  C_14
REMARK    7  A    between atoms: C_16  and  C_19
REMARK                            x       y       z     vdW  Elec       q    Type
REMARK                         _______ _______ _______ _____ _____    ______ ____
ROOT
ATOM      1  N   UNL     1      -7.958  -2.690  -0.754  0.00  0.00    -0.311 N 
ATOM      2  C   UNL     1      -7.307  -1.722  -1.429  0.00  0.00    +0.266 C 
ATOM      3  O   UNL     1      -7.933  -0.907  -2.077  0.00  0.00    -0.268 OA
ATOM      4  H   UNL     1      -7.391  -3.428  -0.168  0.00  0.00    +0.149 HD
ENDROOT
BRANCH   2   5
ATOM      5  C   UNL     1      -5.826  -1.652  -1.381  0.00  0.00    +0.168 A 
ATOM      6  C   UNL     1      -4.998  -0.699  -2.028  0.00  0.00    +0.086 A 
ATOM      7  C   UNL     1      -3.731  -1.071  -1.672  0.00  0.00    +0.168 A 
ATOM      8  O   UNL     1      -3.862  -2.149  -0.879  0.00  0.00    -0.354 OA
ATOM      9  N   UNL     1      -5.021  -2.456  -0.729  0.00  0.00    -0.073 NA
BRANCH   7  10
ATOM     10  C   UNL     1      -2.469  -0.415  -2.073  0.00  0.00    +0.024 A 
ATOM     11  C   UNL     1      -2.496   0.704  -2.907  0.00  0.00    +0.015 A 
ATOM     12  C   UNL     1      -1.317   1.310  -3.284  0.00  0.00    +0.050 A 
ATOM     13  C   UNL     1      -0.100   0.817  -2.832  0.00  0.00    +0.162 A 
ATOM     14  C   UNL     1      -0.066  -0.297  -1.999  0.00  0.00    +0.163 A 
ATOM     15  C   UNL     1      -1.246  -0.913  -1.620  0.00  0.00    +0.061 A 
ATOM     16  O   UNL     1       1.118  -0.793  -1.546  0.00  0.00    -0.485 OA
ATOM     17  C   UNL     1       2.297  -0.380  -2.246  0.00  0.00    +0.270 C 
ATOM     18  C   UNL     1       2.225   1.139  -2.453  0.00  0.00    +0.270 C 
ATOM     19  O   UNL     1       1.051   1.431  -3.218  0.00  0.00    -0.485 OA
ENDBRANCH   7  10
ENDBRANCH   2   5
BRANCH   1  20
ATOM     20  C   UNL     1      -9.420  -2.760  -0.802  0.00  0.00    +0.094 C 
BRANCH  20  21
ATOM     21  C   UNL     1      -9.894  -4.033  -0.098  0.00  0.00    -0.020 C 
BRANCH  21  22
ATOM     22  N   UNL     1      -9.356  -5.208  -0.796  0.00  0.00    +0.385 N 
ATOM     23  C   UNL     1     -10.390  -6.256  -0.944  0.00  0.00    -0.078 C 
ATOM     24  C   UNL     1      -9.825  -7.572  -1.404  0.00  0.00    -0.019 C 
ATOM     25  C   UNL     1      -9.524  -8.437  -0.161  0.00  0.00    -0.002 C 
ATOM     26  C   UNL     1      -8.284  -8.043   0.497  0.00  0.00    -0.002 C 
ATOM     27  C   UNL     1      -8.329  -6.585   1.002  0.00  0.00    -0.019 C 
ATOM     28  C   UNL     1      -8.097  -5.668  -0.168  0.00  0.00    -0.078 C 
ATOM     29  H   UNL     1      -9.083  -4.918  -1.821  0.00  0.00    -0.081 HD
ENDBRANCH  21  22
BRANCH  21  34
ATOM     30  C   UNL     1     -15.669  -4.233  -0.157  0.00  0.00    +0.044 C 
ATOM     31  C   UNL     1     -14.163  -4.181  -0.142  0.00  0.00    -0.050 A 
ATOM     32  C   UNL     1     -13.482  -4.219   1.061  0.00  0.00    +0.003 A 
ATOM     33  C   UNL     1     -12.101  -4.171   1.075  0.00  0.00    +0.002 A 
ATOM     34  C   UNL     1     -11.400  -4.085  -0.113  0.00  0.00    -0.059 A 
ATOM     35  C   UNL     1     -12.081  -4.041  -1.315  0.00  0.00    +0.002 A 
ATOM     36  C   UNL     1     -13.462  -4.094  -1.330  0.00  0.00    +0.003 A 
ENDBRANCH  21  34
ENDBRANCH  20  21
ENDBRANCH   1  20
TORSDOF 6
