REMARK  Name = ZINC39205116
REMARK  3 active torsions:
REMARK  status: ('A' for Active; 'I' for Inactive)
REMARK    1  A    between atoms: C_1  and  C_2
REMARK    2  A    between atoms: N_16  and  N_17
REMARK    3  A    between atoms: C_18  and  C_19
REMARK                            x       y       z     vdW  Elec       q    Type
REMARK                         _______ _______ _______ _____ _____    ______ ____
ROOT
ATOM      1  C   UNL     1      -1.992  -0.643   0.768  0.00  0.00    +0.046 C 
ATOM      2  C   UNL     1      -2.224  -1.944   1.493  0.00  0.00    -0.027 A 
ATOM      3  C   UNL     1      -2.777  -2.996   0.849  0.00  0.00    +0.005 A 
ATOM      4  C   UNL     1      -3.007  -4.218   1.496  0.00  0.00    +0.001 A 
ATOM      5  C   UNL     1      -2.665  -4.431   2.788  0.00  0.00    +0.012 A 
ATOM      6  C   UNL     1      -2.052  -3.409   3.546  0.00  0.00    +0.025 A 
ATOM      7  C   UNL     1      -1.496  -3.353   4.799  0.00  0.00    +0.115 C 
ATOM      8  C   UNL     1      -1.253  -1.873   5.067  0.00  0.00    +0.253 C 
ATOM      9  N   UNL     1      -1.339  -1.231   3.762  0.00  0.00    -0.358 N 
ATOM     10  C   UNL     1      -1.846  -2.084   2.905  0.00  0.00    +0.049 A 
ATOM     11  N   UNL     1       0.067  -1.786   5.695  0.00  0.00    -0.220 NA
ATOM     12  C   UNL     1       0.495  -2.818   6.380  0.00  0.00    +0.227 C 
ATOM     13  N   UNL     1      -0.188  -3.982   6.494  0.00  0.00    -0.247 N 
ATOM     14  N   UNL     1      -1.163  -4.280   5.699  0.00  0.00    -0.171 NA
ATOM     15  N   UNL     1       1.712  -2.713   7.021  0.00  0.00    -0.206 N 
ATOM     16  H   UNL     1       2.014  -3.424   7.608  0.00  0.00    +0.177 HD
ATOM     17  H   UNL     1       0.068  -4.612   7.185  0.00  0.00    +0.192 HD
ATOM     18  H   UNL     1      -1.063  -0.324   3.560  0.00  0.00    +0.162 HD
ENDROOT
BRANCH  15  19
ATOM     19  N   UNL     1       2.512  -1.579   6.825  0.00  0.00    -0.188 NA
ATOM     20  C   UNL     1       3.712  -1.538   7.319  0.00  0.00    +0.139 C 
BRANCH  20  21
ATOM     21  C   UNL     1       4.425  -2.791   7.630  0.00  0.00    +0.017 A 
ATOM     22  C   UNL     1       4.037  -3.987   7.021  0.00  0.00    +0.060 A 
ATOM     23  C   UNL     1       4.707  -5.159   7.315  0.00  0.00    +0.167 A 
ATOM     24  C   UNL     1       5.769  -5.147   8.220  0.00  0.00    +0.168 A 
ATOM     25  C   UNL     1       6.155  -3.960   8.824  0.00  0.00    +0.070 A 
ATOM     26  C   UNL     1       5.494  -2.784   8.531  0.00  0.00    +0.053 A 
ATOM     27 CL   UNL     1       5.985  -1.300   9.285  0.00  0.00    -0.083 Cl
ATOM     28  O   UNL     1       6.256  -6.417   8.335  0.00  0.00    -0.453 OA
ATOM     29  C   UNL     1       5.225  -7.274   7.811  0.00  0.00    +0.466 C 
ATOM     30  O   UNL     1       4.531  -6.437   6.867  0.00  0.00    -0.453 OA
ENDBRANCH  20  21
ENDBRANCH  15  19
TORSDOF 2
