REMARK  Name = ZINC11978243
REMARK  8 active torsions:
REMARK  status: ('A' for Active; 'I' for Inactive)
REMARK    1  A    between atoms: C_1  and  C_2
REMARK    2  A    between atoms: C_2  and  C_3
REMARK    3  A    between atoms: C_2  and  C_4
REMARK    4  A    between atoms: C_4  and  C_6
REMARK    5  A    between atoms: C_4  and  N_29
REMARK    6  A    between atoms: C_15  and  C_16
REMARK    7  A    between atoms: C_15  and  N_67
REMARK    8  A    between atoms: C_30  and  C_32
REMARK                            x       y       z     vdW  Elec       q    Type
REMARK                         _______ _______ _______ _____ _____    ______ ____
ROOT
ATOM      1  C   UNL     1       1.396   1.982  -0.001  0.00  0.00    +0.154 A 
ATOM      2  N   UNL     1       2.388   1.553   0.735  0.00  0.00    -0.132 NA
ATOM      3  N   UNL     1       3.455   2.218   0.457  0.00  0.00    -0.134 NA
ATOM      4  C   UNL     1       3.191   3.100  -0.462  0.00  0.00    +0.132 A 
ATOM      5  N   UNL     1       1.875   2.985  -0.768  0.00  0.00    -0.315 N 
ATOM      6  C   UNL     1       1.140   3.807  -1.729  0.00  0.00    +0.106 C 
ATOM      7  C   UNL     1       2.107   4.308  -2.806  0.00  0.00    -0.056 C 
ATOM      8  C   UNL     1       3.481   5.454  -1.156  0.00  0.00    -0.071 C 
ATOM      9  C   UNL     1       4.143   4.073  -1.107  0.00  0.00    +0.058 C 
ATOM     10  N   UNL     1       2.720   5.599  -2.416  0.00  0.00    +0.384 N 
ATOM     11  H   UNL     1       3.363   5.896  -3.158  0.00  0.00    -0.081 HD
ENDROOT
BRANCH   1  12
ATOM     12  C   UNL     1      -0.018   1.461   0.010  0.00  0.00    +0.144 C 
BRANCH  12  13
ATOM     13  N   UNL     1       0.002  -0.004   0.002  0.00  0.00    -0.301 N 
ATOM     14  C   UNL     1      -1.051  -0.690  -0.485  0.00  0.00    +0.248 C 
ATOM     15  O   UNL     1      -2.018  -0.092  -0.918  0.00  0.00    -0.270 OA
ATOM     16  H   UNL     1       0.773  -0.481   0.347  0.00  0.00    +0.150 HD
BRANCH  14  17
ATOM     17  C   UNL     1      -1.031  -2.163  -0.493  0.00  0.00    +0.074 A 
ATOM     18  C   UNL     1      -2.088  -3.064  -0.977  0.00  0.00    +0.054 A 
ATOM     19  C   UNL     1      -1.626  -4.309  -0.787  0.00  0.00    +0.195 A 
ATOM     20  O   UNL     1      -0.406  -4.246  -0.232  0.00  0.00    -0.470 OA
ATOM     21  C   UNL     1      -0.031  -2.977  -0.047  0.00  0.00    +0.207 A 
ENDBRANCH  14  17
ENDBRANCH  12  13
BRANCH  12  23
ATOM     22  C   UNL     1      -2.169   1.425   1.280  0.00  0.00    +0.009 C 
ATOM     23  C   UNL     1      -0.734   1.954   1.269  0.00  0.00    +0.011 C 
ATOM     24  C   UNL     1       0.006   1.447   2.508  0.00  0.00    +0.009 C 
ENDBRANCH  12  23
ENDBRANCH   1  12
BRANCH  10  25
ATOM     25  C   UNL     1       1.672   6.623  -2.253  0.00  0.00    -0.043 C 
BRANCH  25  26
ATOM     26  C   UNL     1       2.335   7.968  -2.107  0.00  0.00    -0.064 A 
ATOM     27  C   UNL     1       2.650   8.450  -0.848  0.00  0.00    +0.002 A 
ATOM     28  C   UNL     1       3.261   9.678  -0.707  0.00  0.00    +0.009 A 
ATOM     29  C   UNL     1       3.554  10.445  -1.836  0.00  0.00    -0.014 A 
ATOM     30  C   UNL     1       3.228   9.955  -3.097  0.00  0.00    -0.035 A 
ATOM     31  C   UNL     1       2.622   8.723  -3.230  0.00  0.00    +0.006 A 
ATOM     32  C   UNL     1       3.657  10.987  -4.111  0.00  0.00    +0.071 C 
ATOM     33  C   UNL     1       4.262  12.122  -3.321  0.00  0.00    -0.035 A 
ATOM     34  C   UNL     1       4.190  11.779  -1.973  0.00  0.00    -0.014 A 
ATOM     35  C   UNL     1       4.685  12.665  -1.014  0.00  0.00    +0.009 A 
ATOM     36  C   UNL     1       5.239  13.866  -1.407  0.00  0.00    +0.001 A 
ATOM     37  C   UNL     1       5.306  14.197  -2.748  0.00  0.00    +0.000 A 
ATOM     38  C   UNL     1       4.817  13.324  -3.704  0.00  0.00    +0.004 A 
ENDBRANCH  25  26
ENDBRANCH  10  25
TORSDOF 6
