REMARK  Name = ZINC21918991
REMARK  7 active torsions:
REMARK  status: ('A' for Active; 'I' for Inactive)
REMARK    1  A    between atoms: C_1  and  C_2
REMARK    2  A    between atoms: C_2  and  C_3
REMARK    3  A    between atoms: N_16  and  C_19
REMARK    4  A    between atoms: N_24  and  C_25
REMARK    5  A    between atoms: C_30  and  O_31
REMARK    6  A    between atoms: O_31  and  C_32
REMARK    7  A    between atoms: C_32  and  C_33
REMARK                            x       y       z     vdW  Elec       q    Type
REMARK                         _______ _______ _______ _____ _____    ______ ____
ROOT
ATOM      1  C   UNL     1      -6.037  -0.789  -0.263  0.00  0.00    +0.125 C 
ATOM      2  C   UNL     1      -7.111  -0.132   0.552  0.00  0.00    +0.045 A 
ATOM      3  C   UNL     1      -7.701  -0.551   1.681  0.00  0.00    +0.025 A 
ATOM      4  C   UNL     1      -8.688   0.400   2.021  0.00  0.00    +0.020 A 
ATOM      5  C   UNL     1      -8.650   1.377   1.087  0.00  0.00    +0.092 A 
ATOM      6  N   UNL     1      -7.670   1.076   0.205  0.00  0.00    -0.312 N 
ATOM      7  C   UNL     1      -7.161   1.779  -0.880  0.00  0.00    +0.090 A 
ATOM      8  C   UNL     1      -5.832   1.950  -1.122  0.00  0.00    +0.004 A 
ATOM      9  C   UNL     1      -5.487   2.661  -2.287  0.00  0.00    -0.034 A 
ATOM     10  C   UNL     1      -6.498   3.147  -3.056  0.00  0.00    -0.021 A 
ATOM     11  S   UNL     1      -7.965   2.621  -2.209  0.00  0.00    -0.077 S 
ATOM     12  C   UNL     1      -6.368   3.937  -4.316  0.00  0.00    -0.036 C 
ATOM     13  N   UNL     1      -4.973   4.408  -4.420  0.00  0.00    +0.381 N 
ATOM     14  C   UNL     1      -4.034   3.303  -4.186  0.00  0.00    -0.074 C 
ATOM     15  C   UNL     1      -4.040   2.907  -2.707  0.00  0.00    +0.018 C 
ATOM     16  C   UNL     1      -4.727   5.041  -5.723  0.00  0.00    -0.096 C 
ATOM     17  C   UNL     1      -4.807   1.405  -0.147  0.00  0.00    +0.148 C 
ATOM     18  N   UNL     1      -4.746  -0.068  -0.157  0.00  0.00    -0.272 N 
ATOM     19  C   UNL     1      -3.573  -0.727  -0.070  0.00  0.00    +0.307 C 
ATOM     20  O   UNL     1      -3.557  -1.942  -0.076  0.00  0.00    -0.252 OA
ATOM     21  N   UNL     1      -2.419  -0.038   0.024  0.00  0.00    -0.266 N 
ATOM     22  H   UNL     1      -2.438   1.059   0.104  0.00  0.00    +0.156 HD
ATOM     23  H   UNL     1      -4.804   5.169  -3.644  0.00  0.00    -0.082 HD
ENDROOT
BRANCH  21  24
ATOM     24  C   UNL     1      -1.194  -0.719   0.021  0.00  0.00    +0.077 A 
ATOM     25  C   UNL     1      -1.091  -1.968   0.615  0.00  0.00    +0.027 A 
ATOM     26  C   UNL     1       0.117  -2.639   0.610  0.00  0.00    +0.002 A 
ATOM     27  C   UNL     1       1.226  -2.067   0.012  0.00  0.00    +0.004 A 
ATOM     28  C   UNL     1       1.130  -0.825  -0.587  0.00  0.00    +0.047 A 
ATOM     29  C   UNL     1      -0.077  -0.144  -0.581  0.00  0.00    +0.142 A 
BRANCH  29  30
ATOM     30  O   UNL     1      -0.172   1.080  -1.165  0.00  0.00    -0.490 OA
BRANCH  30  31
ATOM     31  C   UNL     1       1.014   1.607  -1.763  0.00  0.00    +0.226 C 
ATOM     32  C   UNL     1       0.715   2.982  -2.365  0.00  0.00    +0.048 C 
ENDBRANCH  30  31
ENDBRANCH  29  30
ENDBRANCH  21  24
BRANCH   1  34
ATOM     33  C   UNL     1      -5.473  -1.648  -2.540  0.00  0.00    +0.006 C 
ATOM     34  C   UNL     1      -6.473  -0.821  -1.729  0.00  0.00    +0.025 C 
ENDBRANCH   1  34
TORSDOF 4
