REMARK  Name = ZINC09665549
REMARK  9 active torsions:
REMARK  status: ('A' for Active; 'I' for Inactive)
REMARK    1  A    between atoms: C_1  and  C_2
REMARK    2  A    between atoms: C_3  and  C_35
REMARK    3  A    between atoms: N_4  and  C_28
REMARK    4  A    between atoms: C_5  and  N_9
REMARK    5  A    between atoms: C_6  and  C_7
REMARK    6  A    between atoms: C_10  and  C_12
REMARK    7  A    between atoms: C_12  and  N_64
REMARK    8  A    between atoms: C_20  and  C_22
REMARK    9  A    between atoms: C_28  and  C_29
REMARK                            x       y       z     vdW  Elec       q    Type
REMARK                         _______ _______ _______ _____ _____    ______ ____
ROOT
ATOM      1  N   UNL     1       2.875   4.973   1.512  0.00  0.00    -0.272 N 
ATOM      2  C   UNL     1       3.680   4.299   0.666  0.00  0.00    +0.202 C 
ATOM      3  O   UNL     1       3.272   3.974  -0.429  0.00  0.00    -0.278 OA
ATOM      4  H   UNL     1       3.225   5.306   2.353  0.00  0.00    +0.156 HD
ENDROOT
BRANCH   1   9
ATOM      5  C   UNL     1      -1.773   4.509  -0.418  0.00  0.00    +0.047 C 
ATOM      6  C   UNL     1      -0.561   5.011   0.324  0.00  0.00    -0.011 A 
ATOM      7  C   UNL     1      -0.479   6.131   1.061  0.00  0.00    +0.022 A 
ATOM      8  N   UNL     1       0.786   6.245   1.572  0.00  0.00    -0.329 N 
ATOM      9  C   UNL     1       1.546   5.190   1.179  0.00  0.00    +0.123 A 
ATOM     10  C   UNL     1       0.757   4.368   0.387  0.00  0.00    +0.095 A 
ATOM     11  C   UNL     1      -1.602   7.110   1.287  0.00  0.00    +0.064 C 
BRANCH  10  12
ATOM     12  C   UNL     1       1.149   3.143  -0.242  0.00  0.00    +0.103 C 
ATOM     13  N   UNL     1       1.461   2.170  -0.740  0.00  0.00    -0.191 NA
ENDBRANCH  10  12
BRANCH   8  14
ATOM     14  C   UNL     1       1.251   7.343   2.423  0.00  0.00    +0.154 C 
BRANCH  14  15
ATOM     15  C   UNL     1       1.943   8.400   1.560  0.00  0.00    +0.138 C 
ATOM     16  C   UNL     1       2.458   9.569   2.437  0.00  0.00    +0.035 C 
ATOM     17  C   UNL     1       2.512  10.737   1.422  0.00  0.00    +0.031 C 
ATOM     18  C   UNL     1       1.559  10.299   0.292  0.00  0.00    +0.160 C 
ATOM     19  O   UNL     1       0.995   9.034   0.675  0.00  0.00    -0.375 OA
ENDBRANCH  14  15
ENDBRANCH   8  14
ENDBRANCH   1   9
BRANCH   2  20
ATOM     20  C   UNL     1       5.086   3.950   1.081  0.00  0.00    +0.020 C 
BRANCH  20  29
ATOM     21  C   UNL     1       4.929   1.885  -0.174  0.00  0.00    -0.072 C 
ATOM     22  C   UNL     1       5.805   0.872  -0.932  0.00  0.00    +0.024 C 
ATOM     23  C   UNL     1       6.458   1.594  -2.065  0.00  0.00    -0.010 A 
ATOM     24  C   UNL     1       6.533   2.944  -2.234  0.00  0.00    -0.047 A 
ATOM     25  C   UNL     1       7.193   3.393  -3.376  0.00  0.00    +0.010 A 
ATOM     26  C   UNL     1       7.720   2.501  -4.247  0.00  0.00    +0.045 A 
ATOM     27  S   UNL     1       7.300   0.943  -3.479  0.00  0.00    -0.101 S 
ATOM     28  C   UNL     1       5.908   3.869  -1.194  0.00  0.00    -0.005 C 
ATOM     29  N   UNL     1       5.739   3.104   0.063  0.00  0.00    +0.393 N 
ATOM     30  H   UNL     1       6.665   2.824   0.407  0.00  0.00    -0.080 HD
BRANCH  28  31
ATOM     31  C   UNL     1       6.830   5.033  -0.933  0.00  0.00    -0.057 A 
ATOM     32  C   UNL     1       7.922   4.876  -0.101  0.00  0.00    +0.002 A 
ATOM     33  C   UNL     1       8.770   5.942   0.134  0.00  0.00    +0.000 A 
ATOM     34  C   UNL     1       8.520   7.167  -0.455  0.00  0.00    +0.000 A 
ATOM     35  C   UNL     1       7.425   7.325  -1.283  0.00  0.00    +0.000 A 
ATOM     36  C   UNL     1       6.580   6.258  -1.522  0.00  0.00    +0.002 A 
ENDBRANCH  28  31
ENDBRANCH  20  29
ENDBRANCH   2  20
TORSDOF 7
