REMARK  Name = ZINC34969594
REMARK  12 active torsions:
REMARK  status: ('A' for Active; 'I' for Inactive)
REMARK    1  A    between atoms: C_1  and  C_2
REMARK    2  A    between atoms: C_2  and  C_3
REMARK    3  A    between atoms: C_3  and  C_5
REMARK    4  A    between atoms: C_3  and  C_6
REMARK    5  A    between atoms: C_6  and  C_8
REMARK    6  A    between atoms: C_6  and  N_22
REMARK    7  A    between atoms: C_14  and  C_17
REMARK    8  A    between atoms: C_17  and  O_19
REMARK    9  A    between atoms: O_19  and  C_20
REMARK   10  A    between atoms: C_20  and  C_21
REMARK   11  A    between atoms: C_23  and  C_25
REMARK   12  A    between atoms: C_28  and  N_32
REMARK                            x       y       z     vdW  Elec       q    Type
REMARK                         _______ _______ _______ _____ _____    ______ ____
ROOT
ATOM      1  C   UNL     1       2.033   0.040  -1.232  0.00  0.00    +0.162 C 
ENDROOT
BRANCH   1   2
ATOM      2  C   UNL     1       2.021   1.527  -0.993  0.00  0.00    +0.236 C 
ATOM      3  O   UNL     1       2.214   2.291  -1.915  0.00  0.00    -0.274 OA
ATOM      4  N   UNL     1       1.796   2.009   0.246  0.00  0.00    -0.299 N 
ATOM      5  C   UNL     1       1.677   1.098   1.393  0.00  0.00    +0.108 C 
ATOM      6  C   UNL     1       2.663   1.542   2.479  0.00  0.00    +0.020 C 
ATOM      7  C   UNL     1       2.415   3.014   2.816  0.00  0.00    +0.018 C 
ATOM      8  C   UNL     1       2.650   3.871   1.571  0.00  0.00    +0.115 C 
ATOM      9  C   UNL     1       1.671   3.454   0.476  0.00  0.00    +0.122 C 
BRANCH   8  10
ATOM     10  C   UNL     1       2.438   5.324   1.913  0.00  0.00    +0.312 C 
ATOM     11  O   UNL     1       1.588   5.962   1.338  0.00  0.00    -0.250 OA
BRANCH  10  12
ATOM     12  O   UNL     1       3.193   5.908   2.856  0.00  0.00    -0.465 OA
BRANCH  12  13
ATOM     13  C   UNL     1       2.938   7.287   3.129  0.00  0.00    +0.229 C 
ATOM     14  C   UNL     1       3.889   7.776   4.223  0.00  0.00    +0.048 C 
ENDBRANCH  12  13
ENDBRANCH  10  12
ENDBRANCH   8  10
ENDBRANCH   1   2
BRANCH   1  15
ATOM     15  N   UNL     1       2.647  -0.241  -2.532  0.00  0.00    -0.300 N 
ATOM     16  C   UNL     1       3.224  -1.437  -2.761  0.00  0.00    +0.246 C 
ATOM     17  O   UNL     1       3.236  -2.283  -1.889  0.00  0.00    -0.270 OA
ATOM     18  H   UNL     1       2.638   0.434  -3.229  0.00  0.00    +0.150 HD
BRANCH  16  19
ATOM     19  C   UNL     1       3.844  -1.720  -4.073  0.00  0.00    +0.055 A 
ATOM     20  C   UNL     1       3.837  -0.748  -5.075  0.00  0.00    +0.017 A 
ATOM     21  C   UNL     1       4.417  -1.018  -6.297  0.00  0.00    +0.033 A 
ATOM     22  C   UNL     1       5.005  -2.250  -6.532  0.00  0.00    +0.128 A 
ATOM     23  C   UNL     1       5.015  -3.217  -5.544  0.00  0.00    +0.053 A 
ATOM     24  C   UNL     1       4.443  -2.959  -4.313  0.00  0.00    +0.055 A 
ATOM     25 CL   UNL     1       4.462  -4.172  -3.072  0.00  0.00    -0.083 Cl
BRANCH  22  26
ATOM     26  N   UNL     1       5.624  -2.532  -7.846  0.00  0.00    +0.056 N 
ATOM     27  O   UNL     1       5.617  -1.688  -8.711  0.00  0.00    -0.126 OA
ATOM     28  O   UNL     1       6.138  -3.606  -8.054  0.00  0.00    -0.126 OA
ENDBRANCH  22  26
ENDBRANCH  16  19
ENDBRANCH   1  15
BRANCH   1  29
ATOM     29  C   UNL     1       0.598  -0.491  -1.221  0.00  0.00    +0.015 C 
ATOM     30  C   UNL     1      -0.167   0.082  -2.416  0.00  0.00    +0.010 C 
BRANCH  29  32
ATOM     31  C   UNL     1       1.246  -2.597  -0.043  0.00  0.00    +0.004 C 
ATOM     32  C   UNL     1       0.618  -2.018  -1.312  0.00  0.00    +0.002 C 
ENDBRANCH  29  32
ENDBRANCH   1  29
TORSDOF 9
