REMARK  Name = ZINC34788950
REMARK  5 active torsions:
REMARK  status: ('A' for Active; 'I' for Inactive)
REMARK    1  A    between atoms: C_4  and  C_7
REMARK    2  A    between atoms: N_16  and  C_17
REMARK    3  A    between atoms: C_17  and  C_18
REMARK    4  A    between atoms: N_23  and  S_26
REMARK    5  A    between atoms: S_26  and  C_29
REMARK                            x       y       z     vdW  Elec       q    Type
REMARK                         _______ _______ _______ _____ _____    ______ ____
ROOT
ATOM      1  C   UNL     1       3.228  -2.633   3.116  0.00  0.00    +0.199 C 
ATOM      2  O   UNL     1       3.243  -3.749   2.642  0.00  0.00    -0.278 OA
ATOM      3  N   UNL     1       3.028  -2.464   4.438  0.00  0.00    -0.300 N 
ATOM      4  C   UNL     1       3.001  -1.117   5.025  0.00  0.00    +0.125 C 
ATOM      5  C   UNL     1       1.680  -0.939   5.783  0.00  0.00    +0.128 C 
ATOM      6  N   UNL     1       1.483  -2.099   6.663  0.00  0.00    -0.174 NA
ATOM      7  C   UNL     1       1.509  -3.446   6.076  0.00  0.00    +0.128 C 
ATOM      8  C   UNL     1       2.825  -3.624   5.318  0.00  0.00    +0.125 C 
ENDROOT
BRANCH   6   9
ATOM      9  S   UNL     1       1.236  -1.892   8.288  0.00  0.00    +0.061 S 
ATOM     10  O   UNL     1       1.635  -3.102   8.916  0.00  0.00    -0.153 OA
ATOM     11  O   UNL     1       1.803  -0.634   8.628  0.00  0.00    -0.153 OA
BRANCH   9  12
ATOM     12  C   UNL     1      -0.502  -1.744   8.536  0.00  0.00    +0.106 A 
ATOM     13  C   UNL     1      -1.103  -0.500   8.489  0.00  0.00    +0.030 A 
ATOM     14  C   UNL     1      -2.467  -0.384   8.684  0.00  0.00    +0.022 A 
ATOM     15  C   UNL     1      -3.229  -1.513   8.926  0.00  0.00    +0.041 A 
ATOM     16  C   UNL     1      -2.627  -2.757   8.973  0.00  0.00    +0.022 A 
ATOM     17  C   UNL     1      -1.264  -2.873   8.772  0.00  0.00    +0.030 A 
ATOM     18 CL   UNL     1      -4.942  -1.367   9.171  0.00  0.00    -0.084 Cl
ENDBRANCH   9  12
ENDBRANCH   6   9
BRANCH   1  19
ATOM     19  C   UNL     1       3.435  -1.434   2.227  0.00  0.00    +0.020 C 
BRANCH  19  28
ATOM     20  C   UNL     1       3.711  -0.707  -0.038  0.00  0.00    -0.005 C 
ATOM     21  C   UNL     1       4.017  -1.174  -1.457  0.00  0.00    -0.047 A 
ATOM     22  C   UNL     1       3.786  -0.408  -2.597  0.00  0.00    +0.010 A 
ATOM     23  C   UNL     1       4.087  -0.905  -3.819  0.00  0.00    +0.045 A 
ATOM     24  S   UNL     1       4.729  -2.522  -3.412  0.00  0.00    -0.101 S 
ATOM     25  C   UNL     1       4.550  -2.413  -1.655  0.00  0.00    -0.010 A 
ATOM     26  C   UNL     1       4.891  -3.411  -0.597  0.00  0.00    +0.024 C 
ATOM     27  C   UNL     1       4.860  -2.681   0.756  0.00  0.00    -0.072 C 
ATOM     28  N   UNL     1       3.631  -1.880   0.841  0.00  0.00    +0.393 N 
ATOM     29  H   UNL     1       2.846  -2.450   0.562  0.00  0.00    -0.080 HD
BRANCH  20  33
ATOM     30  C   UNL     1      -0.017   1.378   0.010  0.00  0.00    +0.000 A 
ATOM     31  C   UNL     1       1.171   2.086   0.002  0.00  0.00    +0.000 A 
ATOM     32  C   UNL     1       2.377   1.411  -0.013  0.00  0.00    +0.002 A 
ATOM     33  C   UNL     1       2.396   0.029  -0.020  0.00  0.00    -0.057 A 
ATOM     34  C   UNL     1       1.208  -0.679  -0.012  0.00  0.00    +0.002 A 
ATOM     35  C   UNL     1       0.002  -0.004   0.002  0.00  0.00    +0.000 A 
ENDBRANCH  20  33
ENDBRANCH  19  28
ENDBRANCH   1  19
TORSDOF 5
