REMARK  Name = ZINC33051461
REMARK  6 active torsions:
REMARK  status: ('A' for Active; 'I' for Inactive)
REMARK    1  A    between atoms: C_1  and  C_2
REMARK    2  A    between atoms: C_2  and  C_3
REMARK    3  A    between atoms: N_6  and  C_8
REMARK    4  A    between atoms: C_19  and  C_34
REMARK    5  A    between atoms: N_25  and  C_26
REMARK    6  A    between atoms: C_26  and  C_27
REMARK                            x       y       z     vdW  Elec       q    Type
REMARK                         _______ _______ _______ _____ _____    ______ ____
ROOT
ATOM      1  C   UNL     1       0.750  -0.342  -3.420  0.00  0.00    +0.070 A 
ATOM      2  C   UNL     1       1.152   0.047  -2.146  0.00  0.00    +0.036 A 
ATOM      3  C   UNL     1       1.773   1.257  -2.262  0.00  0.00    +0.146 A 
ATOM      4  N   UNL     1       1.807   1.588  -3.566  0.00  0.00    -0.215 N 
ATOM      5  N   UNL     1       1.138   0.576  -4.274  0.00  0.00    -0.169 NA
ATOM      6  N   UNL     1       2.191   1.954  -1.123  0.00  0.00    -0.303 N 
ATOM      7  C   UNL     1       3.351   2.603  -0.865  0.00  0.00    +0.093 A 
ATOM      8  C   UNL     1       3.312   3.028   0.419  0.00  0.00    +0.020 A 
ATOM      9  C   UNL     1       2.063   2.646   0.956  0.00  0.00    +0.025 A 
ATOM     10  C   UNL     1       1.380   2.023  -0.017  0.00  0.00    +0.050 A 
ATOM     11  C   UNL     1      -0.018   1.477   0.010  0.00  0.00    +0.155 C 
ATOM     12  N   UNL     1      -0.026  -0.004   0.019  0.00  0.00    -0.269 N 
ATOM     13  C   UNL     1       0.983  -0.669  -0.838  0.00  0.00    +0.151 C 
ATOM     14  C   UNL     1      -0.902  -0.707   0.765  0.00  0.00    +0.304 C 
ATOM     15  O   UNL     1      -1.716  -0.126   1.456  0.00  0.00    -0.253 OA
ATOM     16  N   UNL     1      -0.876  -2.054   0.744  0.00  0.00    -0.295 N 
ATOM     17  H   UNL     1      -0.139  -2.580   0.119  0.00  0.00    +0.151 HD
ENDROOT
BRANCH   4  18
ATOM     18  C   UNL     1       2.401   2.732  -4.117  0.00  0.00    +0.068 A 
ATOM     19  C   UNL     1       2.372   3.934  -3.422  0.00  0.00    +0.028 A 
ATOM     20  C   UNL     1       2.963   5.058  -3.965  0.00  0.00    +0.002 A 
ATOM     21  C   UNL     1       3.573   4.990  -5.204  0.00  0.00    +0.000 A 
ATOM     22  C   UNL     1       3.598   3.796  -5.901  0.00  0.00    +0.002 A 
ATOM     23  C   UNL     1       3.014   2.667  -5.361  0.00  0.00    +0.028 A 
ENDBRANCH   4  18
BRANCH  11  24
ATOM     24  C   UNL     1      -0.760   1.966  -1.207  0.00  0.00    -0.021 A 
ATOM     25  C   UNL     1      -0.431   3.182  -1.776  0.00  0.00    +0.006 A 
ATOM     26  C   UNL     1      -1.109   3.628  -2.895  0.00  0.00    +0.000 A 
ATOM     27  C   UNL     1      -2.123   2.862  -3.439  0.00  0.00    +0.000 A 
ATOM     28  C   UNL     1      -2.456   1.649  -2.868  0.00  0.00    +0.000 A 
ATOM     29  C   UNL     1      -1.775   1.201  -1.751  0.00  0.00    +0.006 A 
ENDBRANCH  11  24
BRANCH   1  31
ATOM     30  C   UNL     1      -1.507  -1.332  -3.694  0.00  0.00    +0.010 C 
ATOM     31  C   UNL     1      -0.002  -1.602  -3.760  0.00  0.00    +0.054 C 
ENDBRANCH   1  31
BRANCH  16  32
ATOM     32  C   UNL     1      -1.827  -2.818   1.554  0.00  0.00    +0.141 C 
BRANCH  32  33
ATOM     33  C   UNL     1      -1.588  -4.293   1.353  0.00  0.00    -0.030 A 
ATOM     34  C   UNL     1      -2.259  -4.971   0.352  0.00  0.00    +0.008 A 
ATOM     35  C   UNL     1      -2.037  -6.322   0.164  0.00  0.00    +0.038 A 
ATOM     36  C   UNL     1      -1.151  -6.998   0.985  0.00  0.00    +0.123 A 
ATOM     37  C   UNL     1      -0.484  -6.319   1.990  0.00  0.00    +0.038 A 
ATOM     38  C   UNL     1      -0.703  -4.967   2.173  0.00  0.00    +0.008 A 
ATOM     39  F   UNL     1      -0.936  -8.320   0.804  0.00  0.00    -0.205 F 
ENDBRANCH  32  33
ENDBRANCH  16  32
TORSDOF 5
