REMARK  Name = ZINC14986882
REMARK  9 active torsions:
REMARK  status: ('A' for Active; 'I' for Inactive)
REMARK    1  A    between atoms: C_1  and  C_2
REMARK    2  A    between atoms: C_5  and  C_9
REMARK    3  A    between atoms: C_6  and  C_8
REMARK    4  A    between atoms: C_9  and  N_10
REMARK    5  A    between atoms: C_13  and  C_16
REMARK    6  A    between atoms: C_13  and  O_37
REMARK    7  A    between atoms: C_23  and  C_25
REMARK    8  A    between atoms: C_29  and  C_36
REMARK    9  A    between atoms: C_32  and  C_35
REMARK                            x       y       z     vdW  Elec       q    Type
REMARK                         _______ _______ _______ _____ _____    ______ ____
ROOT
ATOM      1  C   UNL     1      -4.491  -6.757   2.275  0.00  0.00    -0.015 A 
ATOM      2  C   UNL     1      -5.562  -5.997   1.823  0.00  0.00    +0.010 A 
ATOM      3  C   UNL     1      -6.859  -6.386   2.078  0.00  0.00    +0.047 A 
ATOM      4  C   UNL     1      -7.104  -7.551   2.796  0.00  0.00    +0.136 A 
ATOM      5  C   UNL     1      -6.015  -8.317   3.251  0.00  0.00    +0.021 A 
ATOM      6  C   UNL     1      -4.707  -7.908   2.977  0.00  0.00    +0.018 A 
ATOM      7  C   UNL     1      -6.600  -9.457   3.957  0.00  0.00    +0.063 A 
ATOM      8  C   UNL     1      -7.946  -9.298   3.878  0.00  0.00    +0.191 A 
ATOM      9  O   UNL     1      -8.232  -8.172   3.191  0.00  0.00    -0.450 OA
ENDROOT
BRANCH   8  10
ATOM     10  C   UNL     1      -8.941 -10.214   4.452  0.00  0.00    +0.282 C 
ATOM     11  O   UNL     1      -8.585 -11.269   4.943  0.00  0.00    -0.267 OA
ATOM     12  N   UNL     1     -10.249  -9.886   4.434  0.00  0.00    -0.290 N 
ATOM     13  C   UNL     1     -10.711  -8.653   3.778  0.00  0.00    +0.139 C 
ATOM     14  C   UNL     1     -11.608  -7.890   4.761  0.00  0.00    +0.133 C 
ATOM     15  O   UNL     1     -12.624  -8.769   5.250  0.00  0.00    -0.371 OA
ATOM     16  C   UNL     1     -12.125  -9.886   5.989  0.00  0.00    +0.133 C 
ATOM     17  C   UNL     1     -11.256 -10.754   5.065  0.00  0.00    +0.139 C 
ATOM     18  C   UNL     1     -13.298 -10.717   6.514  0.00  0.00    +0.039 C 
ATOM     19  C   UNL     1     -12.258  -6.705   4.044  0.00  0.00    +0.039 C 
ENDBRANCH   8  10
BRANCH   1  23
ATOM     20  N   UNL     1      -1.250  -4.917   0.224  0.00  0.00    +0.383 N 
ATOM     21  C   UNL     1      -1.618  -4.342   1.523  0.00  0.00    -0.075 C 
ATOM     22  C   UNL     1      -3.034  -4.783   1.898  0.00  0.00    +0.021 C 
ATOM     23  C   UNL     1      -3.082  -6.311   1.983  0.00  0.00    +0.088 C 
ATOM     24  C   UNL     1      -2.625  -6.901   0.645  0.00  0.00    +0.021 C 
ATOM     25  C   UNL     1      -1.224  -6.381   0.317  0.00  0.00    -0.075 C 
ATOM     26  H   UNL     1      -1.928  -4.637  -0.469  0.00  0.00    -0.081 HD
BRANCH  23  27
ATOM     27  O   UNL     1      -2.212  -6.759   3.024  0.00  0.00    -0.384 OA
ATOM     28  H   UNL     1      -2.192  -7.720   3.134  0.00  0.00    +0.211 HD
ENDBRANCH  23  27
BRANCH  20  29
ATOM     29  C   UNL     1       0.078  -4.428  -0.168  0.00  0.00    -0.043 C 
BRANCH  29  34
ATOM     30  C   UNL     1      -0.153   1.274  -1.075  0.00  0.00    +0.044 C 
ATOM     31  C   UNL     1      -0.093  -0.213  -0.839  0.00  0.00    -0.050 A 
ATOM     32  C   UNL     1       0.434  -0.704   0.341  0.00  0.00    +0.003 A 
ATOM     33  C   UNL     1       0.489  -2.068   0.558  0.00  0.00    +0.002 A 
ATOM     34  C   UNL     1       0.017  -2.941  -0.404  0.00  0.00    -0.061 A 
ATOM     35  C   UNL     1      -0.510  -2.450  -1.583  0.00  0.00    -0.049 A 
ATOM     36  C   UNL     1      -0.570  -1.085  -1.799  0.00  0.00    +0.007 A 
ATOM     37  C   UNL     1      -1.025  -3.401  -2.633  0.00  0.00    +0.044 C 
ENDBRANCH  29  34
ENDBRANCH  20  29
ENDBRANCH   1  23
TORSDOF 5
