REMARK  Name = ZINC35839716
REMARK  11 active torsions:
REMARK  status: ('A' for Active; 'I' for Inactive)
REMARK    1  A    between atoms: C_1  and  C_2
REMARK    2  A    between atoms: C_2  and  C_3
REMARK    3  A    between atoms: C_3  and  C_4
REMARK    4  A    between atoms: C_4  and  C_6
REMARK    5  A    between atoms: C_4  and  O_34
REMARK    6  A    between atoms: C_6  and  N_7
REMARK    7  A    between atoms: N_10  and  C_13
REMARK    8  A    between atoms: C_13  and  C_14
REMARK    9  A    between atoms: C_16  and  C_19
REMARK   10  A    between atoms: C_24  and  C_27
REMARK   11  A    between atoms: C_27  and  C_28
REMARK                            x       y       z     vdW  Elec       q    Type
REMARK                         _______ _______ _______ _____ _____    ______ ____
ROOT
ATOM      1  C   UNL     1      -4.953  -8.406  -1.139  0.00  0.00    +0.179 A 
ATOM      2  N   UNL     1      -5.651  -8.666  -2.204  0.00  0.00    -0.210 NA
ATOM      3  C   UNL     1      -6.748  -9.383  -1.837  0.00  0.00    +0.164 A 
ATOM      4  C   UNL     1      -6.684  -9.548  -0.487  0.00  0.00    +0.230 A 
ATOM      5  O   UNL     1      -5.562  -8.940  -0.071  0.00  0.00    -0.449 OA
ENDROOT
BRANCH   3   6
ATOM      6  C   UNL     1      -7.806  -9.885  -2.732  0.00  0.00    +0.268 C 
ATOM      7  O   UNL     1      -8.804 -10.400  -2.265  0.00  0.00    -0.268 OA
ATOM      8  N   UNL     1      -7.668  -9.773  -4.068  0.00  0.00    -0.296 N 
ATOM      9  C   UNL     1      -8.778 -10.117  -4.967  0.00  0.00    +0.108 C 
ATOM     10  C   UNL     1      -8.278 -11.131  -6.001  0.00  0.00    +0.023 C 
ATOM     11  C   UNL     1      -7.047 -10.564  -6.712  0.00  0.00    -0.004 C 
ATOM     12  C   UNL     1      -5.932 -10.325  -5.691  0.00  0.00    +0.023 C 
ATOM     13  C   UNL     1      -6.407  -9.297  -4.653  0.00  0.00    +0.108 C 
BRANCH  11  14
ATOM     14  C   UNL     1      -6.566 -11.559  -7.770  0.00  0.00    +0.038 C 
BRANCH  14  15
ATOM     15  C   UNL     1      -5.430 -10.950  -8.552  0.00  0.00    -0.047 A 
ATOM     16  C   UNL     1      -5.694 -10.212  -9.691  0.00  0.00    +0.003 A 
ATOM     17  C   UNL     1      -4.652  -9.654 -10.409  0.00  0.00    +0.000 A 
ATOM     18  C   UNL     1      -3.348  -9.833  -9.987  0.00  0.00    +0.000 A 
ATOM     19  C   UNL     1      -3.085 -10.570  -8.848  0.00  0.00    +0.000 A 
ATOM     20  C   UNL     1      -4.127 -11.125  -8.127  0.00  0.00    +0.003 A 
ENDBRANCH  14  15
ENDBRANCH  11  14
ENDBRANCH   3   6
BRANCH   1  21
ATOM     21  C   UNL     1      -3.660  -7.632  -1.111  0.00  0.00    +0.019 C 
BRANCH  21  25
ATOM     22  N   UNL     1      -3.633  -3.736   0.484  0.00  0.00    -0.303 NA
ATOM     23  C   UNL     1      -3.002  -3.948  -0.827  0.00  0.00    +0.066 C 
ATOM     24  C   UNL     1      -2.700  -5.437  -1.009  0.00  0.00    -0.063 C 
ATOM     25  N   UNL     1      -3.949  -6.205  -0.917  0.00  0.00    +0.387 N 
ATOM     26  C   UNL     1      -4.554  -6.002   0.405  0.00  0.00    -0.063 C 
ATOM     27  C   UNL     1      -4.872  -4.518   0.599  0.00  0.00    +0.066 C 
ATOM     28  H   UNL     1      -4.589  -5.892  -1.632  0.00  0.00    -0.081 HD
BRANCH  22  29
ATOM     29  C   UNL     1      -3.887  -2.308   0.721  0.00  0.00    +0.115 C 
BRANCH  29  30
ATOM     30  C   UNL     1      -2.555  -1.566   0.840  0.00  0.00    +0.128 C 
BRANCH  30  31
ATOM     31  O   UNL     1      -1.805  -2.104   1.931  0.00  0.00    -0.391 OA
ATOM     32  H   UNL     1      -2.250  -2.031   2.787  0.00  0.00    +0.210 HD
ENDBRANCH  30  31
BRANCH  30  33
ATOM     33  C   UNL     1      -2.820  -0.079   1.086  0.00  0.00    +0.032 C 
BRANCH  33  35
ATOM     34  C   UNL     1      -1.758   2.170   1.328  0.00  0.00    +0.004 C 
ATOM     35  C   UNL     1      -1.493   0.683   1.081  0.00  0.00    -0.001 C 
ENDBRANCH  33  35
ENDBRANCH  30  33
ENDBRANCH  29  30
ENDBRANCH  22  29
ENDBRANCH  21  25
ENDBRANCH   1  21
TORSDOF 10
