REMARK  Name = ZINC63372137
REMARK  7 active torsions:
REMARK  status: ('A' for Active; 'I' for Inactive)
REMARK    1  A    between atoms: C_1  and  C_2
REMARK    2  A    between atoms: C_2  and  C_3
REMARK    3  A    between atoms: C_2  and  C_4
REMARK    4  A    between atoms: C_4  and  C_5
REMARK    5  A    between atoms: C_5  and  N_6
REMARK    6  A    between atoms: C_12  and  C_28
REMARK    7  A    between atoms: C_24  and  C_27
REMARK                            x       y       z     vdW  Elec       q    Type
REMARK                         _______ _______ _______ _____ _____    ______ ____
ROOT
ATOM      1  N   UNL     1       0.667  -0.609   3.684  0.00  0.00    -0.291 N 
ATOM      2  C   UNL     1       0.356  -1.942   4.173  0.00  0.00    +0.203 C 
ATOM      3  C   UNL     1       1.136  -2.289   5.397  0.00  0.00    +0.234 C 
ATOM      4  O   UNL     1       0.950  -3.382   5.890  0.00  0.00    -0.274 OA
ATOM      5  N   UNL     1       2.026  -1.485   5.990  0.00  0.00    -0.283 N 
ATOM      6  C   UNL     1       2.685  -1.967   7.220  0.00  0.00    +0.121 C 
ATOM      7  C   UNL     1       4.209  -1.986   7.005  0.00  0.00    +0.065 C 
ATOM      8  C   UNL     1       4.574  -0.667   6.373  0.00  0.00    -0.027 C 
ATOM      9  C   UNL     1       5.478   0.248   6.701  0.00  0.00    -0.000 A 
ATOM     10  C   UNL     1       6.532   0.260   7.728  0.00  0.00    +0.010 A 
ATOM     11  C   UNL     1       7.281   1.392   7.805  0.00  0.00    +0.001 A 
ATOM     12  C   UNL     1       7.088   2.500   6.974  0.00  0.00    +0.002 A 
ATOM     13  C   UNL     1       6.149   2.572   5.997  0.00  0.00    +0.026 A 
ATOM     14  C   UNL     1       5.306   1.438   5.812  0.00  0.00    +0.043 A 
ATOM     15  N   UNL     1       4.356   1.228   4.950  0.00  0.00    -0.375 N 
ATOM     16  C   UNL     1       3.854  -0.133   5.139  0.00  0.00    +0.139 C 
ATOM     17  C   UNL     1       2.358  -0.159   5.468  0.00  0.00    +0.135 C 
ATOM     18  C   UNL     1       1.565   0.193   4.253  0.00  0.00    +0.242 C 
ATOM     19  O   UNL     1       1.748   1.283   3.753  0.00  0.00    -0.273 OA
ATOM     20  C   UNL     1       2.072   0.885   6.550  0.00  0.00    +0.044 C 
ATOM     21  H   UNL     1       4.034   1.865   4.293  0.00  0.00    +0.160 HD
ENDROOT
BRANCH   7  22
ATOM     22  C   UNL     1       4.914  -2.139   8.329  0.00  0.00    -0.039 A 
ATOM     23  C   UNL     1       4.731  -1.194   9.322  0.00  0.00    +0.005 A 
ATOM     24  C   UNL     1       5.377  -1.333  10.536  0.00  0.00    +0.015 A 
ATOM     25  C   UNL     1       6.206  -2.418  10.757  0.00  0.00    +0.018 A 
ATOM     26  C   UNL     1       6.388  -3.363   9.763  0.00  0.00    +0.015 A 
ATOM     27  C   UNL     1       5.738  -3.226   8.552  0.00  0.00    +0.005 A 
ATOM     28 BR   UNL     1       7.091  -2.609  12.417  0.00  0.00    -0.050 Br
ENDBRANCH   7  22
BRANCH   1  29
ATOM     29  C   UNL     1      -0.042  -0.124   2.497  0.00  0.00    +0.108 C 
BRANCH  29  30
ATOM     30  C   UNL     1       0.742  -0.511   1.242  0.00  0.00    +0.022 C 
BRANCH  30  32
ATOM     31  C   UNL     1      -0.019   1.526   0.010  0.00  0.00    +0.007 C 
ATOM     32  C   UNL     1       0.002  -0.004   0.002  0.00  0.00    -0.016 C 
ATOM     33  C   UNL     1       0.718  -0.497  -1.257  0.00  0.00    +0.007 C 
ENDBRANCH  30  32
ENDBRANCH  29  30
ENDBRANCH   1  29
TORSDOF 4
