REMARK  Name = ZINC20083219
REMARK  8 active torsions:
REMARK  status: ('A' for Active; 'I' for Inactive)
REMARK    1  A    between atoms: C_1  and  C_2
REMARK    2  A    between atoms: C_4  and  C_40
REMARK    3  A    between atoms: C_9  and  C_14
REMARK    4  A    between atoms: C_14  and  C_16
REMARK    5  A    between atoms: C_14  and  N_26
REMARK    6  A    between atoms: N_20  and  C_21
REMARK    7  A    between atoms: N_29  and  C_32
REMARK    8  A    between atoms: C_32  and  C_33
REMARK                            x       y       z     vdW  Elec       q    Type
REMARK                         _______ _______ _______ _____ _____    ______ ____
ROOT
ATOM      1  C   UNL     1      -2.723   1.794  -4.897  0.00  0.00    +0.162 C 
ENDROOT
BRANCH   1  10
ATOM      2  C   UNL     1      -6.995  -2.767  -8.966  0.00  0.00    +0.044 C 
ATOM      3  C   UNL     1      -6.749  -1.967  -7.713  0.00  0.00    -0.050 A 
ATOM      4  C   UNL     1      -7.697  -1.967  -6.699  0.00  0.00    +0.008 A 
ATOM      5  C   UNL     1      -7.493  -1.242  -5.545  0.00  0.00    -0.026 A 
ATOM      6  C   UNL     1      -6.325  -0.501  -5.393  0.00  0.00    +0.052 A 
ATOM      7  C   UNL     1      -5.366  -0.504  -6.423  0.00  0.00    -0.001 A 
ATOM      8  C   UNL     1      -5.595  -1.247  -7.585  0.00  0.00    +0.013 A 
ATOM      9  C   UNL     1      -4.140   0.278  -6.253  0.00  0.00    +0.021 A 
ATOM     10  C   UNL     1      -3.973   0.979  -5.104  0.00  0.00    +0.042 A 
ATOM     11  C   UNL     1      -4.963   0.943  -4.099  0.00  0.00    +0.254 A 
ATOM     12  O   UNL     1      -4.791   1.576  -3.072  0.00  0.00    -0.268 OA
ATOM     13  N   UNL     1      -6.095   0.232  -4.248  0.00  0.00    -0.322 N 
ATOM     14  H   UNL     1      -6.842   0.241  -3.441  0.00  0.00    +0.169 HD
ATOM     15  C   UNL     1      -8.531  -1.252  -4.452  0.00  0.00    +0.046 C 
ENDBRANCH   1  10
BRANCH   1  16
ATOM     16  N   UNL     1      -2.093   1.411  -3.627  0.00  0.00    -0.286 NA
ATOM     17  C   UNL     1      -1.752  -0.019  -3.618  0.00  0.00    +0.101 C 
ATOM     18  C   UNL     1      -1.173  -0.394  -2.252  0.00  0.00    +0.100 C 
ATOM     19  N   UNL     1       0.015   0.429  -1.984  0.00  0.00    -0.296 NA
ATOM     20  C   UNL     1      -0.326   1.858  -1.992  0.00  0.00    +0.100 C 
ATOM     21  C   UNL     1      -0.905   2.234  -3.358  0.00  0.00    +0.101 C 
BRANCH  19  22
ATOM     22  C   UNL     1       0.645   0.045  -0.713  0.00  0.00    +0.119 C 
BRANCH  22  23
ATOM     23  C   UNL     1       1.982   0.729  -0.589  0.00  0.00    -0.033 A 
ATOM     24  C   UNL     1       3.122   0.111  -1.068  0.00  0.00    +0.006 A 
ATOM     25  C   UNL     1       4.347   0.741  -0.959  0.00  0.00    +0.020 A 
ATOM     26  C   UNL     1       4.435   1.985  -0.360  0.00  0.00    +0.041 A 
ATOM     27  C   UNL     1       3.295   2.600   0.124  0.00  0.00    +0.020 A 
ATOM     28  C   UNL     1       2.069   1.972   0.010  0.00  0.00    +0.006 A 
ATOM     29 CL   UNL     1       5.975   2.773  -0.217  0.00  0.00    -0.084 Cl
ENDBRANCH  22  23
ENDBRANCH  19  22
ENDBRANCH   1  16
BRANCH   1  30
ATOM     30  C   UNL     1      -3.078   3.259  -4.860  0.00  0.00    +0.173 A 
ATOM     31  N   UNL     1      -3.654   3.899  -3.872  0.00  0.00    -0.111 NA
ATOM     32  N   UNL     1      -3.788   5.132  -4.221  0.00  0.00    -0.023 NA
ATOM     33  N   UNL     1      -3.312   5.294  -5.406  0.00  0.00    -0.044 NA
ATOM     34  N   UNL     1      -2.861   4.163  -5.832  0.00  0.00    -0.224 N 
BRANCH  34  35
ATOM     35  C   UNL     1      -2.232   3.910  -7.131  0.00  0.00    +0.111 C 
ATOM     36  C   UNL     1      -0.995   4.815  -7.305  0.00  0.00    +0.027 C 
ATOM     37  C   UNL     1      -1.015   5.202  -8.805  0.00  0.00    +0.002 C 
ATOM     38  C   UNL     1      -2.526   5.386  -9.091  0.00  0.00    +0.002 C 
ATOM     39  C   UNL     1      -3.205   4.273  -8.267  0.00  0.00    +0.027 C 
ENDBRANCH  34  35
ENDBRANCH   1  30
TORSDOF 6
