REMARK  Name = ZINC04794190
REMARK  10 active torsions:
REMARK  status: ('A' for Active; 'I' for Inactive)
REMARK    1  A    between atoms: C_1  and  C_2
REMARK    2  A    between atoms: C_2  and  C_3
REMARK    3  A    between atoms: C_3  and  C_4
REMARK    4  A    between atoms: C_4  and  O_5
REMARK    5  A    between atoms: O_5  and  C_6
REMARK    6  A    between atoms: C_6  and  C_8
REMARK    7  A    between atoms: C_12  and  C_26
REMARK    8  A    between atoms: N_17  and  C_18
REMARK    9  A    between atoms: C_19  and  C_25
REMARK   10  A    between atoms: C_23  and  C_24
REMARK                            x       y       z     vdW  Elec       q    Type
REMARK                         _______ _______ _______ _____ _____    ______ ____
ROOT
ATOM      1  C   UNL     1      -1.417   1.615   3.472  0.00  0.00    +0.197 C 
ATOM      2  C   UNL     1      -2.002   1.952   2.069  0.00  0.00    +0.105 C 
ATOM      3  S   UNL     1      -2.700   3.619   2.461  0.00  0.00    -0.136 S 
ATOM      4  C   UNL     1      -1.467   4.089   3.747  0.00  0.00    +0.139 C 
ATOM      5  N   UNL     1      -0.833   2.802   4.090  0.00  0.00    -0.259 N 
ATOM      6  C   UNL     1       0.223   2.727   4.924  0.00  0.00    +0.308 C 
ATOM      7  O   UNL     1       0.818   1.675   5.058  0.00  0.00    -0.252 OA
ATOM      8  N   UNL     1       0.620   3.817   5.609  0.00  0.00    -0.269 N 
ATOM      9  H   UNL     1       0.165   4.664   5.479  0.00  0.00    +0.156 HD
ENDROOT
BRANCH   8  10
ATOM     10  C   UNL     1       1.688   3.728   6.509  0.00  0.00    +0.041 A 
ATOM     11  C   UNL     1       1.680   2.759   7.504  0.00  0.00    -0.029 A 
ATOM     12  C   UNL     1       2.737   2.670   8.388  0.00  0.00    +0.005 A 
ATOM     13  C   UNL     1       3.799   3.551   8.289  0.00  0.00    +0.001 A 
ATOM     14  C   UNL     1       3.807   4.520   7.303  0.00  0.00    +0.005 A 
ATOM     15  C   UNL     1       2.755   4.611   6.413  0.00  0.00    -0.029 A 
ATOM     16  C   UNL     1       2.765   5.668   5.338  0.00  0.00    +0.045 C 
ATOM     17  C   UNL     1       0.521   1.802   7.617  0.00  0.00    +0.045 C 
ENDBRANCH   8  10
BRANCH   4  18
ATOM     18  C   UNL     1      -0.436   5.065   3.177  0.00  0.00    +0.020 C 
ATOM     19  C   UNL     1       0.303   4.403   2.012  0.00  0.00    +0.006 C 
ATOM     20  C   UNL     1       1.334   5.379   1.442  0.00  0.00    +0.000 C 
ATOM     21  C   UNL     1       0.623   6.639   0.944  0.00  0.00    +0.000 C 
ATOM     22  C   UNL     1      -0.116   7.301   2.109  0.00  0.00    +0.000 C 
ATOM     23  C   UNL     1      -1.147   6.325   2.680  0.00  0.00    +0.006 C 
ENDBRANCH   4  18
BRANCH   1  24
ATOM     24  C   UNL     1      -0.351   0.560   3.325  0.00  0.00    +0.329 C 
ATOM     25  O   UNL     1       0.798   0.884   3.138  0.00  0.00    -0.249 OA
BRANCH  24  26
ATOM     26  O   UNL     1      -0.678  -0.740   3.401  0.00  0.00    -0.463 OA
BRANCH  26  27
ATOM     27  C   UNL     1       0.400  -1.701   3.250  0.00  0.00    +0.232 C 
BRANCH  27  28
ATOM     28  C   UNL     1      -0.161  -3.119   3.365  0.00  0.00    +0.041 C 
BRANCH  28  30
ATOM     29  C   UNL     1       0.413  -5.550   3.321  0.00  0.00    +0.004 C 
ATOM     30  C   UNL     1       0.975  -4.132   3.206  0.00  0.00    -0.000 C 
ENDBRANCH  28  30
ENDBRANCH  27  28
ENDBRANCH  26  27
ENDBRANCH  24  26
ENDBRANCH   1  24
TORSDOF 7
