REMARK  Name = ZINC59170560
REMARK  5 active torsions:
REMARK  status: ('A' for Active; 'I' for Inactive)
REMARK    1  A    between atoms: C_8  and  C_22
REMARK    2  A    between atoms: N_10  and  C_11
REMARK    3  A    between atoms: C_14  and  S_17
REMARK    4  A    between atoms: S_17  and  N_20
REMARK    5  A    between atoms: N_24  and  C_25
REMARK                            x       y       z     vdW  Elec       q    Type
REMARK                         _______ _______ _______ _____ _____    ______ ____
ROOT
ATOM      1  C   UNL     1       0.134   1.292  -0.800  0.00  0.00    +0.001 A 
ATOM      2  C   UNL     1       1.071   2.027  -0.089  0.00  0.00    +0.004 A 
ATOM      3  C   UNL     1       2.253   1.447   0.326  0.00  0.00    +0.047 A 
ATOM      4  C   UNL     1       2.509   0.116   0.031  0.00  0.00    +0.137 A 
ATOM      5  C   UNL     1       1.555  -0.630  -0.688  0.00  0.00    +0.018 A 
ATOM      6  C   UNL     1       0.364  -0.021  -1.101  0.00  0.00    +0.011 A 
ATOM      7  C   UNL     1       1.823  -2.038  -0.989  0.00  0.00    +0.030 A 
ATOM      8  C   UNL     1       2.879  -2.644  -0.321  0.00  0.00    +0.098 A 
ATOM      9  C   UNL     1       3.638  -1.811   0.633  0.00  0.00    +0.212 A 
ATOM     10  N   UNL     1       4.267  -2.352   1.653  0.00  0.00    -0.325 N 
ATOM     11  O   UNL     1       3.665  -0.470   0.426  0.00  0.00    -0.439 OA
ATOM     12  H   UNL     1       4.157  -3.297   1.845  0.00  0.00    +0.169 HD
ENDROOT
BRANCH  10  13
ATOM     13  C   UNL     1       5.077  -1.583   2.443  0.00  0.00    +0.042 A 
ATOM     14  C   UNL     1       5.972  -0.681   1.863  0.00  0.00    +0.027 A 
ATOM     15  C   UNL     1       6.785   0.091   2.666  0.00  0.00    +0.030 A 
ATOM     16  C   UNL     1       6.715  -0.026   4.043  0.00  0.00    +0.105 A 
ATOM     17  C   UNL     1       5.831  -0.917   4.625  0.00  0.00    +0.030 A 
ATOM     18  C   UNL     1       5.008  -1.692   3.834  0.00  0.00    +0.027 A 
BRANCH  16  19
ATOM     19  S   UNL     1       7.758   0.965   5.060  0.00  0.00    +0.056 S 
ATOM     20  O   UNL     1       7.889   0.279   6.298  0.00  0.00    -0.153 OA
ATOM     21  O   UNL     1       8.880   1.324   4.265  0.00  0.00    -0.153 OA
BRANCH  19  22
ATOM     22  N   UNL     1       6.938   2.368   5.382  0.00  0.00    -0.204 NA
ATOM     23  H   UNL     1       7.093   2.840   6.215  0.00  0.00    +0.144 HD
ATOM     24  H   UNL     1       6.303   2.717   4.738  0.00  0.00    +0.144 HD
ENDBRANCH  19  22
ENDBRANCH  16  19
ENDBRANCH  10  13
BRANCH   8  25
ATOM     25  C   UNL     1       3.227  -4.055  -0.555  0.00  0.00    +0.253 C 
ATOM     26  O   UNL     1       2.512  -4.751  -1.251  0.00  0.00    -0.270 OA
ATOM     27  N   UNL     1       4.337  -4.577   0.003  0.00  0.00    -0.280 N 
ATOM     28  H   UNL     1       4.878  -4.038   0.602  0.00  0.00    +0.155 HD
BRANCH  27  29
ATOM     29  C   UNL     1       4.711  -5.894  -0.282  0.00  0.00    +0.052 A 
ATOM     30  C   UNL     1       3.744  -6.836  -0.612  0.00  0.00    +0.025 A 
ATOM     31  C   UNL     1       4.116  -8.136  -0.893  0.00  0.00    +0.002 A 
ATOM     32  C   UNL     1       5.449  -8.502  -0.846  0.00  0.00    +0.002 A 
ATOM     33  C   UNL     1       6.414  -7.568  -0.517  0.00  0.00    +0.022 A 
ATOM     34  C   UNL     1       6.050  -6.263  -0.241  0.00  0.00    +0.062 A 
ATOM     35 CL   UNL     1       7.263  -5.089   0.164  0.00  0.00    -0.082 Cl
ENDBRANCH  27  29
ENDBRANCH   8  25
TORSDOF 5
