REMARK  Name = ZINC38055668
REMARK  4 active torsions:
REMARK  status: ('A' for Active; 'I' for Inactive)
REMARK    1  A    between atoms: N_9  and  C_12
REMARK    2  A    between atoms: C_12  and  O_13
REMARK    3  A    between atoms: O_13  and  C_14
REMARK    4  A    between atoms: C_17  and  N_20
REMARK                            x       y       z     vdW  Elec       q    Type
REMARK                         _______ _______ _______ _____ _____    ______ ____
ROOT
ATOM      1  C   UNL     1      -0.017   1.373   0.010  0.00  0.00    +0.001 A 
ATOM      2  C   UNL     1       1.170   2.095   0.002  0.00  0.00    +0.002 A 
ATOM      3  C   UNL     1       2.386   1.452  -0.013  0.00  0.00    +0.030 A 
ATOM      4  C   UNL     1       2.432   0.055  -0.021  0.00  0.00    +0.100 A 
ATOM      5  C   UNL     1       1.224  -0.675  -0.013  0.00  0.00    +0.068 A 
ATOM      6  C   UNL     1       0.002  -0.004   0.002  0.00  0.00    +0.015 A 
ATOM      7  C   UNL     1       1.298  -2.144  -0.022  0.00  0.00    +0.281 A 
ATOM      8  O   UNL     1       0.291  -2.829  -0.016  0.00  0.00    -0.265 OA
ATOM      9  N   UNL     1       2.530  -2.705  -0.037  0.00  0.00    -0.174 N 
ATOM     10  N   UNL     1       3.668  -1.894  -0.044  0.00  0.00    -0.059 NA
ATOM     11  N   UNL     1       3.612  -0.612  -0.037  0.00  0.00    -0.131 NA
ENDROOT
BRANCH   9  12
ATOM     12  C   UNL     1       2.670  -4.163  -0.046  0.00  0.00    +0.379 C 
BRANCH  12  13
ATOM     13  O   UNL     1       2.703  -4.630  -1.397  0.00  0.00    -0.470 OA
BRANCH  13  14
ATOM     14  C   UNL     1       3.885  -4.520  -2.060  0.00  0.00    +0.123 A 
ATOM     15  C   UNL     1       4.990  -3.978  -1.421  0.00  0.00    +0.047 A 
ATOM     16  C   UNL     1       6.191  -3.866  -2.094  0.00  0.00    +0.026 A 
ATOM     17  C   UNL     1       6.291  -4.295  -3.411  0.00  0.00    +0.025 A 
ATOM     18  C   UNL     1       5.184  -4.837  -4.050  0.00  0.00    +0.026 A 
ATOM     19  C   UNL     1       3.985  -4.954  -3.374  0.00  0.00    +0.047 A 
BRANCH  17  20
ATOM     20  N   UNL     1       7.507  -4.181  -4.094  0.00  0.00    -0.358 N 
ATOM     21  H   UNL     1       8.281  -3.802  -3.647  0.00  0.00    +0.142 HD
ATOM     22  H   UNL     1       7.577  -4.481  -5.014  0.00  0.00    +0.142 HD
ENDBRANCH  17  20
ENDBRANCH  13  14
ENDBRANCH  12  13
ENDBRANCH   9  12
TORSDOF 4
