REMARK  Name = ZINC36185397
REMARK  6 active torsions:
REMARK  status: ('A' for Active; 'I' for Inactive)
REMARK    1  A    between atoms: C_3  and  C_8
REMARK    2  A    between atoms: N_10  and  N_11
REMARK    3  A    between atoms: C_12  and  C_14
REMARK    4  A    between atoms: C_14  and  O_15
REMARK    5  A    between atoms: O_15  and  C_16
REMARK    6  A    between atoms: C_18  and  C_33
REMARK                            x       y       z     vdW  Elec       q    Type
REMARK                         _______ _______ _______ _____ _____    ______ ____
ROOT
ATOM      1  C   UNL     1      10.887   2.048  -0.093  0.00  0.00    +0.184 C 
ATOM      2  C   UNL     1      11.961   1.129   0.561  0.00  0.00    +0.184 C 
ATOM      3  O   UNL     1      13.007   0.936  -0.439  0.00  0.00    -0.340 OA
ATOM      4  C   UNL     1      12.951   2.092  -1.221  0.00  0.00    +0.285 C 
ATOM      5  C   UNL     1      11.401   2.203  -1.512  0.00  0.00    +0.209 C 
ATOM      6  O   UNL     1      11.376   3.422  -2.217  0.00  0.00    -0.338 OA
ATOM      7  C   UNL     1      12.618   3.438  -2.964  0.00  0.00    +0.174 C 
ATOM      8  O   UNL     1      13.423   2.306  -2.524  0.00  0.00    -0.317 OA
ATOM      9  C   UNL     1      12.320   3.283  -4.452  0.00  0.00    +0.065 C 
ATOM     10  C   UNL     1      13.631   3.309  -5.242  0.00  0.00    +0.005 C 
ATOM     11  C   UNL     1      14.353   4.634  -4.986  0.00  0.00    +0.000 C 
ATOM     12  C   UNL     1      14.665   4.766  -3.494  0.00  0.00    +0.005 C 
ATOM     13  C   UNL     1      13.358   4.744  -2.696  0.00  0.00    +0.065 C 
ENDROOT
BRANCH   2  14
ATOM     14  C   UNL     1      11.339  -0.218   0.938  0.00  0.00    +0.179 C 
ATOM     15  C   UNL     1      12.426  -1.220   1.401  0.00  0.00    +0.197 C 
ATOM     16  O   UNL     1      11.838  -2.502   1.099  0.00  0.00    -0.346 OA
ATOM     17  C   UNL     1      10.833  -2.284   0.101  0.00  0.00    +0.171 C 
ATOM     18  O   UNL     1      10.801  -0.885  -0.229  0.00  0.00    -0.340 OA
ATOM     19  C   UNL     1      11.166  -3.095  -1.152  0.00  0.00    +0.065 C 
ATOM     20  C   UNL     1      10.094  -2.852  -2.216  0.00  0.00    +0.005 C 
ATOM     21  C   UNL     1       8.730  -3.282  -1.672  0.00  0.00    +0.000 C 
ATOM     22  C   UNL     1       8.397  -2.466  -0.421  0.00  0.00    +0.005 C 
ATOM     23  C   UNL     1       9.468  -2.707   0.645  0.00  0.00    +0.065 C 
ENDBRANCH   2  14
BRANCH   1  24
ATOM     24  O   UNL     1       9.605   1.417  -0.084  0.00  0.00    -0.362 OA
BRANCH  24  25
ATOM     25  C   UNL     1       8.507   2.332  -0.068  0.00  0.00    +0.257 C 
BRANCH  25  27
ATOM     26  N   UNL     1       6.036   2.221  -0.045  0.00  0.00    -0.232 N 
ATOM     27  C   UNL     1       7.212   1.562  -0.059  0.00  0.00    +0.255 C 
ATOM     28  O   UNL     1       7.227   0.349  -0.066  0.00  0.00    -0.272 OA
ATOM     29  H   UNL     1       6.024   3.191  -0.040  0.00  0.00    +0.173 HD
BRANCH  26  32
ATOM     30  C   UNL     1       3.656   2.164  -0.022  0.00  0.00    +0.260 C 
ATOM     31  O   UNL     1       3.641   3.380  -0.015  0.00  0.00    -0.269 OA
ATOM     32  N   UNL     1       4.832   1.505  -0.036  0.00  0.00    -0.230 N 
ATOM     33  H   UNL     1       4.844   0.535  -0.042  0.00  0.00    +0.173 HD
BRANCH  30  36
ATOM     34  C   UNL     1      -0.017   1.379   0.010  0.00  0.00    +0.004 A 
ATOM     35  C   UNL     1       1.167   2.088   0.002  0.00  0.00    +0.013 A 
ATOM     36  C   UNL     1       2.385   1.409  -0.013  0.00  0.00    +0.041 A 
ATOM     37  C   UNL     1       2.400   0.013  -0.021  0.00  0.00    +0.051 A 
ATOM     38  C   UNL     1       1.208  -0.686  -0.013  0.00  0.00    +0.124 A 
ATOM     39  C   UNL     1       0.002  -0.004   0.002  0.00  0.00    +0.038 A 
ATOM     40  F   UNL     1       1.219  -2.037  -0.021  0.00  0.00    -0.205 F 
ENDBRANCH  30  36
ENDBRANCH  26  32
ENDBRANCH  25  27
ENDBRANCH  24  25
ENDBRANCH   1  24
TORSDOF 6
