REMARK  Name = ZINC40994695
REMARK  11 active torsions:
REMARK  status: ('A' for Active; 'I' for Inactive)
REMARK    1  A    between atoms: C_1  and  C_2
REMARK    2  A    between atoms: C_4  and  C_33
REMARK    3  A    between atoms: C_6  and  O_8
REMARK    4  A    between atoms: O_8  and  C_9
REMARK    5  A    between atoms: C_9  and  C_11
REMARK    6  A    between atoms: C_9  and  C_12
REMARK    7  A    between atoms: N_14  and  C_15
REMARK    8  A    between atoms: C_16  and  C_22
REMARK    9  A    between atoms: C_17  and  C_21
REMARK   10  A    between atoms: C_18  and  C_20
REMARK   11  A    between atoms: C_24  and  C_27
REMARK                            x       y       z     vdW  Elec       q    Type
REMARK                         _______ _______ _______ _____ _____    ______ ____
ROOT
ATOM      1  C   UNL     1       1.967  -2.935   6.717  0.00  0.00    +0.085 A 
ATOM      2  C   UNL     1       2.313  -2.567   8.012  0.00  0.00    +0.071 A 
ATOM      3  C   UNL     1       3.115  -3.500   8.764  0.00  0.00    -0.026 A 
ATOM      4  C   UNL     1       3.475  -4.655   8.175  0.00  0.00    -0.008 A 
ATOM      5  S   UNL     1       2.733  -4.538   6.559  0.00  0.00    -0.078 S 
ATOM      6  C   UNL     1       4.302  -5.779   8.745  0.00  0.00    +0.052 C 
ATOM      7  C   UNL     1       3.540  -3.188  10.175  0.00  0.00    +0.045 C 
ENDROOT
BRANCH   2   8
ATOM      8  C   UNL     1       1.883  -1.286   8.589  0.00  0.00    +0.261 A 
ATOM      9  N   UNL     1       1.147  -0.375   7.985  0.00  0.00    -0.187 NA
ATOM     10  C   UNL     1       0.946   0.667   8.806  0.00  0.00    +0.202 A 
ATOM     11  N   UNL     1       1.552   0.433   9.945  0.00  0.00    -0.056 NA
ATOM     12  O   UNL     1       2.166  -0.842   9.828  0.00  0.00    -0.332 OA
BRANCH  10  13
ATOM     13  C   UNL     1       0.166   1.886   8.478  0.00  0.00    +0.022 A 
ATOM     14  C   UNL     1      -0.438   2.014   7.229  0.00  0.00    +0.012 A 
ATOM     15  C   UNL     1      -1.163   3.150   6.929  0.00  0.00    +0.001 A 
ATOM     16  C   UNL     1      -1.290   4.160   7.866  0.00  0.00    +0.000 A 
ATOM     17  C   UNL     1      -0.693   4.037   9.108  0.00  0.00    +0.001 A 
ATOM     18  C   UNL     1       0.029   2.903   9.420  0.00  0.00    +0.012 A 
ENDBRANCH  10  13
ENDBRANCH   2   8
BRANCH   1  21
ATOM     19  C   UNL     1       0.977  -2.768   4.570  0.00  0.00    +0.258 C 
ATOM     20  O   UNL     1       1.427  -3.859   4.290  0.00  0.00    -0.271 OA
ATOM     21  N   UNL     1       1.211  -2.235   5.786  0.00  0.00    -0.276 N 
ATOM     22  H   UNL     1       0.852  -1.362   6.010  0.00  0.00    +0.155 HD
BRANCH  19  23
ATOM     23  C   UNL     1       0.157  -2.008   3.560  0.00  0.00    +0.256 C 
ATOM     24  C   UNL     1      -1.241  -1.752   4.126  0.00  0.00    +0.062 C 
BRANCH  23  25
ATOM     25  O   UNL     1       0.051  -2.775   2.359  0.00  0.00    -0.480 OA
BRANCH  25  31
ATOM     26  C   UNL     1      -0.902   1.454   0.118  0.00  0.00    +0.044 C 
ATOM     27  C   UNL     1      -0.649  -0.030   0.076  0.00  0.00    -0.047 A 
ATOM     28  C   UNL     1      -0.652  -0.698  -1.135  0.00  0.00    +0.007 A 
ATOM     29  C   UNL     1      -0.420  -2.060  -1.177  0.00  0.00    -0.047 A 
ATOM     30  C   UNL     1      -0.184  -2.758  -0.009  0.00  0.00    +0.049 A 
ATOM     31  C   UNL     1      -0.180  -2.091   1.208  0.00  0.00    +0.122 A 
ATOM     32  C   UNL     1      -0.408  -0.723   1.247  0.00  0.00    +0.049 A 
ATOM     33  C   UNL     1      -0.424  -2.784  -2.499  0.00  0.00    +0.044 C 
ENDBRANCH  25  31
ENDBRANCH  23  25
ENDBRANCH  19  23
ENDBRANCH   1  21
TORSDOF 6
