REMARK  Name = ZINC36308878
REMARK  15 active torsions:
REMARK  status: ('A' for Active; 'I' for Inactive)
REMARK    1  A    between atoms: C_1  and  C_2
REMARK    2  A    between atoms: C_2  and  C_3
REMARK    3  A    between atoms: C_3  and  C_5
REMARK    4  A    between atoms: C_3  and  O_33
REMARK    5  A    between atoms: C_5  and  N_6
REMARK    6  A    between atoms: N_6  and  C_7
REMARK    7  A    between atoms: N_6  and  C_9
REMARK    8  A    between atoms: C_7  and  C_8
REMARK    9  A    between atoms: C_9  and  C_10
REMARK   10  A    between atoms: C_20  and  C_22
REMARK   11  A    between atoms: C_22  and  O_23
REMARK   12  A    between atoms: O_23  and  C_24
REMARK   13  A    between atoms: C_27  and  C_30
REMARK   14  A    between atoms: C_30  and  C_31
REMARK   15  A    between atoms: C_30  and  C_32
REMARK                            x       y       z     vdW  Elec       q    Type
REMARK                         _______ _______ _______ _____ _____    ______ ____
ROOT
ATOM      1  C   UNL     1       1.913  -4.272  -3.990  0.00  0.00    +0.200 C 
ATOM      2  O   UNL     1       2.470  -3.450  -4.686  0.00  0.00    -0.278 OA
ATOM      3  N   UNL     1       1.907  -5.570  -4.353  0.00  0.00    -0.292 N 
ATOM      4  C   UNL     1       1.229  -6.574  -3.520  0.00  0.00    +0.113 C 
ATOM      5  C   UNL     1       0.054  -7.154  -4.322  0.00  0.00    +0.061 C 
ATOM      6  C   UNL     1       0.509  -7.408  -5.722  0.00  0.00    -0.004 A 
ATOM      7  C   UNL     1       1.617  -6.920  -6.343  0.00  0.00    -0.014 A 
ATOM      8  C   UNL     1       1.814  -7.305  -7.668  0.00  0.00    +0.013 A 
ATOM      9  C   UNL     1       0.927  -8.130  -8.271  0.00  0.00    +0.046 A 
ATOM     10  S   UNL     1      -0.260  -8.411  -6.966  0.00  0.00    -0.101 S 
ATOM     11  C   UNL     1       2.571  -6.000  -5.591  0.00  0.00    +0.144 C 
ENDROOT
BRANCH   1  12
ATOM     12  C   UNL     1       1.228  -3.842  -2.718  0.00  0.00    +0.019 C 
BRANCH  12  13
ATOM     13  N   UNL     1       1.377  -2.390  -2.549  0.00  0.00    +0.387 N 
ATOM     14  H   UNL     1       2.355  -2.146  -2.589  0.00  0.00    -0.081 HD
BRANCH  13  15
ATOM     15  C   UNL     1       0.654  -1.696  -3.622  0.00  0.00    -0.081 C 
ATOM     16  C   UNL     1       0.931  -0.193  -3.534  0.00  0.00    -0.017 C 
ENDBRANCH  13  15
BRANCH  13  17
ATOM     17  C   UNL     1       0.825  -1.991  -1.247  0.00  0.00    -0.047 C 
BRANCH  17  18
ATOM     18  C   UNL     1       1.698  -2.559  -0.127  0.00  0.00    +0.098 C 
BRANCH  18  20
ATOM     19  C   UNL     1       2.203  -2.441   2.317  0.00  0.00    +0.006 C 
ATOM     20  C   UNL     1       1.253  -1.971   1.214  0.00  0.00    +0.026 C 
ENDBRANCH  18  20
BRANCH  18  21
ATOM     21  O   UNL     1       1.562  -3.981  -0.092  0.00  0.00    -0.394 OA
ATOM     22  H   UNL     1       0.659  -4.286   0.068  0.00  0.00    +0.210 HD
ENDBRANCH  18  21
ENDBRANCH  17  18
ENDBRANCH  13  17
ENDBRANCH  12  13
ENDBRANCH   1  12
BRANCH  11  23
ATOM     23  C   UNL     1       3.856  -6.759  -5.252  0.00  0.00    +0.256 C 
BRANCH  23  24
ATOM     24  O   UNL     1       3.528  -7.967  -4.564  0.00  0.00    -0.490 OA
BRANCH  24  25
ATOM     25  C   UNL     1       4.563  -8.764  -4.188  0.00  0.00    +0.121 A 
ATOM     26  C   UNL     1       5.868  -8.387  -4.472  0.00  0.00    +0.046 A 
ATOM     27  C   UNL     1       6.918  -9.199  -4.089  0.00  0.00    +0.007 A 
ATOM     28  C   UNL     1       6.670 -10.385  -3.424  0.00  0.00    -0.045 A 
ATOM     29  C   UNL     1       5.371 -10.763  -3.140  0.00  0.00    +0.007 A 
ATOM     30  C   UNL     1       4.317  -9.952  -3.516  0.00  0.00    +0.046 A 
BRANCH  28  31
ATOM     31  C   UNL     1       7.818 -11.268  -3.008  0.00  0.00    +0.013 C 
ATOM     32  C   UNL     1       7.806 -11.439  -1.487  0.00  0.00    +0.012 C 
ATOM     33  C   UNL     1       7.676 -12.638  -3.675  0.00  0.00    +0.012 C 
ENDBRANCH  28  31
ENDBRANCH  24  25
ENDBRANCH  23  24
ENDBRANCH  11  23
TORSDOF 11
