REMARK  Name = ZINC21548943
REMARK  12 active torsions:
REMARK  status: ('A' for Active; 'I' for Inactive)
REMARK    1  A    between atoms: C_1  and  C_2
REMARK    2  A    between atoms: C_7  and  N_12
REMARK    3  A    between atoms: C_9  and  C_11
REMARK    4  A    between atoms: C_13  and  C_15
REMARK    5  A    between atoms: C_15  and  S_16
REMARK    6  A    between atoms: S_16  and  C_17
REMARK    7  A    between atoms: C_20  and  C_29
REMARK    8  A    between atoms: N_21  and  C_22
REMARK    9  A    between atoms: C_32  and  C_35
REMARK   10  A    between atoms: C_35  and  C_36
REMARK   11  A    between atoms: C_35  and  C_37
REMARK   12  A    between atoms: C_35  and  C_38
REMARK                            x       y       z     vdW  Elec       q    Type
REMARK                         _______ _______ _______ _____ _____    ______ ____
ROOT
ATOM      1  C   UNL     1       5.205   1.014  -0.174  0.00  0.00    +0.197 A 
ATOM      2  N   UNL     1       5.149  -0.300  -0.159  0.00  0.00    -0.122 NA
ATOM      3  N   UNL     1       6.327  -0.791  -0.010  0.00  0.00    -0.128 NA
ATOM      4  C   UNL     1       7.209   0.177   0.090  0.00  0.00    +0.169 A 
ATOM      5  N   UNL     1       6.517   1.365  -0.013  0.00  0.00    -0.270 N 
ENDROOT
BRANCH   5   6
ATOM      6  C   UNL     1       7.048   2.662   0.038  0.00  0.00    +0.051 A 
ATOM      7  C   UNL     1       7.866   3.119  -0.986  0.00  0.00    +0.028 A 
ATOM      8  C   UNL     1       8.383   4.399  -0.937  0.00  0.00    +0.022 A 
ATOM      9  C   UNL     1       8.095   5.221   0.138  0.00  0.00    +0.041 A 
ATOM     10  C   UNL     1       7.284   4.766   1.163  0.00  0.00    +0.022 A 
ATOM     11  C   UNL     1       6.761   3.489   1.115  0.00  0.00    +0.028 A 
ATOM     12 CL   UNL     1       8.751   6.827   0.200  0.00  0.00    -0.084 Cl
ENDBRANCH   5   6
BRANCH   4  13
ATOM     13  C   UNL     1       8.667   0.023   0.277  0.00  0.00    +0.020 A 
ATOM     14  C   UNL     1       9.283  -1.200   0.004  0.00  0.00    +0.012 A 
ATOM     15  C   UNL     1      10.645  -1.336   0.175  0.00  0.00    +0.005 A 
ATOM     16  C   UNL     1      11.399  -0.267   0.626  0.00  0.00    -0.042 A 
ATOM     17  C   UNL     1      10.793   0.946   0.904  0.00  0.00    +0.005 A 
ATOM     18  C   UNL     1       9.433   1.097   0.732  0.00  0.00    +0.012 A 
BRANCH  16  19
ATOM     19  C   UNL     1      12.885  -0.424   0.816  0.00  0.00    -0.013 C 
ATOM     20  C   UNL     1      13.244  -0.157   2.279  0.00  0.00    +0.015 C 
ATOM     21  C   UNL     1      13.299  -1.849   0.442  0.00  0.00    +0.015 C 
ATOM     22  C   UNL     1      13.622   0.573  -0.081  0.00  0.00    +0.015 C 
ENDBRANCH  16  19
ENDBRANCH   4  13
BRANCH   1  23
ATOM     23  S   UNL     1       3.843   2.116  -0.360  0.00  0.00    -0.076 S 
BRANCH  23  24
ATOM     24  C   UNL     1       2.492   0.922  -0.516  0.00  0.00    +0.173 C 
BRANCH  24  26
ATOM     25  N   UNL     1       0.038   0.969  -0.828  0.00  0.00    -0.312 N 
ATOM     26  C   UNL     1       1.188   1.658  -0.691  0.00  0.00    +0.224 C 
ATOM     27  O   UNL     1       1.175   2.871  -0.708  0.00  0.00    -0.275 OA
ATOM     28  H   UNL     1       0.050  -0.130  -0.808  0.00  0.00    +0.149 HD
BRANCH  25  34
ATOM     29  C   UNL     1      -4.861   0.665  -0.238  0.00  0.00    +0.008 C 
ATOM     30  C   UNL     1      -3.706   1.549  -0.712  0.00  0.00    -0.009 C 
ATOM     31  C   UNL     1      -3.898   1.890  -2.191  0.00  0.00    +0.003 C 
ATOM     32  C   UNL     1      -2.743   2.774  -2.665  0.00  0.00    +0.002 C 
ATOM     33  C   UNL     1      -1.420   2.026  -2.482  0.00  0.00    +0.022 C 
ATOM     34  C   UNL     1      -1.228   1.685  -1.003  0.00  0.00    +0.076 C 
ATOM     35  C   UNL     1      -2.383   0.801  -0.529  0.00  0.00    +0.009 C 
ATOM     36  C   UNL     1      -2.409  -0.489  -1.351  0.00  0.00    +0.009 C 
ENDBRANCH  25  34
ENDBRANCH  24  26
ENDBRANCH  23  24
ENDBRANCH   1  23
TORSDOF 7
