REMARK  Name = ZINC49488417
REMARK  11 active torsions:
REMARK  status: ('A' for Active; 'I' for Inactive)
REMARK    1  A    between atoms: C_1  and  C_2
REMARK    2  A    between atoms: C_2  and  C_3
REMARK    3  A    between atoms: C_2  and  C_4
REMARK    4  A    between atoms: C_13  and  N_16
REMARK    5  A    between atoms: C_17  and  C_19
REMARK    6  A    between atoms: N_21  and  C_22
REMARK    7  A    between atoms: C_22  and  C_23
REMARK    8  A    between atoms: C_23  and  C_25
REMARK    9  A    between atoms: C_23  and  N_30
REMARK   10  A    between atoms: N_30  and  C_31
REMARK   11  A    between atoms: N_30  and  C_32
REMARK                            x       y       z     vdW  Elec       q    Type
REMARK                         _______ _______ _______ _____ _____    ______ ____
ROOT
ATOM      1  N   UNL     1      -6.399  -1.387   1.244  0.00  0.00    -0.278 N 
ATOM      2  C   UNL     1      -7.634  -1.897   1.423  0.00  0.00    +0.303 C 
ATOM      3  O   UNL     1      -7.800  -3.099   1.427  0.00  0.00    -0.265 OA
ATOM      4  H   UNL     1      -6.254  -0.431   1.316  0.00  0.00    +0.155 HD
ENDROOT
BRANCH   1  14
ATOM      5  C   UNL     1      -1.467  -1.261   2.155  0.00  0.00    +0.222 C 
ATOM      6  O   UNL     1      -2.305  -0.387   2.088  0.00  0.00    -0.275 OA
ATOM      7  N   UNL     1      -1.724  -2.482   1.644  0.00  0.00    -0.271 N 
ATOM      8  C   UNL     1      -0.674  -3.509   1.602  0.00  0.00    +0.114 C 
ATOM      9  C   UNL     1      -0.723  -4.172   0.219  0.00  0.00    +0.024 C 
ATOM     10  C   UNL     1      -2.071  -4.873   0.054  0.00  0.00    +0.038 C 
ATOM     11  C   UNL     1      -3.200  -3.929   0.376  0.00  0.00    -0.026 A 
ATOM     12  C   UNL     1      -2.998  -2.794   1.149  0.00  0.00    +0.041 A 
ATOM     13  C   UNL     1      -4.060  -1.947   1.438  0.00  0.00    +0.047 A 
ATOM     14  C   UNL     1      -5.328  -2.237   0.955  0.00  0.00    +0.036 A 
ATOM     15  C   UNL     1      -5.529  -3.374   0.183  0.00  0.00    +0.024 A 
ATOM     16  C   UNL     1      -4.466  -4.210  -0.110  0.00  0.00    +0.007 A 
BRANCH   5  18
ATOM     17  C   UNL     1      -0.107   0.466   3.302  0.00  0.00    +0.017 C 
ATOM     18  C   UNL     1      -0.139  -0.983   2.811  0.00  0.00    +0.069 C 
ATOM     19  C   UNL     1       0.052  -1.928   3.998  0.00  0.00    +0.017 C 
ENDBRANCH   5  18
ENDBRANCH   1  14
BRANCH   2  20
ATOM     20  C   UNL     1      -8.798  -0.982   1.617  0.00  0.00    +0.299 C 
ATOM     21  O   UNL     1      -8.633   0.221   1.614  0.00  0.00    -0.265 OA
ATOM     22  N   UNL     1     -10.033  -1.491   1.797  0.00  0.00    -0.309 N 
ATOM     23  H   UNL     1     -10.166  -2.452   1.800  0.00  0.00    +0.149 HD
BRANCH  22  24
ATOM     24  C   UNL     1     -11.175  -0.594   1.987  0.00  0.00    +0.094 C 
BRANCH  24  25
ATOM     25  C   UNL     1     -12.465  -1.415   2.043  0.00  0.00    -0.014 C 
BRANCH  25  26
ATOM     26  C   UNL     1     -12.445  -2.299   3.264  0.00  0.00    -0.022 A 
ATOM     27  C   UNL     1     -12.139  -3.616   3.359  0.00  0.00    +0.009 A 
ATOM     28  C   UNL     1     -12.187  -4.228   4.597  0.00  0.00    +0.008 A 
ATOM     29  C   UNL     1     -12.540  -3.493   5.680  0.00  0.00    +0.045 A 
ATOM     30  S   UNL     1     -12.811  -1.881   4.961  0.00  0.00    -0.103 S 
ENDBRANCH  25  26
BRANCH  25  31
ATOM     31  N   UNL     1     -13.620  -0.509   2.114  0.00  0.00    +0.382 N 
ATOM     32  C   UNL     1     -13.710   0.267   0.870  0.00  0.00    -0.096 C 
ATOM     33  C   UNL     1     -14.848  -1.294   2.292  0.00  0.00    -0.096 C 
ATOM     34  H   UNL     1     -13.506   0.120   2.895  0.00  0.00    -0.082 HD
ENDBRANCH  25  31
ENDBRANCH  24  25
ENDBRANCH  22  24
ENDBRANCH   2  20
TORSDOF 7
