REMARK  Name = ZINC38713693
REMARK  13 active torsions:
REMARK  status: ('A' for Active; 'I' for Inactive)
REMARK    1  A    between atoms: C_1  and  C_2
REMARK    2  A    between atoms: C_2  and  N_3
REMARK    3  A    between atoms: N_3  and  C_4
REMARK    4  A    between atoms: N_3  and  C_6
REMARK    5  A    between atoms: C_4  and  C_5
REMARK    6  A    between atoms: C_6  and  C_7
REMARK    7  A    between atoms: C_7  and  C_8
REMARK    8  A    between atoms: C_8  and  N_9
REMARK    9  A    between atoms: C_10  and  C_29
REMARK   10  A    between atoms: C_32  and  O_37
REMARK   11  A    between atoms: C_33  and  O_35
REMARK   12  A    between atoms: O_35  and  C_36
REMARK   13  A    between atoms: O_37  and  C_38
REMARK                            x       y       z     vdW  Elec       q    Type
REMARK                         _______ _______ _______ _____ _____    ______ ____
ROOT
ATOM      1  N   UNL     1      -2.831  -3.899  -1.943  0.00  0.00    -0.284 N 
ATOM      2  C   UNL     1      -3.734  -4.221  -0.826  0.00  0.00    +0.145 C 
ATOM      3  C   UNL     1      -5.087  -4.395  -1.434  0.00  0.00    +0.072 A 
ATOM      4  C   UNL     1      -6.381  -4.733  -0.835  0.00  0.00    +0.199 A 
ATOM      5  O   UNL     1      -6.573  -4.759   0.368  0.00  0.00    -0.287 OA
ATOM      6  C   UNL     1      -7.436  -5.040  -1.832  0.00  0.00    +0.065 A 
ATOM      7  C   UNL     1      -8.665  -5.579  -1.412  0.00  0.00    +0.016 A 
ATOM      8  C   UNL     1      -9.636  -5.872  -2.309  0.00  0.00    +0.009 A 
ATOM      9  C   UNL     1      -9.424  -5.637  -3.684  0.00  0.00    -0.014 A 
ATOM     10  C   UNL     1     -10.419  -5.941  -4.627  0.00  0.00    +0.008 A 
ATOM     11  C   UNL     1     -10.192  -5.702  -5.950  0.00  0.00    +0.001 A 
ATOM     12  C   UNL     1      -8.985  -5.161  -6.383  0.00  0.00    +0.001 A 
ATOM     13  C   UNL     1      -7.997  -4.856  -5.495  0.00  0.00    +0.012 A 
ATOM     14  C   UNL     1      -8.197  -5.090  -4.126  0.00  0.00    +0.025 A 
ATOM     15  C   UNL     1      -7.185  -4.785  -3.183  0.00  0.00    +0.147 A 
ATOM     16  O   UNL     1      -6.021  -4.260  -3.618  0.00  0.00    -0.449 OA
ATOM     17  C   UNL     1      -4.969  -4.183  -2.779  0.00  0.00    +0.199 A 
ATOM     18  C   UNL     1      -3.561  -3.873  -3.077  0.00  0.00    +0.283 C 
ATOM     19  O   UNL     1      -3.120  -3.633  -4.183  0.00  0.00    -0.267 OA
ENDROOT
BRANCH   2  20
ATOM     20  C   UNL     1      -3.752  -3.092   0.172  0.00  0.00    -0.019 A 
ATOM     21  C   UNL     1      -3.755  -1.782  -0.270  0.00  0.00    +0.009 A 
ATOM     22  C   UNL     1      -3.771  -0.743   0.642  0.00  0.00    +0.050 A 
ATOM     23  C   UNL     1      -3.784  -1.013   2.001  0.00  0.00    +0.162 A 
ATOM     24  C   UNL     1      -3.781  -2.332   2.445  0.00  0.00    +0.162 A 
ATOM     25  C   UNL     1      -3.770  -3.369   1.526  0.00  0.00    +0.055 A 
BRANCH  24  26
ATOM     26  O   UNL     1      -3.794  -2.602   3.778  0.00  0.00    -0.491 OA
ATOM     27  C   UNL     1      -3.791  -3.979   4.160  0.00  0.00    +0.277 C 
ENDBRANCH  24  26
BRANCH  23  28
ATOM     28  O   UNL     1      -3.799   0.008   2.899  0.00  0.00    -0.491 OA
ATOM     29  C   UNL     1      -3.800   1.336   2.371  0.00  0.00    +0.277 C 
ENDBRANCH  23  28
ENDBRANCH   2  20
BRANCH   1  30
ATOM     30  C   UNL     1      -1.392  -3.643  -1.840  0.00  0.00    +0.107 C 
BRANCH  30  31
ATOM     31  C   UNL     1      -1.155  -2.151  -1.603  0.00  0.00    +0.000 C 
BRANCH  31  32
ATOM     32  C   UNL     1       0.348  -1.884  -1.496  0.00  0.00    -0.077 C 
BRANCH  32  33
ATOM     33  N   UNL     1       0.576  -0.451  -1.269  0.00  0.00    +0.379 N 
ATOM     34  H   UNL     1       0.124   0.081  -1.998  0.00  0.00    -0.082 HD
BRANCH  33  36
ATOM     35  C   UNL     1       0.129   1.449   0.210  0.00  0.00    -0.017 C 
ATOM     36  C   UNL     1       0.019  -0.067   0.035  0.00  0.00    -0.082 C 
ENDBRANCH  33  36
BRANCH  33  37
ATOM     37  C   UNL     1       2.019  -0.176  -1.285  0.00  0.00    -0.082 C 
ATOM     38  C   UNL     1       2.573  -0.440  -2.687  0.00  0.00    -0.017 C 
ENDBRANCH  33  37
ENDBRANCH  32  33
ENDBRANCH  31  32
ENDBRANCH  30  31
ENDBRANCH   1  30
TORSDOF 9
