REMARK  Name = ZINC14537915
REMARK  6 active torsions:
REMARK  status: ('A' for Active; 'I' for Inactive)
REMARK    1  A    between atoms: C_1  and  N_2
REMARK    2  A    between atoms: C_8  and  C_10
REMARK    3  A    between atoms: N_13  and  C_15
REMARK    4  A    between atoms: C_15  and  C_16
REMARK    5  A    between atoms: C_20  and  N_23
REMARK    6  A    between atoms: N_23  and  C_24
REMARK                            x       y       z     vdW  Elec       q    Type
REMARK                         _______ _______ _______ _____ _____    ______ ____
ROOT
ATOM      1  C   UNL     1       2.532  -4.196   1.401  0.00  0.00    +0.151 A 
ATOM      2  C   UNL     1       3.541  -5.173   1.434  0.00  0.00    +0.004 A 
ATOM      3  C   UNL     1       3.786  -5.412   2.746  0.00  0.00    +0.043 A 
ATOM      4  N   UNL     1       2.963  -4.622   3.454  0.00  0.00    -0.264 N 
ATOM      5  N   UNL     1       2.240  -3.911   2.659  0.00  0.00    -0.166 NA
ATOM      6  C   UNL     1       4.811  -6.399   3.243  0.00  0.00    +0.054 C 
ATOM      7  C   UNL     1       5.761  -6.732   2.086  0.00  0.00    -0.009 C 
ATOM      8  C   UNL     1       4.948  -7.106   0.843  0.00  0.00    -0.067 C 
ATOM      9  C   UNL     1       4.247  -5.856   0.295  0.00  0.00    +0.023 C 
ENDROOT
BRANCH   1  17
ATOM     10  C   UNL     1       0.060   1.473   0.704  0.00  0.00    +0.105 C 
ATOM     11  N   UNL     1       0.067   0.010   0.581  0.00  0.00    -0.302 NA
ATOM     12  C   UNL     1       0.658  -0.408  -0.698  0.00  0.00    +0.103 C 
ATOM     13  C   UNL     1       0.483  -1.921  -0.868  0.00  0.00    +0.123 C 
ATOM     14  N   UNL     1       1.034  -2.591   0.320  0.00  0.00    -0.294 N 
ATOM     15  C   UNL     1       0.592  -2.132   1.646  0.00  0.00    +0.123 C 
ATOM     16  C   UNL     1       0.762  -0.611   1.716  0.00  0.00    +0.103 C 
ATOM     17  C   UNL     1       1.921  -3.598   0.197  0.00  0.00    +0.267 C 
ATOM     18  O   UNL     1       2.217  -4.016  -0.906  0.00  0.00    -0.268 OA
ENDBRANCH   1  17
BRANCH   8  19
ATOM     19  N   UNL     1       5.846  -7.653  -0.183  0.00  0.00    +0.383 N 
ATOM     20  H   UNL     1       6.485  -6.934  -0.488  0.00  0.00    -0.085 HD
ATOM     21  H   UNL     1       6.368  -8.425   0.203  0.00  0.00    -0.085 HD
BRANCH  19  22
ATOM     22  C   UNL     1       5.053  -8.121  -1.328  0.00  0.00    -0.071 C 
ATOM     23  C   UNL     1       4.198  -9.316  -0.900  0.00  0.00    -0.016 C 
ATOM     24  C   UNL     1       3.100  -9.554  -1.939  0.00  0.00    -0.002 C 
ATOM     25  C   UNL     1       2.477  -8.215  -2.340  0.00  0.00    -0.000 C 
ATOM     26  C   UNL     1       2.817  -7.910  -3.800  0.00  0.00    -0.000 C 
ATOM     27  C   UNL     1       4.271  -7.446  -3.897  0.00  0.00    -0.000 C 
ATOM     28  C   UNL     1       5.202  -8.652  -3.764  0.00  0.00    -0.002 C 
ATOM     29  C   UNL     1       5.993  -8.546  -2.459  0.00  0.00    -0.016 C 
ENDBRANCH  19  22
ENDBRANCH   8  19
BRANCH   4  30
ATOM     30  C   UNL     1       2.901  -4.570   4.917  0.00  0.00    +0.170 C 
BRANCH  30  31
ATOM     31  C   UNL     1       3.868  -3.531   5.424  0.00  0.00    -0.012 C 
ATOM     32  C   UNL     1       3.444  -2.568   6.206  0.00  0.00    +0.006 C 
ENDBRANCH  30  31
ENDBRANCH   4  30
TORSDOF 5
