REMARK  Name = ZINC02157106
REMARK  8 active torsions:
REMARK  status: ('A' for Active; 'I' for Inactive)
REMARK    1  A    between atoms: C_1  and  N_55
REMARK    2  A    between atoms: C_8  and  O_31
REMARK    3  A    between atoms: C_10  and  C_12
REMARK    4  A    between atoms: C_13  and  C_14
REMARK    5  A    between atoms: C_14  and  O_15
REMARK    6  A    between atoms: O_15  and  C_16
REMARK    7  A    between atoms: C_20  and  C_27
REMARK    8  A    between atoms: O_31  and  C_32
REMARK                            x       y       z     vdW  Elec       q    Type
REMARK                         _______ _______ _______ _____ _____    ______ ____
ROOT
ATOM      1  C   UNL     1      -0.738  -7.418  -0.033  0.00  0.00    -0.109 C 
ATOM      2  C   UNL     1      -0.918  -6.258  -0.025  0.00  0.00    -0.063 C 
ENDROOT
BRANCH   1  12
ATOM      3  C   UNL     1       1.613  -8.639   1.086  0.00  0.00    -0.094 C 
ATOM      4  C   UNL     1       0.369 -10.713   1.239  0.00  0.00    -0.072 C 
ATOM      5  C   UNL     1      -1.000 -11.256   1.650  0.00  0.00    +0.017 C 
ATOM      6  C   UNL     1      -2.069 -10.693   0.748  0.00  0.00    -0.039 A 
ATOM      7  C   UNL     1      -3.306 -11.319   0.721  0.00  0.00    +0.053 A 
ATOM      8  C   UNL     1      -4.322 -10.835  -0.085  0.00  0.00    +0.170 A 
ATOM      9  C   UNL     1      -4.098  -9.712  -0.875  0.00  0.00    +0.208 A 
ATOM     10  C   UNL     1      -2.859  -9.088  -0.847  0.00  0.00    +0.168 A 
ATOM     11  C   UNL     1      -1.842  -9.581  -0.035  0.00  0.00    -0.001 A 
ATOM     12  C   UNL     1      -0.513  -8.872  -0.043  0.00  0.00    +0.043 C 
ATOM     13  O   UNL     1      -5.240  -9.434  -1.571  0.00  0.00    -0.449 OA
ATOM     14  C   UNL     1      -6.030 -10.636  -1.510  0.00  0.00    +0.467 C 
ATOM     15  O   UNL     1      -5.602 -11.263  -0.286  0.00  0.00    -0.452 OA
ATOM     16  N   UNL     1       0.263  -9.242   1.152  0.00  0.00    +0.390 N 
ATOM     17  H   UNL     1      -0.220  -8.891   1.987  0.00  0.00    -0.080 HD
BRANCH  10  18
ATOM     18  O   UNL     1      -2.638  -7.990  -1.617  0.00  0.00    -0.491 OA
ATOM     19  C   UNL     1      -2.135  -8.213  -2.936  0.00  0.00    +0.277 C 
ENDBRANCH  10  18
ENDBRANCH   1  12
BRANCH   2  20
ATOM     20  C   UNL     1      -1.143  -4.803  -0.015  0.00  0.00    +0.317 C 
BRANCH  20  21
ATOM     21  O   UNL     1       0.115  -4.126  -0.022  0.00  0.00    -0.479 OA
BRANCH  21  22
ATOM     22  C   UNL     1       0.085  -2.769  -0.015  0.00  0.00    +0.125 A 
ATOM     23  C   UNL     1      -1.141  -2.105   0.001  0.00  0.00    +0.046 A 
ATOM     24  C   UNL     1      -1.188  -0.741   0.009  0.00  0.00    +0.016 A 
ATOM     25  C   UNL     1       0.002  -0.004   0.002  0.00  0.00    +0.029 A 
ATOM     26  C   UNL     1      -0.018   1.460   0.010  0.00  0.00    +0.072 A 
ATOM     27  C   UNL     1       1.171   2.118   0.002  0.00  0.00    +0.105 A 
ATOM     28  C   UNL     1       2.377   1.388  -0.014  0.00  0.00    +0.338 A 
ATOM     29  O   UNL     1       3.435   1.990  -0.022  0.00  0.00    -0.245 OA
ATOM     30  O   UNL     1       2.388   0.046  -0.021  0.00  0.00    -0.422 OA
ATOM     31  C   UNL     1       1.242  -0.669  -0.013  0.00  0.00    +0.143 A 
ATOM     32  C   UNL     1       1.272  -2.055  -0.022  0.00  0.00    +0.092 A 
BRANCH  26  33
ATOM     33  C   UNL     1      -1.321   2.216   0.020  0.00  0.00    +0.418 C 
ATOM     34  F   UNL     1      -1.063   3.591   0.027  0.00  0.00    -0.166 F 
ATOM     35  F   UNL     1      -2.061   1.886  -1.120  0.00  0.00    -0.166 F 
ATOM     36  F   UNL     1      -2.050   1.874   1.164  0.00  0.00    -0.166 F 
ENDBRANCH  26  33
ENDBRANCH  21  22
ENDBRANCH  20  21
ENDBRANCH   2  20
TORSDOF 6
