REMARK  Name = ZINC13405640
REMARK  15 active torsions:
REMARK  status: ('A' for Active; 'I' for Inactive)
REMARK    1  A    between atoms: C_1  and  C_2
REMARK    2  A    between atoms: C_2  and  O_3
REMARK    3  A    between atoms: O_3  and  C_4
REMARK    4  A    between atoms: C_4  and  C_6
REMARK    5  A    between atoms: C_7  and  C_36
REMARK    6  A    between atoms: C_8  and  C_13
REMARK    7  A    between atoms: C_9  and  C_12
REMARK    8  A    between atoms: C_13  and  C_15
REMARK    9  A    between atoms: C_15  and  S_16
REMARK   10  A    between atoms: S_16  and  C_17
REMARK   11  A    between atoms: N_27  and  C_28
REMARK   12  A    between atoms: C_28  and  C_30
REMARK   13  A    between atoms: C_28  and  C_33
REMARK   14  A    between atoms: C_30  and  C_31
REMARK   15  A    between atoms: C_30  and  C_32
REMARK                            x       y       z     vdW  Elec       q    Type
REMARK                         _______ _______ _______ _____ _____    ______ ____
ROOT
ATOM      1  C   UNL     1       5.358  -6.207   8.275  0.00  0.00    +0.173 A 
ATOM      2  N   UNL     1       5.658  -5.048   8.807  0.00  0.00    -0.223 NA
ATOM      3  C   UNL     1       6.611  -4.930   9.753  0.00  0.00    +0.079 A 
ATOM      4  C   UNL     1       6.931  -3.694  10.322  0.00  0.00    +0.028 A 
ATOM      5  C   UNL     1       7.904  -3.620  11.278  0.00  0.00    +0.002 A 
ATOM      6  C   UNL     1       8.583  -4.758  11.696  0.00  0.00    +0.001 A 
ATOM      7  C   UNL     1       8.293  -5.981  11.158  0.00  0.00    +0.015 A 
ATOM      8  C   UNL     1       7.304  -6.086  10.181  0.00  0.00    +0.065 A 
ATOM      9  C   UNL     1       6.951  -7.373   9.569  0.00  0.00    +0.263 A 
ATOM     10  O   UNL     1       7.511  -8.403   9.895  0.00  0.00    -0.267 OA
ATOM     11  N   UNL     1       5.973  -7.373   8.633  0.00  0.00    -0.273 N 
ENDROOT
BRANCH   1  12
ATOM     12  S   UNL     1       4.098  -6.265   7.045  0.00  0.00    -0.080 S 
BRANCH  12  13
ATOM     13  C   UNL     1       3.565  -4.539   6.880  0.00  0.00    +0.157 C 
BRANCH  13  14
ATOM     14  C   UNL     1       2.474  -4.447   5.845  0.00  0.00    +0.175 C 
ATOM     15  O   UNL     1       2.028  -5.457   5.342  0.00  0.00    -0.291 OA
BRANCH  14  18
ATOM     16  C   UNL     1       1.699  -1.173   4.411  0.00  0.00    +0.128 A 
ATOM     17  C   UNL     1       2.494  -2.279   4.458  0.00  0.00    -0.008 A 
ATOM     18  C   UNL     1       1.952  -3.136   5.445  0.00  0.00    +0.042 A 
ATOM     19  C   UNL     1       0.833  -2.502   5.962  0.00  0.00    +0.024 A 
ATOM     20  N   UNL     1       0.692  -1.322   5.340  0.00  0.00    -0.352 N 
ATOM     21  H   UNL     1      -0.011  -0.676   5.515  0.00  0.00    +0.166 HD
ATOM     22  C   UNL     1      -0.068  -3.043   7.042  0.00  0.00    +0.064 C 
ATOM     23  C   UNL     1       3.718  -2.540   3.618  0.00  0.00    +0.047 C 
BRANCH  16  24
ATOM     24  C   UNL     1       1.887  -0.018   3.526  0.00  0.00    +0.356 C 
ATOM     25  O   UNL     1       2.817   0.003   2.743  0.00  0.00    -0.243 OA
BRANCH  24  26
ATOM     26  O   UNL     1       1.028   1.020   3.582  0.00  0.00    -0.460 OA
BRANCH  26  28
ATOM     27  C   UNL     1       0.203   3.187   2.898  0.00  0.00    +0.048 C 
ATOM     28  C   UNL     1       1.272   2.111   2.692  0.00  0.00    +0.229 C 
ENDBRANCH  26  28
ENDBRANCH  24  26
ENDBRANCH  16  24
ENDBRANCH  14  18
ENDBRANCH  13  14
ENDBRANCH  12  13
ENDBRANCH   1  12
BRANCH  11  29
ATOM     29  C   UNL     1       5.577  -8.630   7.994  0.00  0.00    +0.208 C 
BRANCH  29  30
ATOM     30  C   UNL     1       6.316  -9.794   8.657  0.00  0.00    +0.017 C 
ATOM     31  C   UNL     1       5.850  -9.935  10.107  0.00  0.00    +0.010 C 
ATOM     32  C   UNL     1       6.016 -11.088   7.897  0.00  0.00    +0.010 C 
ENDBRANCH  29  30
BRANCH  29  33
ATOM     33  C   UNL     1       4.090  -8.825   8.150  0.00  0.00    +0.379 C 
ATOM     34  O   UNL     1       3.464  -9.439   7.303  0.00  0.00    -0.244 OA
ATOM     35  O   UNL     1       3.514  -8.370   9.123  0.00  0.00    -0.244 OA
ENDBRANCH  29  33
ENDBRANCH  11  29
TORSDOF 10
