REMARK  Name = ZINC12953469
REMARK  9 active torsions:
REMARK  status: ('A' for Active; 'I' for Inactive)
REMARK    1  A    between atoms: C_1  and  C_2
REMARK    2  A    between atoms: C_3  and  C_26
REMARK    3  A    between atoms: C_4  and  S_7
REMARK    4  A    between atoms: S_7  and  C_10
REMARK    5  A    between atoms: C_10  and  C_24
REMARK    6  A    between atoms: N_11  and  N_12
REMARK    7  A    between atoms: N_12  and  C_13
REMARK    8  A    between atoms: C_16  and  O_19
REMARK    9  A    between atoms: O_19  and  C_20
REMARK                            x       y       z     vdW  Elec       q    Type
REMARK                         _______ _______ _______ _____ _____    ______ ____
ROOT
ATOM      1  C   UNL     1       3.201  -0.689   7.231  0.00  0.00    +0.277 C 
ATOM      2  N   UNL     1       2.776  -0.222   6.090  0.00  0.00    -0.152 NA
ENDROOT
BRANCH   1   3
ATOM      3  S   UNL     1       2.445  -0.167   8.734  0.00  0.00    +0.072 S 
ATOM      4  O   UNL     1       1.059  -0.012   8.459  0.00  0.00    -0.161 OA
ATOM      5  O   UNL     1       2.927  -1.031   9.753  0.00  0.00    -0.161 OA
BRANCH   3   9
ATOM      6  C   UNL     1       5.798   3.415  10.875  0.00  0.00    +0.054 C 
ATOM      7  C   UNL     1       4.614   2.905  10.094  0.00  0.00    +0.026 A 
ATOM      8  C   UNL     1       4.213   1.595   9.874  0.00  0.00    +0.107 A 
ATOM      9  C   UNL     1       3.068   1.440   9.100  0.00  0.00    +0.210 A 
ATOM     10  N   UNL     1       2.459   2.505   8.654  0.00  0.00    -0.190 NA
ATOM     11  S   UNL     1       3.400   3.802   9.245  0.00  0.00    +0.010 S 
BRANCH   8  12
ATOM     12  C   UNL     1       4.934   0.477  10.404  0.00  0.00    +0.104 C 
ATOM     13  N   UNL     1       5.505  -0.410  10.825  0.00  0.00    -0.191 NA
ENDBRANCH   8  12
ENDBRANCH   3   9
ENDBRANCH   1   3
BRANCH   2  14
ATOM     14  N   UNL     1       1.812   0.794   6.065  0.00  0.00    -0.235 N 
ATOM     15  H   UNL     1       1.519   1.205   6.894  0.00  0.00    +0.174 HD
BRANCH  14  16
ATOM     16  C   UNL     1       1.274   1.217   4.847  0.00  0.00    +0.049 A 
ATOM     17  C   UNL     1       0.318   2.225   4.822  0.00  0.00    +0.028 A 
ATOM     18  C   UNL     1      -0.213   2.642   3.618  0.00  0.00    +0.048 A 
ATOM     19  C   UNL     1       0.207   2.054   2.433  0.00  0.00    +0.130 A 
ATOM     20  C   UNL     1       1.158   1.044   2.458  0.00  0.00    +0.048 A 
ATOM     21  C   UNL     1       1.694   0.629   3.660  0.00  0.00    +0.028 A 
BRANCH  19  22
ATOM     22  O   UNL     1      -0.317   2.465   1.248  0.00  0.00    -0.406 OA
BRANCH  22  23
ATOM     23  C   UNL     1       0.162   1.817   0.067  0.00  0.00    +0.575 C 
ATOM     24  F   UNL     1      -0.111   0.447   0.144  0.00  0.00    -0.133 F 
ATOM     25  F   UNL     1       1.543   2.012  -0.044  0.00  0.00    -0.133 F 
ATOM     26  F   UNL     1      -0.477   2.358  -1.054  0.00  0.00    -0.133 F 
ENDBRANCH  22  23
ENDBRANCH  19  22
ENDBRANCH  14  16
ENDBRANCH   2  14
BRANCH   1  27
ATOM     27  C   UNL     1       4.283  -1.627   7.262  0.00  0.00    +0.141 C 
ATOM     28  N   UNL     1       5.141  -2.371   7.287  0.00  0.00    -0.188 NA
ENDBRANCH   1  27
TORSDOF 8
