REMARK  Name = ZINC37277297
REMARK  7 active torsions:
REMARK  status: ('A' for Active; 'I' for Inactive)
REMARK    1  A    between atoms: C_1  and  C_2
REMARK    2  A    between atoms: C_2  and  C_3
REMARK    3  A    between atoms: C_3  and  C_5
REMARK    4  A    between atoms: C_3  and  C_11
REMARK    5  A    between atoms: N_13  and  C_14
REMARK    6  A    between atoms: N_17  and  C_20
REMARK    7  A    between atoms: C_25  and  C_26
REMARK                            x       y       z     vdW  Elec       q    Type
REMARK                         _______ _______ _______ _____ _____    ______ ____
ROOT
ATOM      1  C   UNL     1       4.141  -7.267  -0.790  0.00  0.00    +0.042 A 
ATOM      2  C   UNL     1       4.027  -8.645  -0.654  0.00  0.00    +0.024 A 
ATOM      3  C   UNL     1       4.886  -9.480  -1.338  0.00  0.00    +0.002 A 
ATOM      4  C   UNL     1       5.867  -8.954  -2.164  0.00  0.00    +0.001 A 
ATOM      5  C   UNL     1       5.996  -7.590  -2.311  0.00  0.00    +0.015 A 
ATOM      6  C   UNL     1       5.130  -6.731  -1.629  0.00  0.00    +0.058 A 
ENDROOT
BRANCH   6   7
ATOM      7  C   UNL     1       5.258  -5.271  -1.786  0.00  0.00    +0.248 C 
ATOM      8  O   UNL     1       5.350  -4.559  -0.805  0.00  0.00    -0.270 OA
ATOM      9  N   UNL     1       5.275  -4.725  -3.019  0.00  0.00    -0.294 N 
ATOM     10  C   UNL     1       5.033  -5.554  -4.208  0.00  0.00    +0.127 C 
ATOM     11  C   UNL     1       3.874  -4.942  -5.005  0.00  0.00    +0.125 C 
ATOM     12  N   UNL     1       4.133  -3.507  -5.183  0.00  0.00    -0.314 N 
ATOM     13  C   UNL     1       4.374  -2.678  -3.994  0.00  0.00    +0.125 C 
ATOM     14  C   UNL     1       5.528  -3.288  -3.197  0.00  0.00    +0.127 C 
ATOM     15  C   UNL     1       4.150  -2.944  -6.454  0.00  0.00    +0.099 A 
ATOM     16  C   UNL     1       4.054  -3.764  -7.573  0.00  0.00    +0.042 A 
ATOM     17  C   UNL     1       4.072  -3.191  -8.831  0.00  0.00    +0.005 A 
ATOM     18  C   UNL     1       4.185  -1.810  -8.929  0.00  0.00    +0.018 A 
ATOM     19  C   UNL     1       4.276  -1.056  -7.776  0.00  0.00    +0.084 A 
ATOM     20  N   UNL     1       4.251  -1.630  -6.588  0.00  0.00    -0.350 N 
ATOM     21  H   UNL     1       4.312  -1.077  -5.794  0.00  0.00    +0.166 HD
ENDBRANCH   6   7
BRANCH   1  25
ATOM     22  C   UNL     1       2.235  -3.989   0.890  0.00  0.00    +0.076 C 
ATOM     23  C   UNL     1       3.535  -4.564   1.456  0.00  0.00    +0.041 C 
ATOM     24  C   UNL     1       3.522  -6.088   1.307  0.00  0.00    +0.107 C 
ATOM     25  N   UNL     1       3.277  -6.424  -0.102  0.00  0.00    -0.329 N 
ATOM     26  C   UNL     1       2.102  -5.850  -0.771  0.00  0.00    +0.107 C 
ATOM     27  C   UNL     1       2.130  -4.328  -0.599  0.00  0.00    +0.041 C 
BRANCH  22  30
ATOM     28  C   UNL     1       1.812  -1.994   2.223  0.00  0.00    +0.221 C 
ATOM     29  O   UNL     1       1.442  -2.712   3.128  0.00  0.00    -0.275 OA
ATOM     30  N   UNL     1       2.229  -2.534   1.061  0.00  0.00    -0.312 N 
ATOM     31  H   UNL     1       2.525  -1.960   0.338  0.00  0.00    +0.149 HD
BRANCH  28  32
ATOM     32  C   UNL     1       1.806  -0.497   2.399  0.00  0.00    +0.105 C 
BRANCH  32  33
ATOM     33  C   UNL     1       1.300  -0.155   3.777  0.00  0.00    -0.036 A 
ATOM     34  C   UNL     1       0.032  -0.547   4.165  0.00  0.00    +0.004 A 
ATOM     35  C   UNL     1      -0.432  -0.233   5.428  0.00  0.00    +0.000 A 
ATOM     36  C   UNL     1       0.372   0.472   6.305  0.00  0.00    +0.000 A 
ATOM     37  C   UNL     1       1.640   0.862   5.917  0.00  0.00    +0.000 A 
ATOM     38  C   UNL     1       2.106   0.545   4.655  0.00  0.00    +0.004 A 
ENDBRANCH  32  33
BRANCH  32  40
ATOM     39  C   UNL     1       0.982   1.660   1.446  0.00  0.00    +0.005 C 
ATOM     40  C   UNL     1       0.892   0.136   1.348  0.00  0.00    +0.014 C 
ENDBRANCH  32  40
ENDBRANCH  28  32
ENDBRANCH  22  30
ENDBRANCH   1  25
TORSDOF 6
