REMARK  Name = ZINC39159823
REMARK  5 active torsions:
REMARK  status: ('A' for Active; 'I' for Inactive)
REMARK    1  A    between atoms: C_10  and  O_11
REMARK    2  A    between atoms: O_11  and  C_12
REMARK    3  A    between atoms: C_12  and  C_13
REMARK    4  A    between atoms: N_24  and  N_25
REMARK    5  A    between atoms: C_26  and  C_27
REMARK                            x       y       z     vdW  Elec       q    Type
REMARK                         _______ _______ _______ _____ _____    ______ ____
ROOT
ATOM      1  C   UNL     1       7.479   0.427   0.002  0.00  0.00    +0.222 C 
ATOM      2  N   UNL     1       7.396   1.363   1.130  0.00  0.00    -0.321 N 
ATOM      3  C   UNL     1       6.338   2.264   1.168  0.00  0.00    +0.041 A 
ATOM      4  C   UNL     1       5.819   2.735   2.361  0.00  0.00    +0.024 A 
ATOM      5  C   UNL     1       4.762   3.626   2.342  0.00  0.00    +0.002 A 
ATOM      6  C   UNL     1       4.219   4.050   1.139  0.00  0.00    +0.001 A 
ATOM      7  C   UNL     1       4.727   3.593  -0.059  0.00  0.00    +0.015 A 
ATOM      8  C   UNL     1       5.793   2.696  -0.055  0.00  0.00    +0.059 A 
ATOM      9  C   UNL     1       6.380   2.184  -1.305  0.00  0.00    +0.269 C 
ATOM     10  O   UNL     1       6.117   2.711  -2.369  0.00  0.00    -0.268 OA
ATOM     11  N   UNL     1       7.211   1.126  -1.254  0.00  0.00    -0.165 N 
ATOM     12  H   UNL     1       8.064   1.352   1.833  0.00  0.00    +0.148 HD
ENDROOT
BRANCH  11  13
ATOM     13  N   UNL     1       7.829   0.687  -2.432  0.00  0.00    -0.183 NA
ATOM     14  C   UNL     1       8.552  -0.406  -2.424  0.00  0.00    +0.136 C 
BRANCH  14  15
ATOM     15  C   UNL     1       9.276  -0.775  -3.566  0.00  0.00    +0.000 C 
ATOM     16  C   UNL     1      10.082  -1.900  -3.724  0.00  0.00    +0.004 A 
ATOM     17  C   UNL     1      10.417  -2.964  -2.858  0.00  0.00    +0.010 A 
ATOM     18  C   UNL     1      11.246  -3.948  -3.289  0.00  0.00    +0.001 A 
ATOM     19  C   UNL     1      11.784  -3.939  -4.579  0.00  0.00    +0.002 A 
ATOM     20  C   UNL     1      11.507  -2.951  -5.463  0.00  0.00    +0.026 A 
ATOM     21  C   UNL     1      10.647  -1.886  -5.085  0.00  0.00    +0.043 A 
ATOM     22  N   UNL     1      10.229  -0.827  -5.746  0.00  0.00    -0.380 N 
ATOM     23  C   UNL     1       9.340  -0.039  -4.886  0.00  0.00    +0.150 C 
ATOM     24  H   UNL     1      10.468  -0.605  -6.659  0.00  0.00    +0.160 HD
ENDBRANCH  14  15
ENDBRANCH  11  13
BRANCH   1  25
ATOM     25  C   UNL     1       6.449  -0.688   0.191  0.00  0.00    +0.273 C 
BRANCH  25  26
ATOM     26  O   UNL     1       5.138  -0.122   0.238  0.00  0.00    -0.488 OA
BRANCH  26  36
ATOM     27  C   UNL     1       0.159   0.406   0.575  0.00  0.00    +0.001 A 
ATOM     28  C   UNL     1       1.209   1.306   0.406  0.00  0.00    +0.001 A 
ATOM     29  C   UNL     1       2.499   0.874   0.347  0.00  0.00    +0.012 A 
ATOM     30  C   UNL     1       2.778  -0.498   0.459  0.00  0.00    +0.024 A 
ATOM     31  C   UNL     1       1.710  -1.413   0.631  0.00  0.00    -0.014 A 
ATOM     32  C   UNL     1       0.391  -0.930   0.687  0.00  0.00    +0.008 A 
ATOM     33  C   UNL     1       1.989  -2.786   0.743  0.00  0.00    +0.009 A 
ATOM     34  C   UNL     1       3.279  -3.220   0.685  0.00  0.00    +0.004 A 
ATOM     35  C   UNL     1       4.331  -2.325   0.516  0.00  0.00    +0.046 A 
ATOM     36  C   UNL     1       4.100  -0.983   0.403  0.00  0.00    +0.128 A 
ENDBRANCH  26  36
ENDBRANCH  25  26
ENDBRANCH   1  25
TORSDOF 5
