REMARK  Name = ZINC13214125
REMARK  9 active torsions:
REMARK  status: ('A' for Active; 'I' for Inactive)
REMARK    1  A    between atoms: C_1  and  O_2
REMARK    2  A    between atoms: O_2  and  C_3
REMARK    3  A    between atoms: C_7  and  C_13
REMARK    4  A    between atoms: C_8  and  O_9
REMARK    5  A    between atoms: O_9  and  C_10
REMARK    6  A    between atoms: C_15  and  C_30
REMARK    7  A    between atoms: N_19  and  C_20
REMARK    8  A    between atoms: C_24  and  C_26
REMARK    9  A    between atoms: C_30  and  C_32
REMARK                            x       y       z     vdW  Elec       q    Type
REMARK                         _______ _______ _______ _____ _____    ______ ____
ROOT
ATOM      1  C   UNL     1       1.672  -3.902  -2.048  0.00  0.00    +0.153 C 
ATOM      2  C   UNL     1       2.794  -4.313  -1.124  0.00  0.00    +0.080 C 
ATOM      3  C   UNL     1       3.696  -4.981  -1.879  0.00  0.00    +0.250 C 
ATOM      4  C   UNL     1       3.219  -5.033  -3.274  0.00  0.00    +0.292 C 
ATOM      5  O   UNL     1       3.809  -5.567  -4.194  0.00  0.00    -0.266 OA
ATOM      6  N   UNL     1       2.034  -4.403  -3.380  0.00  0.00    -0.253 N 
ATOM      7  O   UNL     1       4.854  -5.518  -1.425  0.00  0.00    -0.282 OA
ENDROOT
BRANCH   1  12
ATOM      8  C   UNL     1       0.627  -0.368  -1.182  0.00  0.00    +0.162 A 
ATOM      9  C   UNL     1       1.321   0.361  -2.134  0.00  0.00    +0.049 A 
ATOM     10  C   UNL     1       2.125  -0.289  -3.052  0.00  0.00    +0.004 A 
ATOM     11  C   UNL     1       2.237  -1.667  -3.023  0.00  0.00    +0.009 A 
ATOM     12  C   UNL     1       1.547  -2.400  -2.076  0.00  0.00    +0.023 A 
ATOM     13  C   UNL     1       0.745  -1.754  -1.149  0.00  0.00    +0.174 A 
BRANCH   8  15
ATOM     14  C   UNL     1      -0.237   1.694  -0.371  0.00  0.00    +0.277 C 
ATOM     15  O   UNL     1      -0.164   0.270  -0.278  0.00  0.00    -0.491 OA
ENDBRANCH   8  15
BRANCH  13  16
ATOM     16  O   UNL     1       0.070  -2.474  -0.213  0.00  0.00    -0.430 OA
BRANCH  16  17
ATOM     17  C   UNL     1      -1.291  -2.800  -0.503  0.00  0.00    +0.541 C 
ATOM     18  F   UNL     1      -2.005  -1.627  -0.772  0.00  0.00    -0.166 F 
ATOM     19  F   UNL     1      -1.341  -3.643  -1.619  0.00  0.00    -0.166 F 
ENDBRANCH  16  17
ENDBRANCH  13  16
ENDBRANCH   1  12
BRANCH   6  20
ATOM     20  C   UNL     1       1.281  -4.252  -4.548  0.00  0.00    +0.038 A 
ATOM     21  C   UNL     1       0.070  -3.569  -4.512  0.00  0.00    +0.023 A 
ATOM     22  C   UNL     1      -0.678  -3.417  -5.664  0.00  0.00    +0.003 A 
ATOM     23  C   UNL     1      -0.229  -3.942  -6.859  0.00  0.00    +0.015 A 
ATOM     24  C   UNL     1       0.986  -4.630  -6.906  0.00  0.00    +0.065 A 
ATOM     25  C   UNL     1       1.744  -4.779  -5.743  0.00  0.00    +0.038 A 
BRANCH  24  26
ATOM     26  C   UNL     1       1.468  -5.193  -8.182  0.00  0.00    +0.387 C 
ATOM     27  O   UNL     1       0.804  -5.058  -9.200  0.00  0.00    -0.241 OA
ATOM     28  O   UNL     1       2.532  -5.795  -8.222  0.00  0.00    -0.241 OA
ENDBRANCH  24  26
ENDBRANCH   6  20
BRANCH   2  29
ATOM     29  C   UNL     1       2.888  -4.039   0.315  0.00  0.00    +0.230 C 
ATOM     30  O   UNL     1       3.829  -3.402   0.754  0.00  0.00    -0.283 OA
BRANCH  29  31
ATOM     31  C   UNL     1       1.849  -4.532   1.224  0.00  0.00    +0.175 A 
ATOM     32  C   UNL     1       1.756  -4.264   2.572  0.00  0.00    +0.053 A 
ATOM     33  C   UNL     1       0.616  -4.936   3.036  0.00  0.00    +0.042 A 
ATOM     34  C   UNL     1       0.069  -5.573   1.976  0.00  0.00    +0.196 A 
ATOM     35  O   UNL     1       0.809  -5.323   0.888  0.00  0.00    -0.460 OA
ENDBRANCH  29  31
ENDBRANCH   2  29
TORSDOF 8
