REMARK  Name = ZINC32902370
REMARK  7 active torsions:
REMARK  status: ('A' for Active; 'I' for Inactive)
REMARK    1  A    between atoms: C_1  and  C_2
REMARK    2  A    between atoms: N_4  and  C_5
REMARK    3  A    between atoms: C_5  and  C_6
REMARK    4  A    between atoms: C_6  and  N_7
REMARK    5  A    between atoms: C_8  and  C_10
REMARK    6  A    between atoms: N_15  and  S_17
REMARK    7  A    between atoms: S_17  and  C_20
REMARK                            x       y       z     vdW  Elec       q    Type
REMARK                         _______ _______ _______ _____ _____    ______ ____
ROOT
ATOM      1  C   UNL     1      -0.927   1.718   3.671  0.00  0.00    +0.091 C 
ATOM      2  C   UNL     1      -0.945   3.249   3.682  0.00  0.00    +0.015 C 
ATOM      3  C   UNL     1      -1.690   3.743   4.924  0.00  0.00    +0.018 C 
ATOM      4  C   UNL     1      -0.958   3.259   6.180  0.00  0.00    +0.109 C 
ATOM      5  N   UNL     1      -0.809   1.799   6.107  0.00  0.00    -0.175 NA
ATOM      6  C   UNL     1      -0.187   1.211   4.913  0.00  0.00    +0.122 C 
ENDROOT
BRANCH   1   8
ATOM      7  N   UNL     1      -0.698   1.558   1.213  0.00  0.00    -0.314 N 
ATOM      8  C   UNL     1      -0.222   1.232   2.431  0.00  0.00    +0.217 C 
ATOM      9  O   UNL     1       0.774   0.548   2.529  0.00  0.00    -0.275 OA
ATOM     10  H   UNL     1      -1.602   2.179   1.124  0.00  0.00    +0.149 HD
BRANCH   7  11
ATOM     11  C   UNL     1      -0.013   1.086   0.008  0.00  0.00    +0.123 C 
BRANCH  11  12
ATOM     12  C   UNL     1      -0.753   1.593  -1.232  0.00  0.00    +0.123 C 
BRANCH  12  16
ATOM     13  C   UNL     1       0.162   0.960  -4.895  0.00  0.00    +0.109 C 
ATOM     14  C   UNL     1      -0.543   1.446  -3.655  0.00  0.00    +0.210 C 
ATOM     15  O   UNL     1      -1.540   2.130  -3.753  0.00  0.00    -0.276 OA
ATOM     16  N   UNL     1      -0.067   1.120  -2.437  0.00  0.00    -0.314 N 
ATOM     17  H   UNL     1       0.837   0.499  -2.348  0.00  0.00    +0.149 HD
ENDBRANCH  12  16
ENDBRANCH  11  12
ENDBRANCH   7  11
ENDBRANCH   1   8
BRANCH   5  18
ATOM     18  S   UNL     1      -1.331   0.834   7.348  0.00  0.00    +0.067 S 
ATOM     19  O   UNL     1      -2.334   1.567   8.038  0.00  0.00    -0.152 OA
ATOM     20  O   UNL     1      -1.574  -0.450   6.789  0.00  0.00    -0.152 OA
BRANCH  18  21
ATOM     21  C   UNL     1       0.018   0.650   8.467  0.00  0.00    +0.144 A 
ATOM     22  C   UNL     1       0.352   1.416   9.533  0.00  0.00    +0.037 A 
ATOM     23  C   UNL     1       1.465   1.076  10.281  0.00  0.00    +0.025 A 
ATOM     24  C   UNL     1       2.194  -0.009   9.918  0.00  0.00    +0.057 A 
ATOM     25  S   UNL     1       1.301  -0.591   8.486  0.00  0.00    -0.062 S 
ATOM     26 BR   UNL     1       3.751  -0.720  10.721  0.00  0.00    -0.043 Br
ENDBRANCH  18  21
ENDBRANCH   5  18
TORSDOF 6
