REMARK  Name = ZINC45922561
REMARK  10 active torsions:
REMARK  status: ('A' for Active; 'I' for Inactive)
REMARK    1  A    between atoms: C_1  and  C_2
REMARK    2  A    between atoms: C_5  and  N_9
REMARK    3  A    between atoms: C_6  and  C_8
REMARK    4  A    between atoms: N_14  and  C_15
REMARK    5  A    between atoms: C_15  and  C_16
REMARK    6  A    between atoms: N_18  and  C_19
REMARK    7  A    between atoms: C_23  and  C_26
REMARK    8  A    between atoms: C_24  and  C_25
REMARK    9  A    between atoms: C_33  and  O_34
REMARK   10  A    between atoms: O_34  and  C_35
REMARK                            x       y       z     vdW  Elec       q    Type
REMARK                         _______ _______ _______ _____ _____    ______ ____
ROOT
ATOM      1  N   UNL     1       0.054  -4.150  -0.012  0.00  0.00    -0.213 N 
ATOM      2  C   UNL     1      -1.025  -4.956  -0.115  0.00  0.00    +0.279 A 
ATOM      3  O   UNL     1      -2.185  -4.594  -0.209  0.00  0.00    -0.265 OA
ATOM      4  C   UNL     1      -0.574  -6.277  -0.095  0.00  0.00    +0.085 A 
ATOM      5  C   UNL     1       0.790  -6.263   0.021  0.00  0.00    +0.226 A 
ATOM      6  N   UNL     1       1.196  -4.963   0.068  0.00  0.00    -0.236 N 
ATOM      7  O   UNL     1       1.529  -7.388   0.066  0.00  0.00    -0.434 OA
ATOM      8  C   UNL     1       0.944  -8.558  -0.311  0.00  0.00    +0.175 A 
ATOM      9  C   UNL     1      -0.425  -8.697  -0.446  0.00  0.00    +0.003 A 
ATOM     10  C   UNL     1      -0.960  -9.916  -0.835  0.00  0.00    +0.008 A 
ATOM     11  C   UNL     1      -0.136 -10.994  -1.089  0.00  0.00    +0.004 A 
ATOM     12  C   UNL     1       1.234 -10.863  -0.955  0.00  0.00    +0.049 A 
ATOM     13  C   UNL     1       1.776  -9.650  -0.568  0.00  0.00    +0.162 A 
ATOM     14  C   UNL     1      -1.372  -7.551  -0.179  0.00  0.00    +0.085 C 
ENDROOT
BRANCH   1  19
ATOM     15  C   UNL     1      -0.016   1.522   0.059  0.00  0.00    +0.044 C 
ATOM     16  C   UNL     1       0.003   0.015   0.040  0.00  0.00    -0.050 A 
ATOM     17  C   UNL     1       0.003  -0.660  -1.167  0.00  0.00    +0.005 A 
ATOM     18  C   UNL     1       0.020  -2.041  -1.188  0.00  0.00    +0.028 A 
ATOM     19  C   UNL     1       0.037  -2.752   0.005  0.00  0.00    +0.070 A 
ATOM     20  C   UNL     1       0.037  -2.071   1.216  0.00  0.00    -0.025 A 
ATOM     21  C   UNL     1       0.025  -0.690   1.230  0.00  0.00    +0.008 A 
ATOM     22  C   UNL     1       0.056  -2.838   2.513  0.00  0.00    +0.046 C 
ENDBRANCH   1  19
BRANCH  13  23
ATOM     23  O   UNL     1       3.123  -9.521  -0.438  0.00  0.00    -0.491 OA
ATOM     24  C   UNL     1       3.916 -10.678  -0.716  0.00  0.00    +0.277 C 
ENDBRANCH  13  23
BRANCH   6  25
ATOM     25  C   UNL     1       2.579  -4.495   0.186  0.00  0.00    +0.241 C 
BRANCH  25  26
ATOM     26  C   UNL     1       2.979  -4.472   1.638  0.00  0.00    +0.239 C 
ATOM     27  O   UNL     1       2.187  -4.813   2.491  0.00  0.00    -0.273 OA
ATOM     28  N   UNL     1       4.218  -4.074   1.990  0.00  0.00    -0.284 N 
ATOM     29  H   UNL     1       4.877  -3.878   1.305  0.00  0.00    +0.155 HD
BRANCH  28  30
ATOM     30  C   UNL     1       4.553  -3.942   3.342  0.00  0.00    +0.037 A 
ATOM     31  C   UNL     1       3.561  -3.710   4.286  0.00  0.00    +0.023 A 
ATOM     32  C   UNL     1       3.896  -3.581   5.619  0.00  0.00    +0.002 A 
ATOM     33  C   UNL     1       5.217  -3.682   6.015  0.00  0.00    +0.004 A 
ATOM     34  C   UNL     1       6.207  -3.912   5.078  0.00  0.00    -0.046 A 
ATOM     35  C   UNL     1       5.878  -4.049   3.744  0.00  0.00    -0.026 A 
ATOM     36  C   UNL     1       6.957  -4.308   2.724  0.00  0.00    +0.046 C 
ATOM     37  C   UNL     1       7.645  -4.021   5.514  0.00  0.00    +0.044 C 
ENDBRANCH  28  30
ENDBRANCH  25  26
ENDBRANCH   6  25
TORSDOF 5
