REMARK  Name = ZINC11695891
REMARK  6 active torsions:
REMARK  status: ('A' for Active; 'I' for Inactive)
REMARK    1  A    between atoms: C_4  and  C_7
REMARK    2  A    between atoms: C_10  and  S_22
REMARK    3  A    between atoms: C_11  and  S_13
REMARK    4  A    between atoms: S_13  and  C_16
REMARK    5  A    between atoms: S_22  and  C_23
REMARK    6  A    between atoms: C_23  and  C_24
REMARK                            x       y       z     vdW  Elec       q    Type
REMARK                         _______ _______ _______ _____ _____    ______ ____
ROOT
ATOM      1  C   UNL     1       3.238   5.274  -3.636  0.00  0.00    +0.141 A 
ATOM      2  N   UNL     1       3.950   4.105  -3.695  0.00  0.00    -0.332 N 
ATOM      3  H   UNL     1       4.439   3.744  -4.490  0.00  0.00    +0.168 HD
ATOM      4  C   UNL     1       3.865   3.523  -2.457  0.00  0.00    +0.120 A 
ATOM      5  C   UNL     1       3.102   4.342  -1.688  0.00  0.00    +0.214 A 
ATOM      6  N   UNL     1       2.739   5.396  -2.427  0.00  0.00    -0.208 NA
ENDROOT
BRANCH   1  10
ATOM      7  C   UNL     1       2.730   8.036  -6.823  0.00  0.00    +0.000 A 
ATOM      8  C   UNL     1       2.147   8.288  -5.593  0.00  0.00    +0.001 A 
ATOM      9  C   UNL     1       2.308   7.395  -4.554  0.00  0.00    +0.011 A 
ATOM     10  C   UNL     1       3.061   6.235  -4.745  0.00  0.00    +0.017 A 
ATOM     11  C   UNL     1       3.651   5.990  -5.986  0.00  0.00    +0.011 A 
ATOM     12  C   UNL     1       3.478   6.888  -7.019  0.00  0.00    +0.001 A 
ENDBRANCH   1  10
BRANCH   5  13
ATOM     13  S   UNL     1       2.670   4.067  -0.002  0.00  0.00    +0.045 S 
ATOM     14  O   UNL     1       2.387   5.342   0.558  0.00  0.00    -0.163 OA
ATOM     15  O   UNL     1       3.661   3.202   0.535  0.00  0.00    -0.163 OA
BRANCH  13  16
ATOM     16  C   UNL     1       1.156   3.165   0.008  0.00  0.00    +0.095 A 
ATOM     17  C   UNL     1       1.175   1.783   0.000  0.00  0.00    +0.027 A 
ATOM     18  C   UNL     1      -0.013   1.076   0.008  0.00  0.00    +0.002 A 
ATOM     19  C   UNL     1      -1.219   1.751   0.017  0.00  0.00    +0.000 A 
ATOM     20  C   UNL     1      -1.238   3.133   0.030  0.00  0.00    +0.002 A 
ATOM     21  C   UNL     1      -0.050   3.840   0.023  0.00  0.00    +0.027 A 
ENDBRANCH  13  16
ENDBRANCH   5  13
BRANCH   4  22
ATOM     22  S   UNL     1       4.601   2.001  -1.960  0.00  0.00    -0.095 S 
BRANCH  22  23
ATOM     23  C   UNL     1       5.470   1.427  -3.445  0.00  0.00    +0.172 C 
BRANCH  23  24
ATOM     24  C   UNL     1       6.152   0.116  -3.153  0.00  0.00    +0.236 C 
ATOM     25  O   UNL     1       6.062  -0.382  -2.051  0.00  0.00    -0.274 OA
ATOM     26  N   UNL     1       6.863  -0.503  -4.116  0.00  0.00    -0.209 N 
ATOM     27  C   UNL     1       7.528  -1.719  -3.935  0.00  0.00    +0.048 A 
ATOM     28  C   UNL     1       7.628  -2.545  -2.817  0.00  0.00    +0.024 A 
ATOM     29  C   UNL     1       8.354  -3.716  -2.884  0.00  0.00    +0.002 A 
ATOM     30  C   UNL     1       8.988  -4.080  -4.059  0.00  0.00    +0.000 A 
ATOM     31  C   UNL     1       8.892  -3.265  -5.173  0.00  0.00    +0.006 A 
ATOM     32  C   UNL     1       8.168  -2.095  -5.108  0.00  0.00    -0.017 A 
ATOM     33  C   UNL     1       7.875  -1.011  -6.119  0.00  0.00    +0.133 C 
ATOM     34  C   UNL     1       7.011  -0.025  -5.363  0.00  0.00    +0.231 C 
ATOM     35  O   UNL     1       6.541   1.004  -5.800  0.00  0.00    -0.274 OA
ENDBRANCH  23  24
ENDBRANCH  22  23
ENDBRANCH   4  22
TORSDOF 6
