REMARK  Name = ZINC02123304
REMARK  8 active torsions:
REMARK  status: ('A' for Active; 'I' for Inactive)
REMARK    1  A    between atoms: C_1  and  C_2
REMARK    2  A    between atoms: C_7  and  C_20
REMARK    3  A    between atoms: C_12  and  C_13
REMARK    4  A    between atoms: C_13  and  C_14
REMARK    5  A    between atoms: C_24  and  C_25
REMARK    6  A    between atoms: C_24  and  N_69
REMARK    7  A    between atoms: C_25  and  C_26
REMARK    8  A    between atoms: C_25  and  C_32
REMARK                            x       y       z     vdW  Elec       q    Type
REMARK                         _______ _______ _______ _____ _____    ______ ____
ROOT
ATOM      1  C   UNL     1       5.149   2.788  -2.834  0.00  0.00    +0.045 C 
ATOM      2  C   UNL     1       3.879   3.575  -2.637  0.00  0.00    -0.030 A 
ATOM      3  C   UNL     1       2.699   2.965  -2.020  0.00  0.00    +0.021 A 
ATOM      4  C   UNL     1       2.716   1.632  -1.598  0.00  0.00    +0.017 A 
ATOM      5  C   UNL     1       1.605   1.081  -1.024  0.00  0.00    -0.021 A 
ATOM      6  C   UNL     1       0.452   1.843  -0.856  0.00  0.00    +0.125 A 
ATOM      7  C   UNL     1       0.418   3.167  -1.270  0.00  0.00    +0.034 A 
ATOM      8  C   UNL     1       1.537   3.742  -1.855  0.00  0.00    +0.146 A 
ATOM      9  O   UNL     1       1.509   5.027  -2.259  0.00  0.00    -0.422 OA
ATOM     10  C   UNL     1       2.588   5.580  -2.823  0.00  0.00    +0.341 A 
ATOM     11  O   UNL     1       2.529   6.744  -3.177  0.00  0.00    -0.245 OA
ATOM     12  C   UNL     1       3.790   4.874  -3.024  0.00  0.00    +0.045 A 
ATOM     13  C   UNL     1      -0.836   3.981  -1.083  0.00  0.00    +0.051 C 
ATOM     14  O   UNL     1      -0.658   1.305  -0.284  0.00  0.00    -0.509 OA
ATOM     15  C   UNL     1      -0.724  -0.121  -0.205  0.00  0.00    +0.157 C 
ATOM     16  C   UNL     1       1.647  -0.360  -0.580  0.00  0.00    -0.034 C 
ATOM     17  N   UNL     1       0.547  -0.603   0.373  0.00  0.00    +0.406 N 
ATOM     18  H   UNL     1       0.737  -0.091   1.242  0.00  0.00    -0.076 HD
ENDROOT
BRANCH  12  19
ATOM     19  C   UNL     1       4.971   5.557  -3.665  0.00  0.00    +0.077 C 
BRANCH  19  20
ATOM     20  C   UNL     1       5.821   6.197  -2.598  0.00  0.00    -0.043 A 
ATOM     21  C   UNL     1       5.578   7.502  -2.211  0.00  0.00    +0.004 A 
ATOM     22  C   UNL     1       6.355   8.087  -1.228  0.00  0.00    +0.000 A 
ATOM     23  C   UNL     1       7.381   7.371  -0.641  0.00  0.00    +0.000 A 
ATOM     24  C   UNL     1       7.628   6.068  -1.032  0.00  0.00    +0.000 A 
ATOM     25  C   UNL     1       6.848   5.481  -2.010  0.00  0.00    +0.004 A 
ENDBRANCH  19  20
ENDBRANCH  12  19
BRANCH  17  26
ATOM     26  C   UNL     1       0.451  -2.049   0.677  0.00  0.00    -0.061 C 
BRANCH  26  27
ATOM     27  C   UNL     1      -0.554  -2.253   1.812  0.00  0.00    +0.033 C 
BRANCH  27  28
ATOM     28  C   UNL     1      -0.742  -3.727   2.059  0.00  0.00    -0.042 A 
ATOM     29  C   UNL     1      -2.014  -4.267   2.088  0.00  0.00    +0.004 A 
ATOM     30  C   UNL     1      -2.185  -5.621   2.310  0.00  0.00    +0.000 A 
ATOM     31  C   UNL     1      -1.085  -6.433   2.513  0.00  0.00    +0.000 A 
ATOM     32  C   UNL     1       0.187  -5.892   2.489  0.00  0.00    +0.000 A 
ATOM     33  C   UNL     1       0.359  -4.539   2.262  0.00  0.00    +0.004 A 
ENDBRANCH  27  28
BRANCH  27  34
ATOM     34  C   UNL     1      -0.036  -1.595   3.065  0.00  0.00    -0.042 A 
ATOM     35  C   UNL     1       1.237  -1.883   3.521  0.00  0.00    +0.004 A 
ATOM     36  C   UNL     1       1.714  -1.276   4.668  0.00  0.00    +0.000 A 
ATOM     37  C   UNL     1       0.915  -0.389   5.364  0.00  0.00    +0.000 A 
ATOM     38  C   UNL     1      -0.360  -0.106   4.912  0.00  0.00    +0.000 A 
ATOM     39  C   UNL     1      -0.835  -0.708   3.762  0.00  0.00    +0.004 A 
ENDBRANCH  27  34
ENDBRANCH  26  27
ENDBRANCH  17  26
TORSDOF 6
