REMARK  Name = ZINC54842282
REMARK  12 active torsions:
REMARK  status: ('A' for Active; 'I' for Inactive)
REMARK    1  A    between atoms: C_1  and  C_2
REMARK    2  A    between atoms: C_2  and  C_3
REMARK    3  A    between atoms: C_3  and  C_5
REMARK    4  A    between atoms: C_3  and  N_6
REMARK    5  A    between atoms: C_7  and  C_9
REMARK    6  A    between atoms: C_12  and  N_15
REMARK    7  A    between atoms: C_16  and  C_18
REMARK    8  A    between atoms: N_20  and  C_21
REMARK    9  A    between atoms: C_21  and  C_22
REMARK   10  A    between atoms: C_22  and  N_27
REMARK   11  A    between atoms: N_27  and  C_28
REMARK   12  A    between atoms: N_27  and  C_29
REMARK                            x       y       z     vdW  Elec       q    Type
REMARK                         _______ _______ _______ _____ _____    ______ ____
ROOT
ATOM      1  N   UNL     1      -2.624   1.444  -8.235  0.00  0.00    -0.278 N 
ATOM      2  C   UNL     1      -1.953   1.697  -9.377  0.00  0.00    +0.303 C 
ATOM      3  O   UNL     1      -0.754   1.513  -9.429  0.00  0.00    -0.265 OA
ATOM      4  H   UNL     1      -3.591   1.519  -8.214  0.00  0.00    +0.155 HD
ENDROOT
BRANCH   1   8
ATOM      5  C   UNL     1      -0.546   0.341  -4.799  0.00  0.00    +0.037 A 
ATOM      6  C   UNL     1       0.029   1.232  -5.710  0.00  0.00    +0.015 A 
ATOM      7  C   UNL     1      -0.660   1.594  -6.845  0.00  0.00    +0.024 A 
ATOM      8  C   UNL     1      -1.929   1.075  -7.086  0.00  0.00    +0.034 A 
ATOM      9  C   UNL     1      -2.505   0.188  -6.181  0.00  0.00    +0.024 A 
ATOM     10  C   UNL     1      -1.818  -0.183  -5.047  0.00  0.00    +0.015 A 
BRANCH   5  12
ATOM     11  N   UNL     1       1.416   0.456  -3.344  0.00  0.00    -0.309 N 
ATOM     12  C   UNL     1       0.190  -0.050  -3.581  0.00  0.00    +0.244 C 
ATOM     13  O   UNL     1      -0.310  -0.829  -2.792  0.00  0.00    -0.270 OA
ATOM     14  H   UNL     1       1.815   1.077  -3.973  0.00  0.00    +0.149 HD
BRANCH  11  15
ATOM     15  C   UNL     1       2.147   0.068  -2.135  0.00  0.00    +0.070 C 
ATOM     16  C   UNL     1       1.714   0.959  -0.969  0.00  0.00    +0.028 C 
BRANCH  15  18
ATOM     17  C   UNL     1       4.106  -0.748  -3.454  0.00  0.00    +0.005 C 
ATOM     18  C   UNL     1       3.650   0.233  -2.372  0.00  0.00    +0.018 C 
ENDBRANCH  15  18
ENDBRANCH  11  15
ENDBRANCH   5  12
ENDBRANCH   1   8
BRANCH   2  19
ATOM     19  C   UNL     1      -2.684   2.203 -10.576  0.00  0.00    +0.299 C 
ATOM     20  O   UNL     1      -3.883   2.386 -10.524  0.00  0.00    -0.265 OA
ATOM     21  N   UNL     1      -2.013   2.455 -11.718  0.00  0.00    -0.309 N 
ATOM     22  H   UNL     1      -1.056   2.308 -11.760  0.00  0.00    +0.149 HD
BRANCH  21  23
ATOM     23  C   UNL     1      -2.731   2.951 -12.895  0.00  0.00    +0.093 C 
BRANCH  23  24
ATOM     24  C   UNL     1      -1.770   3.027 -14.083  0.00  0.00    -0.050 C 
ATOM     25  C   UNL     1      -0.705   4.115 -13.833  0.00  0.00    -0.010 C 
ATOM     26  C   UNL     1      -0.480   4.753 -15.226  0.00  0.00    -0.001 C 
ATOM     27  C   UNL     1      -1.907   4.769 -15.830  0.00  0.00    -0.001 C 
ATOM     28  C   UNL     1      -2.534   3.443 -15.353  0.00  0.00    -0.010 C 
BRANCH  24  29
ATOM     29  N   UNL     1      -1.122   1.725 -14.290  0.00  0.00    +0.381 N 
ATOM     30  C   UNL     1      -2.139   0.720 -14.627  0.00  0.00    -0.096 C 
ATOM     31  C   UNL     1      -0.153   1.829 -15.389  0.00  0.00    -0.096 C 
ATOM     32  H   UNL     1      -0.644   1.450 -13.445  0.00  0.00    -0.082 HD
ENDBRANCH  24  29
ENDBRANCH  23  24
ENDBRANCH  21  23
ENDBRANCH   2  19
TORSDOF 8
