REMARK  Name = ZINC00888021
REMARK  11 active torsions:
REMARK  status: ('A' for Active; 'I' for Inactive)
REMARK    1  A    between atoms: C_1  and  C_2
REMARK    2  A    between atoms: C_5  and  C_8
REMARK    3  A    between atoms: C_8  and  C_10
REMARK    4  A    between atoms: C_8  and  N_21
REMARK    5  A    between atoms: N_12  and  C_13
REMARK    6  A    between atoms: C_13  and  C_14
REMARK    7  A    between atoms: N_21  and  C_22
REMARK    8  A    between atoms: C_32  and  C_34
REMARK    9  A    between atoms: C_34  and  N_35
REMARK   10  A    between atoms: C_37  and  C_40
REMARK   11  A    between atoms: C_43  and  C_45
REMARK                            x       y       z     vdW  Elec       q    Type
REMARK                         _______ _______ _______ _____ _____    ______ ____
ROOT
ATOM      1  N   UNL     1       1.016  -4.647   0.998  0.00  0.00    -0.252 N 
ATOM      2  C   UNL     1       2.195  -5.096   0.524  0.00  0.00    +0.244 C 
ATOM      3  O   UNL     1       2.292  -5.437  -0.636  0.00  0.00    -0.273 OA
ENDROOT
BRANCH   1   4
ATOM      4  C   UNL     1       0.876  -4.351   2.358  0.00  0.00    +0.056 A 
ATOM      5  C   UNL     1       0.934  -5.361   3.299  0.00  0.00    +0.035 A 
ATOM      6  C   UNL     1       0.788  -5.011   4.653  0.00  0.00    +0.002 A 
ATOM      7  C   UNL     1       0.837  -5.983   5.667  0.00  0.00    +0.010 A 
ATOM      8  C   UNL     1       0.692  -5.607   6.967  0.00  0.00    +0.001 A 
ATOM      9  C   UNL     1       0.497  -4.269   7.307  0.00  0.00    +0.002 A 
ATOM     10  C   UNL     1       0.445  -3.302   6.351  0.00  0.00    +0.028 A 
ATOM     11  C   UNL     1       0.590  -3.651   4.996  0.00  0.00    +0.071 A 
ATOM     12  N   UNL     1       0.544  -2.719   4.039  0.00  0.00    -0.253 NA
ATOM     13  C   UNL     1       0.682  -3.028   2.773  0.00  0.00    +0.135 A 
ENDBRANCH   1   4
BRANCH   1  14
ATOM     14  C   UNL     1      -0.120  -4.470   0.089  0.00  0.00    +0.197 C 
BRANCH  14  19
ATOM     15  C   UNL     1      -4.471  -1.923   2.912  0.00  0.00    +0.044 C 
ATOM     16  C   UNL     1      -3.336  -2.587   2.176  0.00  0.00    -0.050 A 
ATOM     17  C   UNL     1      -2.820  -2.006   1.033  0.00  0.00    +0.004 A 
ATOM     18  C   UNL     1      -1.779  -2.615   0.358  0.00  0.00    +0.006 A 
ATOM     19  C   UNL     1      -1.254  -3.805   0.826  0.00  0.00    -0.018 A 
ATOM     20  C   UNL     1      -1.770  -4.386   1.969  0.00  0.00    +0.006 A 
ATOM     21  C   UNL     1      -2.808  -3.775   2.647  0.00  0.00    +0.004 A 
ENDBRANCH  14  19
BRANCH  14  22
ATOM     22  C   UNL     1      -0.571  -5.815  -0.420  0.00  0.00    +0.239 C 
ATOM     23  O   UNL     1      -0.000  -6.822  -0.059  0.00  0.00    -0.273 OA
ATOM     24  N   UNL     1      -1.609  -5.898  -1.276  0.00  0.00    -0.309 N 
ATOM     25  H   UNL     1      -2.065  -5.093  -1.565  0.00  0.00    +0.149 HD
BRANCH  24  26
ATOM     26  C   UNL     1      -2.047  -7.206  -1.770  0.00  0.00    +0.139 C 
BRANCH  26  27
ATOM     27  C   UNL     1      -3.215  -7.024  -2.705  0.00  0.00    -0.030 A 
ATOM     28  C   UNL     1      -4.505  -7.030  -2.208  0.00  0.00    +0.008 A 
ATOM     29  C   UNL     1      -5.577  -6.863  -3.064  0.00  0.00    +0.038 A 
ATOM     30  C   UNL     1      -5.358  -6.688  -4.420  0.00  0.00    +0.123 A 
ATOM     31  C   UNL     1      -4.066  -6.681  -4.917  0.00  0.00    +0.038 A 
ATOM     32  C   UNL     1      -2.995  -6.844  -4.058  0.00  0.00    +0.008 A 
ATOM     33  F   UNL     1      -6.405  -6.524  -5.258  0.00  0.00    -0.205 F 
ENDBRANCH  26  27
ENDBRANCH  24  26
ENDBRANCH  14  22
ENDBRANCH   1  14
BRANCH   2  34
ATOM     34  C   UNL     1       3.393  -5.175   1.435  0.00  0.00    +0.264 C 
BRANCH  34  35
ATOM     35  N   UNL     1       4.572  -5.564   0.658  0.00  0.00    -0.154 N 
ATOM     36  N   UNL     1       4.959  -6.775   0.448  0.00  0.00    -0.127 NA
ATOM     37  C   UNL     1       6.053  -6.726  -0.290  0.00  0.00    +0.239 A 
ATOM     38  N   UNL     1       6.307  -5.427  -0.514  0.00  0.00    -0.105 NA
ATOM     39  N   UNL     1       5.380  -4.750   0.074  0.00  0.00    -0.045 NA
BRANCH  37  40
ATOM     40  C   UNL     1       6.845  -7.878  -0.773  0.00  0.00    +0.175 A 
ATOM     41  C   UNL     1       7.973  -7.809  -1.528  0.00  0.00    +0.053 A 
ATOM     42  C   UNL     1       8.391  -9.136  -1.756  0.00  0.00    +0.045 A 
ATOM     43  C   UNL     1       7.506  -9.940  -1.135  0.00  0.00    +0.103 A 
ATOM     44  O   UNL     1       6.576  -9.176  -0.538  0.00  0.00    -0.457 OA
ATOM     45  C   UNL     1       7.554 -11.446  -1.110  0.00  0.00    +0.086 C 
ENDBRANCH  37  40
ENDBRANCH  34  35
ENDBRANCH   2  34
TORSDOF 9
