REMARK  Name = ZINC06247153
REMARK  9 active torsions:
REMARK  status: ('A' for Active; 'I' for Inactive)
REMARK    1  A    between atoms: C_1  and  C_2
REMARK    2  A    between atoms: C_2  and  C_3
REMARK    3  A    between atoms: C_6  and  N_9
REMARK    4  A    between atoms: C_10  and  C_25
REMARK    5  A    between atoms: N_12  and  C_18
REMARK    6  A    between atoms: C_14  and  C_15
REMARK    7  A    between atoms: C_15  and  C_17
REMARK    8  A    between atoms: C_21  and  C_24
REMARK    9  A    between atoms: C_28  and  C_30
REMARK                            x       y       z     vdW  Elec       q    Type
REMARK                         _______ _______ _______ _____ _____    ______ ____
ROOT
ATOM      1  N   UNL     1       2.167   0.872   0.002  0.00  0.00    -0.256 N 
ATOM      2  C   UNL     1       1.424  -0.393   0.124  0.00  0.00    +0.227 C 
ATOM      3  N   UNL     1       0.010   0.012   0.049  0.00  0.00    -0.197 N 
ATOM      4  N   UNL     1       0.003   1.403  -0.103  0.00  0.00    -0.158 NA
ATOM      5  C   UNL     1       1.211   1.884  -0.129  0.00  0.00    +0.188 C 
ENDROOT
BRANCH   3   6
ATOM      6  C   UNL     1      -1.103  -0.827   0.116  0.00  0.00    +0.054 A 
ATOM      7  C   UNL     1      -0.935  -2.206   0.137  0.00  0.00    +0.025 A 
ATOM      8  C   UNL     1      -2.039  -3.033   0.210  0.00  0.00    +0.005 A 
ATOM      9  C   UNL     1      -3.311  -2.490   0.250  0.00  0.00    -0.050 A 
ATOM     10  C   UNL     1      -3.481  -1.117   0.222  0.00  0.00    +0.005 A 
ATOM     11  C   UNL     1      -2.382  -0.284   0.156  0.00  0.00    +0.025 A 
ATOM     12  C   UNL     1      -4.513  -3.395   0.323  0.00  0.00    +0.044 C 
ENDBRANCH   3   6
BRANCH   1  16
ATOM     13  C   UNL     1       6.304   1.342   0.041  0.00  0.00    -0.048 A 
ATOM     14  C   UNL     1       5.548   1.800   1.105  0.00  0.00    +0.005 A 
ATOM     15  C   UNL     1       4.175   1.646   1.095  0.00  0.00    +0.024 A 
ATOM     16  C   UNL     1       3.555   1.030   0.015  0.00  0.00    +0.037 A 
ATOM     17  C   UNL     1       4.319   0.566  -1.049  0.00  0.00    +0.024 A 
ATOM     18  C   UNL     1       5.690   0.728  -1.035  0.00  0.00    +0.005 A 
BRANCH  13  20
ATOM     19  C   UNL     1       8.447   0.290   0.711  0.00  0.00    +0.009 C 
ATOM     20  C   UNL     1       7.801   1.512   0.056  0.00  0.00    +0.032 C 
ENDBRANCH  13  20
ENDBRANCH   1  16
BRANCH   2  21
ATOM     21  C   UNL     1       1.714  -1.054   1.447  0.00  0.00    +0.030 A 
ATOM     22  C   UNL     1       1.490  -0.589   2.700  0.00  0.00    +0.015 A 
ATOM     23  C   UNL     1       1.840  -1.378   3.780  0.00  0.00    +0.011 A 
ATOM     24  C   UNL     1       2.397  -2.593   3.554  0.00  0.00    -0.013 A 
ATOM     25  S   UNL     1       2.434  -2.655   1.770  0.00  0.00    -0.095 S 
ATOM     26  C   UNL     1       2.859  -3.625   4.549  0.00  0.00    +0.051 C 
ENDBRANCH   2  21
BRANCH   5  27
ATOM     27  C   UNL     1       1.519   3.259  -0.272  0.00  0.00    +0.194 C 
ATOM     28  O   UNL     1       2.675   3.630  -0.231  0.00  0.00    -0.289 OA
ATOM     29  C   UNL     1       0.413   4.262  -0.475  0.00  0.00    +0.095 C 
ENDBRANCH   5  27
TORSDOF 5
