REMARK  Name = ZINC66739093
REMARK  1 active torsions:
REMARK  status: ('A' for Active; 'I' for Inactive)
REMARK    1  A    between atoms: C_1  and  N_2
REMARK                            x       y       z     vdW  Elec       q    Type
REMARK                         _______ _______ _______ _____ _____    ______ ____
ROOT
ATOM      1  C   UNL     1      -0.018   1.461   0.010  0.00  0.00    +0.135 C 
ATOM      2  N   UNL     1       0.002  -0.004   0.002  0.00  0.00    -0.268 N 
ATOM      3  C   UNL     1       0.005  -0.662  -1.177  0.00  0.00    +0.250 C 
ATOM      4  O   UNL     1       0.052  -0.047  -2.225  0.00  0.00    -0.270 OA
ATOM      5  C   UNL     1      -0.047  -2.136  -1.178  0.00  0.00    +0.059 A 
ATOM      6  C   UNL     1       0.233  -2.876  -2.325  0.00  0.00    +0.035 A 
ATOM      7  C   UNL     1       0.168  -4.254  -2.278  0.00  0.00    +0.042 A 
ATOM      8  C   UNL     1      -0.175  -4.903  -1.101  0.00  0.00    +0.022 A 
ATOM      9  C   UNL     1      -0.455  -4.180   0.043  0.00  0.00    +0.025 A 
ATOM     10  C   UNL     1      -0.392  -2.798   0.013  0.00  0.00    +0.042 A 
ATOM     11  N   UNL     1      -0.655  -2.025   1.140  0.00  0.00    -0.312 N 
ATOM     12  C   UNL     1       0.024  -0.730   1.269  0.00  0.00    +0.208 C 
ATOM     13  C   UNL     1       1.427  -0.910   1.760  0.00  0.00    +0.027 A 
ATOM     14  C   UNL     1       2.508  -1.566   1.209  0.00  0.00    +0.051 A 
ATOM     15  C   UNL     1       3.695  -1.546   1.936  0.00  0.00    +0.159 A 
ATOM     16  C   UNL     1       3.781  -0.897   3.156  0.00  0.00    +0.160 A 
ATOM     17  C   UNL     1       2.695  -0.236   3.713  0.00  0.00    +0.065 A 
ATOM     18  C   UNL     1       1.500  -0.249   2.991  0.00  0.00    +0.044 A 
ATOM     19  N   UNL     1       0.279   0.323   3.304  0.00  0.00    -0.282 N 
ATOM     20  C   UNL     1      -0.647   0.092   2.350  0.00  0.00    +0.264 C 
ATOM     21  O   UNL     1      -1.799   0.471   2.356  0.00  0.00    -0.271 OA
ATOM     22  F   UNL     1       4.955  -0.909   3.824  0.00  0.00    -0.202 F 
ATOM     23  F   UNL     1       4.784  -2.174   1.442  0.00  0.00    -0.202 F 
ATOM     24 CL   UNL     1       0.517  -5.182  -3.703  0.00  0.00    -0.084 Cl
ATOM     25  H   UNL     1      -1.269  -2.336   1.823  0.00  0.00    +0.149 HD
ATOM     26  H   UNL     1       0.108   0.829   4.114  0.00  0.00    +0.155 HD
ENDROOT
TORSDOF 0
