REMARK  Name = ZINC51328564
REMARK  7 active torsions:
REMARK  status: ('A' for Active; 'I' for Inactive)
REMARK    1  A    between atoms: C_4  and  N_20
REMARK    2  A    between atoms: C_5  and  C_7
REMARK    3  A    between atoms: C_7  and  C_9
REMARK    4  A    between atoms: C_7  and  O_19
REMARK    5  A    between atoms: C_9  and  S_10
REMARK    6  A    between atoms: S_10  and  C_11
REMARK    7  A    between atoms: C_15  and  N_17
REMARK                            x       y       z     vdW  Elec       q    Type
REMARK                         _______ _______ _______ _____ _____    ______ ____
ROOT
ATOM      1  C   UNL     1       1.344  -2.687  -1.463  0.00  0.00    +0.113 C 
ENDROOT
BRANCH   1   2
ATOM      2  C   UNL     1       1.226  -2.187  -0.022  0.00  0.00    +0.156 C 
BRANCH   2   7
ATOM      3  C   UNL     1      -0.017   1.378   0.010  0.00  0.00    +0.000 A 
ATOM      4  C   UNL     1       1.170   2.089   0.002  0.00  0.00    +0.002 A 
ATOM      5  C   UNL     1       2.377   1.420  -0.013  0.00  0.00    +0.023 A 
ATOM      6  C   UNL     1       2.400   0.031  -0.021  0.00  0.00    +0.030 A 
ATOM      7  C   UNL     1       1.207  -0.680  -0.013  0.00  0.00    +0.002 A 
ATOM      8  C   UNL     1       0.002  -0.004   0.002  0.00  0.00    +0.008 A 
BRANCH   6   9
ATOM      9  N   UNL     1       3.620  -0.649  -0.036  0.00  0.00    -0.358 N 
ATOM     10  H   UNL     1       4.452  -0.152  -0.042  0.00  0.00    +0.142 HD
ATOM     11  H   UNL     1       3.634  -1.619  -0.042  0.00  0.00    +0.142 HD
ENDBRANCH   6   9
ENDBRANCH   2   7
BRANCH   2  12
ATOM     12  O   UNL     1       0.017  -2.682   0.557  0.00  0.00    -0.386 OA
ATOM     13  H   UNL     1      -0.784  -2.404   0.091  0.00  0.00    +0.210 HD
ENDBRANCH   2  12
ENDBRANCH   1   2
BRANCH   1  14
ATOM     14  S   UNL     1       1.368  -4.501  -1.473  0.00  0.00    -0.083 S 
BRANCH  14  15
ATOM     15  C   UNL     1       1.506  -4.915  -3.180  0.00  0.00    +0.192 A 
ATOM     16  N   UNL     1       1.569  -3.942  -4.078  0.00  0.00    -0.207 NA
ATOM     17  C   UNL     1       1.674  -4.218  -5.375  0.00  0.00    +0.122 A 
ATOM     18  C   UNL     1       1.717  -5.548  -5.784  0.00  0.00    +0.086 A 
ATOM     19  C   UNL     1       1.648  -6.543  -4.813  0.00  0.00    +0.122 A 
ATOM     20  N   UNL     1       1.549  -6.192  -3.533  0.00  0.00    -0.207 NA
ATOM     21  N   UNL     1       1.739  -3.194  -6.308  0.00  0.00    -0.343 N 
ATOM     22  H   UNL     1       1.708  -2.270  -6.016  0.00  0.00    +0.144 HD
ATOM     23  H   UNL     1       1.815  -3.402  -7.252  0.00  0.00    +0.144 HD
BRANCH  19  24
ATOM     24  N   UNL     1       1.687  -7.880  -5.174  0.00  0.00    -0.343 N 
ATOM     25  H   UNL     1       1.763  -8.129  -6.108  0.00  0.00    +0.144 HD
ATOM     26  H   UNL     1       1.639  -8.568  -4.492  0.00  0.00    +0.144 HD
ENDBRANCH  19  24
ENDBRANCH  14  15
ENDBRANCH   1  14
TORSDOF 7
