REMARK  Name = ZINC20566927
REMARK  4 active torsions:
REMARK  status: ('A' for Active; 'I' for Inactive)
REMARK    1  A    between atoms: C_5  and  C_7
REMARK    2  A    between atoms: C_7  and  C_9
REMARK    3  A    between atoms: C_11  and  C_30
REMARK    4  A    between atoms: C_34  and  N_36
REMARK                            x       y       z     vdW  Elec       q    Type
REMARK                         _______ _______ _______ _____ _____    ______ ____
ROOT
ATOM      1  C   UNL     1       0.533   2.523   2.185  0.00  0.00    +0.104 C 
ATOM      2  C   UNL     1      -0.577   2.010   1.227  0.00  0.00    +0.050 C 
ATOM      3  C   UNL     1       0.201   1.676  -0.064  0.00  0.00    +0.077 C 
ATOM      4  C   UNL     1       0.358   0.142  -0.171  0.00  0.00    +0.090 C 
ATOM      5  S   UNL     1       2.064   0.043  -0.875  0.00  0.00    -0.144 S 
ATOM      6  C   UNL     1       2.701   1.594  -0.101  0.00  0.00    +0.155 C 
ATOM      7  N   UNL     1       1.466   2.413  -0.024  0.00  0.00    -0.271 NA
ATOM      8  C   UNL     1       1.486   3.227   1.201  0.00  0.00    +0.138 C 
ATOM      9  C   UNL     1       2.870   3.345   1.772  0.00  0.00    +0.006 A 
ATOM     10  C   UNL     1       3.797   2.426   2.210  0.00  0.00    +0.046 A 
ATOM     11  C   UNL     1       5.022   2.855   2.696  0.00  0.00    +0.124 A 
ATOM     12  C   UNL     1       5.309   4.209   2.740  0.00  0.00    +0.040 A 
ATOM     13  C   UNL     1       4.382   5.131   2.302  0.00  0.00    +0.026 A 
ATOM     14  C   UNL     1       3.149   4.708   1.812  0.00  0.00    +0.039 A 
ATOM     15  N   UNL     1       2.064   5.438   1.319  0.00  0.00    -0.283 N 
ATOM     16  C   UNL     1       1.046   4.640   0.939  0.00  0.00    +0.243 C 
ATOM     17  O   UNL     1      -0.017   4.994   0.475  0.00  0.00    -0.273 OA
ATOM     18  F   UNL     1       5.933   1.955   3.126  0.00  0.00    -0.205 F 
ATOM     19  H   UNL     1       2.112   6.536   1.278  0.00  0.00    +0.155 HD
ENDROOT
BRANCH   2  20
ATOM     20  C   UNL     1      -1.234   0.775   1.787  0.00  0.00    -0.040 A 
ATOM     21  C   UNL     1      -2.613   0.665   1.789  0.00  0.00    +0.004 A 
ATOM     22  C   UNL     1      -3.215  -0.469   2.298  0.00  0.00    +0.002 A 
ATOM     23  C   UNL     1      -2.440  -1.491   2.814  0.00  0.00    +0.033 A 
ATOM     24  C   UNL     1      -1.063  -1.380   2.817  0.00  0.00    +0.126 A 
ATOM     25  C   UNL     1      -0.460  -0.247   2.304  0.00  0.00    +0.036 A 
BRANCH  24  26
ATOM     26  N   UNL     1      -0.233  -2.474   3.370  0.00  0.00    +0.056 N 
ATOM     27  O   UNL     1       0.981  -2.376   3.372  0.00  0.00    -0.126 OA
ATOM     28  O   UNL     1      -0.764  -3.472   3.822  0.00  0.00    -0.126 OA
ENDBRANCH  24  26
ENDBRANCH   2  20
BRANCH   1  29
ATOM     29  C   UNL     1       1.223   1.376   2.878  0.00  0.00    +0.187 C 
ATOM     30  O   UNL     1       2.027   0.698   2.275  0.00  0.00    -0.290 OA
BRANCH  29  35
ATOM     31  C   UNL     1       1.262  -0.255   6.253  0.00  0.00    +0.004 A 
ATOM     32  C   UNL     1       0.336   0.549   6.899  0.00  0.00    +0.020 A 
ATOM     33  C   UNL     1      -0.263   1.590   6.205  0.00  0.00    +0.111 A 
ATOM     34  N   UNL     1       0.036   1.823   4.947  0.00  0.00    -0.252 NA
ATOM     35  C   UNL     1       0.919   1.077   4.290  0.00  0.00    +0.106 A 
ATOM     36  C   UNL     1       1.556   0.010   4.925  0.00  0.00    +0.031 A 
ENDBRANCH  29  35
ENDBRANCH   1  29
TORSDOF 4
