REMARK  Name = ZINC40851505
REMARK  9 active torsions:
REMARK  status: ('A' for Active; 'I' for Inactive)
REMARK    1  A    between atoms: C_1  and  C_2
REMARK    2  A    between atoms: C_2  and  O_3
REMARK    3  A    between atoms: O_3  and  C_4
REMARK    4  A    between atoms: C_4  and  C_6
REMARK    5  A    between atoms: C_10  and  N_11
REMARK    6  A    between atoms: N_14  and  N_15
REMARK    7  A    between atoms: C_16  and  C_17
REMARK    8  A    between atoms: C_22  and  O_23
REMARK    9  A    between atoms: C_26  and  C_30
REMARK                            x       y       z     vdW  Elec       q    Type
REMARK                         _______ _______ _______ _____ _____    ______ ____
ROOT
ATOM      1  N   UNL     1       3.744  -2.425   1.392  0.00  0.00    -0.262 N 
ATOM      2  C   UNL     1       5.047  -2.735   1.541  0.00  0.00    +0.324 C 
ATOM      3  O   UNL     1       5.446  -3.194   2.594  0.00  0.00    -0.251 OA
ATOM      4  N   UNL     1       5.907  -2.537   0.523  0.00  0.00    -0.191 N 
ATOM      5  H   UNL     1       3.425  -2.059   0.552  0.00  0.00    +0.157 HD
ATOM      6  H   UNL     1       6.845  -2.760   0.630  0.00  0.00    +0.179 HD
ENDROOT
BRANCH   1  11
ATOM      7  C   UNL     1       1.496  -2.371   2.467  0.00  0.00    +0.091 A 
ATOM      8  C   UNL     1       0.787  -2.682   3.696  0.00  0.00    -0.021 A 
ATOM      9  C   UNL     1       1.570  -3.189   4.672  0.00  0.00    -0.004 A 
ATOM     10  S   UNL     1       3.191  -3.243   3.966  0.00  0.00    -0.077 S 
ATOM     11  C   UNL     1       2.859  -2.629   2.439  0.00  0.00    +0.088 A 
ATOM     12  C   UNL     1       1.139  -3.607   6.044  0.00  0.00    +0.046 C 
ATOM     13  C   UNL     1      -0.392  -3.729   6.053  0.00  0.00    -0.009 C 
ATOM     14  C   UNL     1      -0.992  -2.474   5.412  0.00  0.00    +0.008 C 
ATOM     15  C   UNL     1      -0.705  -2.471   3.908  0.00  0.00    +0.037 C 
ATOM     16  C   UNL     1      -0.887  -3.857   7.495  0.00  0.00    +0.008 C 
BRANCH   7  17
ATOM     17  C   UNL     1       0.801  -1.814   1.305  0.00  0.00    +0.342 C 
ATOM     18  O   UNL     1       0.321  -2.557   0.470  0.00  0.00    -0.245 OA
BRANCH  17  19
ATOM     19  O   UNL     1       0.693  -0.477   1.160  0.00  0.00    -0.461 OA
BRANCH  19  21
ATOM     20  C   UNL     1      -0.019   1.526   0.010  0.00  0.00    +0.048 C 
ATOM     21  C   UNL     1       0.002  -0.004   0.002  0.00  0.00    +0.229 C 
ENDBRANCH  19  21
ENDBRANCH  17  19
ENDBRANCH   7  17
ENDBRANCH   1  11
BRANCH   4  22
ATOM     22  N   UNL     1       5.447  -2.008  -0.690  0.00  0.00    -0.186 NA
ATOM     23  C   UNL     1       6.276  -1.817  -1.671  0.00  0.00    +0.142 C 
BRANCH  23  24
ATOM     24  C   UNL     1       5.792  -1.261  -2.947  0.00  0.00    +0.037 A 
ATOM     25  C   UNL     1       6.679  -1.059  -4.007  0.00  0.00    +0.028 A 
ATOM     26  C   UNL     1       6.219  -0.538  -5.199  0.00  0.00    +0.019 A 
ATOM     27  C   UNL     1       4.881  -0.214  -5.349  0.00  0.00    +0.019 A 
ATOM     28  C   UNL     1       3.994  -0.409  -4.307  0.00  0.00    +0.047 A 
ATOM     29  C   UNL     1       4.437  -0.937  -3.106  0.00  0.00    +0.126 A 
ATOM     30 BR   UNL     1       7.421  -0.265  -6.633  0.00  0.00    -0.050 Br
BRANCH  29  31
ATOM     31  O   UNL     1       3.565  -1.135  -2.084  0.00  0.00    -0.506 OA
ATOM     32  H   UNL     1       3.473  -0.375  -1.493  0.00  0.00    +0.292 HD
ENDBRANCH  29  31
ENDBRANCH  23  24
ENDBRANCH   4  22
TORSDOF 7
