REMARK  Name = ZINC59463802
REMARK  8 active torsions:
REMARK  status: ('A' for Active; 'I' for Inactive)
REMARK    1  A    between atoms: C_1  and  C_2
REMARK    2  A    between atoms: C_5  and  C_9
REMARK    3  A    between atoms: C_6  and  C_8
REMARK    4  A    between atoms: C_10  and  C_27
REMARK    5  A    between atoms: C_12  and  N_14
REMARK    6  A    between atoms: C_15  and  C_16
REMARK    7  A    between atoms: C_25  and  O_26
REMARK    8  A    between atoms: C_30  and  N_33
REMARK                            x       y       z     vdW  Elec       q    Type
REMARK                         _______ _______ _______ _____ _____    ______ ____
ROOT
ATOM      1  C   UNL     1      -0.583  -4.395  -0.451  0.00  0.00    +0.088 A 
ATOM      2  C   UNL     1       0.057  -4.653  -1.769  0.00  0.00    +0.049 A 
ATOM      3  S   UNL     1       1.062  -5.958  -1.422  0.00  0.00    -0.047 S 
ATOM      4  C   UNL     1       0.669  -6.143   0.307  0.00  0.00    +0.194 A 
ATOM      5  N   UNL     1      -0.228  -5.166   0.527  0.00  0.00    -0.221 NA
ENDROOT
BRANCH   1  10
ATOM      6  C   UNL     1      -4.420  -0.173   0.272  0.00  0.00    +0.044 C 
ATOM      7  C   UNL     1      -3.415  -1.279   0.082  0.00  0.00    -0.050 A 
ATOM      8  C   UNL     1      -3.805  -2.473  -0.504  0.00  0.00    +0.004 A 
ATOM      9  C   UNL     1      -2.893  -3.489  -0.681  0.00  0.00    +0.010 A 
ATOM     10  C   UNL     1      -1.565  -3.313  -0.266  0.00  0.00    +0.004 A 
ATOM     11  C   UNL     1      -1.179  -2.104   0.326  0.00  0.00    -0.041 A 
ATOM     12  C   UNL     1      -2.104  -1.096   0.490  0.00  0.00    +0.007 A 
ATOM     13  C   UNL     1       0.245  -1.904   0.776  0.00  0.00    +0.044 C 
ENDBRANCH   1  10
BRANCH   2  14
ATOM     14  C   UNL     1      -0.132  -3.975  -2.999  0.00  0.00    -0.009 A 
ATOM     15  C   UNL     1      -0.142  -2.568  -3.039  0.00  0.00    +0.011 A 
ATOM     16  C   UNL     1      -0.325  -1.923  -4.235  0.00  0.00    +0.033 A 
ATOM     17  C   UNL     1      -0.499  -2.651  -5.403  0.00  0.00    +0.126 A 
ATOM     18  C   UNL     1      -0.492  -4.038  -5.375  0.00  0.00    +0.033 A 
ATOM     19  C   UNL     1      -0.305  -4.704  -4.191  0.00  0.00    +0.011 A 
BRANCH  17  20
ATOM     20  N   UNL     1      -0.696  -1.943  -6.687  0.00  0.00    +0.056 N 
ATOM     21  O   UNL     1      -0.705  -0.627  -6.719  0.00  0.00    -0.126 OA
ATOM     22  O   UNL     1      -0.863  -2.630  -7.799  0.00  0.00    -0.126 OA
ENDBRANCH  17  20
ENDBRANCH   2  14
BRANCH   4  23
ATOM     23  N   UNL     1       1.152  -7.029   1.171  0.00  0.00    -0.229 NA
ATOM     24  C   UNL     1       2.045  -7.925   0.774  0.00  0.00    +0.125 C 
BRANCH  24  25
ATOM     25  C   UNL     1       2.554  -8.861   1.687  0.00  0.00    +0.042 A 
ATOM     26  C   UNL     1       3.548  -9.858   1.267  0.00  0.00    -0.006 A 
ATOM     27  C   UNL     1       4.017  -9.907  -0.046  0.00  0.00    +0.009 A 
ATOM     28  C   UNL     1       4.951 -10.858  -0.399  0.00  0.00    +0.001 A 
ATOM     29  C   UNL     1       5.427 -11.765   0.539  0.00  0.00    +0.001 A 
ATOM     30  C   UNL     1       4.983 -11.737   1.830  0.00  0.00    +0.008 A 
ATOM     31  C   UNL     1       4.034 -10.781   2.221  0.00  0.00    -0.017 A 
ATOM     32  C   UNL     1       3.558 -10.729   3.548  0.00  0.00    +0.012 A 
ATOM     33  C   UNL     1       2.636  -9.803   3.928  0.00  0.00    +0.046 A 
ATOM     34  C   UNL     1       2.127  -8.864   3.036  0.00  0.00    +0.126 A 
BRANCH  34  35
ATOM     35  O   UNL     1       1.217  -7.957   3.457  0.00  0.00    -0.506 OA
ATOM     36  H   UNL     1       0.300  -8.251   3.372  0.00  0.00    +0.292 HD
ENDBRANCH  34  35
ENDBRANCH  24  25
ENDBRANCH   4  23
TORSDOF 6
