REMARK  Name = ZINC13563855
REMARK  6 active torsions:
REMARK  status: ('A' for Active; 'I' for Inactive)
REMARK    1  A    between atoms: C_1  and  O_2
REMARK    2  A    between atoms: O_2  and  C_3
REMARK    3  A    between atoms: C_7  and  C_10
REMARK    4  A    between atoms: C_8  and  O_9
REMARK    5  A    between atoms: N_11  and  N_12
REMARK    6  A    between atoms: C_13  and  C_15
REMARK                            x       y       z     vdW  Elec       q    Type
REMARK                         _______ _______ _______ _____ _____    ______ ____
ROOT
ATOM      1  C   UNL     1      -3.229  10.236   0.149  0.00  0.00    +0.143 C 
ATOM      2  N   UNL     1      -2.221   9.458  -0.102  0.00  0.00    -0.187 NA
ENDROOT
BRANCH   1   7
ATOM      3  C   UNL     1      -5.322   8.656   2.848  0.00  0.00    +0.163 A 
ATOM      4  C   UNL     1      -6.587   8.748   2.289  0.00  0.00    +0.065 A 
ATOM      5  C   UNL     1      -6.760   9.320   1.040  0.00  0.00    +0.036 A 
ATOM      6  C   UNL     1      -5.675   9.811   0.343  0.00  0.00    +0.044 A 
ATOM      7  C   UNL     1      -4.392   9.720   0.892  0.00  0.00    +0.055 A 
ATOM      8  C   UNL     1      -4.219   9.140   2.155  0.00  0.00    +0.168 A 
ATOM      9 BR   UNL     1      -5.920  10.599  -1.359  0.00  0.00    -0.048 Br
ATOM     10 BR   UNL     1      -8.492   9.438   0.290  0.00  0.00    -0.049 Br
BRANCH   3  12
ATOM     11  C   UNL     1      -6.337   7.616   4.730  0.00  0.00    +0.277 C 
ATOM     12  O   UNL     1      -5.160   8.092   4.075  0.00  0.00    -0.491 OA
ENDBRANCH   3  12
BRANCH   8  13
ATOM     13  O   UNL     1      -2.978   9.052   2.701  0.00  0.00    -0.503 OA
ATOM     14  H   UNL     1      -2.728   9.817   3.237  0.00  0.00    +0.292 HD
ENDBRANCH   8  13
ENDBRANCH   1   7
BRANCH   2  15
ATOM     15  N   UNL     1      -2.294   8.095   0.214  0.00  0.00    -0.204 N 
ATOM     16  C   UNL     1      -1.215   7.305   0.042  0.00  0.00    +0.276 C 
ATOM     17  O   UNL     1      -0.157   7.790  -0.299  0.00  0.00    -0.270 OA
ATOM     18  H   UNL     1      -3.120   7.719   0.556  0.00  0.00    +0.177 HD
BRANCH  16  19
ATOM     19  C   UNL     1      -1.324   5.820   0.274  0.00  0.00    +0.297 C 
ATOM     20  C   UNL     1      -2.215   5.191  -0.806  0.00  0.00    +0.283 C 
ATOM     21  O   UNL     1      -2.285   3.782  -0.565  0.00  0.00    -0.484 OA
ATOM     22  C   UNL     1      -1.110   3.147  -0.302  0.00  0.00    +0.162 A 
ATOM     23  C   UNL     1      -1.040   1.767  -0.421  0.00  0.00    +0.049 A 
ATOM     24  C   UNL     1       0.144   1.107  -0.149  0.00  0.00    +0.004 A 
ATOM     25  C   UNL     1       1.264   1.822   0.231  0.00  0.00    +0.004 A 
ATOM     26  C   UNL     1       1.203   3.198   0.346  0.00  0.00    +0.049 A 
ATOM     27  C   UNL     1       0.017   3.866   0.079  0.00  0.00    +0.163 A 
ATOM     28  O   UNL     1      -0.026   5.222   0.189  0.00  0.00    -0.472 OA
ENDBRANCH  16  19
ENDBRANCH   2  15
TORSDOF 5
