REMARK  Name = ZINC50307102
REMARK  6 active torsions:
REMARK  status: ('A' for Active; 'I' for Inactive)
REMARK    1  A    between atoms: C_1  and  C_2
REMARK    2  A    between atoms: C_2  and  C_3
REMARK    3  A    between atoms: C_4  and  N_21
REMARK    4  A    between atoms: C_5  and  C_9
REMARK    5  A    between atoms: C_13  and  C_20
REMARK    6  A    between atoms: C_17  and  C_19
REMARK                            x       y       z     vdW  Elec       q    Type
REMARK                         _______ _______ _______ _____ _____    ______ ____
ROOT
ATOM      1  C   UNL     1       0.963  -0.003   1.375  0.00  0.00    +0.057 A 
ATOM      2  C   UNL     1       0.436  -0.160   2.619  0.00  0.00    +0.078 A 
ATOM      3  C   UNL     1       1.393  -0.918   3.341  0.00  0.00    +0.168 A 
ATOM      4  N   UNL     1       2.397  -1.160   2.519  0.00  0.00    -0.167 NA
ATOM      5  N   UNL     1       2.163  -0.640   1.367  0.00  0.00    -0.279 N 
ATOM      6  H   UNL     1       2.759  -0.692   0.604  0.00  0.00    +0.189 HD
ENDROOT
BRANCH   3   7
ATOM      7  C   UNL     1       1.288  -1.353   4.746  0.00  0.00    +0.269 C 
ATOM      8  O   UNL     1       0.260  -1.159   5.367  0.00  0.00    -0.268 OA
ATOM      9  N   UNL     1       2.329  -1.967   5.342  0.00  0.00    -0.289 N 
ATOM     10  C   UNL     1       3.630  -2.082   4.663  0.00  0.00    +0.139 C 
ATOM     11  C   UNL     1       4.720  -1.588   5.620  0.00  0.00    +0.133 C 
ATOM     12  O   UNL     1       4.594  -2.270   6.870  0.00  0.00    -0.373 OA
ATOM     13  C   UNL     1       3.360  -2.024   7.549  0.00  0.00    +0.182 C 
ATOM     14  C   UNL     1       2.202  -2.536   6.693  0.00  0.00    +0.099 C 
ATOM     15  C   UNL     1       0.873  -2.099   7.313  0.00  0.00    +0.030 C 
ATOM     16  C   UNL     1       6.097  -1.873   5.018  0.00  0.00    +0.039 C 
ENDBRANCH   3   7
BRANCH   2  17
ATOM     17  N   UNL     1      -0.793   0.325   3.088  0.00  0.00    -0.355 N 
ATOM     18  H   UNL     1      -1.370   0.836   2.499  0.00  0.00    +0.142 HD
ATOM     19  H   UNL     1      -1.067   0.149   4.002  0.00  0.00    +0.142 HD
ENDBRANCH   2  17
BRANCH   1  21
ATOM     20  C   UNL     1       0.665   2.223   0.324  0.00  0.00    +0.010 C 
ATOM     21  C   UNL     1       0.332   0.733   0.222  0.00  0.00    +0.053 C 
ENDBRANCH   1  21
TORSDOF 3
