REMARK  Name = ZINC01235906
REMARK  2 active torsions:
REMARK  status: ('A' for Active; 'I' for Inactive)
REMARK    1  A    between atoms: C_5  and  C_12
REMARK    2  A    between atoms: C_8  and  C_10
REMARK                            x       y       z     vdW  Elec       q    Type
REMARK                         _______ _______ _______ _____ _____    ______ ____
ROOT
ATOM      1  C   UNL     1       1.427   1.628  -0.003  0.00  0.00    +0.116 C 
ATOM      2  C   UNL     1       1.524   2.422  -1.334  0.00  0.00    +0.116 C 
ATOM      3  C   UNL     1       0.367   1.802  -2.161  0.00  0.00    +0.241 C 
ATOM      4  O   UNL     1      -0.664   1.572  -1.177  0.00  0.00    -0.350 OA
ATOM      5  C   UNL     1      -0.013   1.086   0.008  0.00  0.00    +0.241 C 
ATOM      6  C   UNL     1       1.065   3.666  -0.499  0.00  0.00    +0.317 C 
ATOM      7  C   UNL     1       1.606   2.953   0.749  0.00  0.00    +0.317 C 
ATOM      8  F   UNL     1       0.774   3.077   1.866  0.00  0.00    -0.199 F 
ATOM      9  F   UNL     1       2.942   3.257   1.032  0.00  0.00    -0.199 F 
ATOM     10  F   UNL     1      -0.323   3.845  -0.482  0.00  0.00    -0.199 F 
ATOM     11  F   UNL     1       1.758   4.839  -0.816  0.00  0.00    -0.199 F 
ENDROOT
BRANCH   5  12
ATOM     12  C   UNL     1      -0.737   1.581   1.233  0.00  0.00    +0.385 C 
ATOM     13  O   UNL     1      -1.679   2.329   1.117  0.00  0.00    -0.243 OA
ATOM     14  O   UNL     1      -0.336   1.192   2.453  0.00  0.00    -0.243 OA
ENDBRANCH   5  12
BRANCH   3  15
ATOM     15  C   UNL     1      -0.110   2.769  -3.214  0.00  0.00    +0.385 C 
ATOM     16  O   UNL     1      -1.230   3.218  -3.159  0.00  0.00    -0.243 OA
ATOM     17  O   UNL     1       0.710   3.131  -4.213  0.00  0.00    -0.243 OA
ENDBRANCH   3  15
TORSDOF 2
