REMARK  Name = ZINC02203234
REMARK  5 active torsions:
REMARK  status: ('A' for Active; 'I' for Inactive)
REMARK    1  A    between atoms: C_4  and  C_7
REMARK    2  A    between atoms: C_16  and  C_17
REMARK    3  A    between atoms: N_19  and  N_20
REMARK    4  A    between atoms: C_21  and  C_22
REMARK    5  A    between atoms: C_25  and  N_28
REMARK                            x       y       z     vdW  Elec       q    Type
REMARK                         _______ _______ _______ _____ _____    ______ ____
ROOT
ATOM      1  C   UNL     1       1.172   3.566   0.011  0.00  0.00    +0.020 A 
ATOM      2  C   UNL     1       1.656   4.455  -1.052  0.00  0.00    +0.009 A 
ATOM      3  C   UNL     1       2.234   4.233  -2.305  0.00  0.00    +0.026 A 
ATOM      4  C   UNL     1       2.588   5.296  -3.087  0.00  0.00    +0.019 A 
ATOM      5  C   UNL     1       2.377   6.597  -2.646  0.00  0.00    +0.017 A 
ATOM      6  C   UNL     1       1.803   6.838  -1.419  0.00  0.00    +0.027 A 
ATOM      7  C   UNL     1       1.438   5.770  -0.602  0.00  0.00    +0.048 A 
ATOM      8  N   UNL     1       0.870   5.701   0.649  0.00  0.00    -0.350 N 
ATOM      9  H   UNL     1       0.620   6.468   1.188  0.00  0.00    +0.166 HD
ATOM     10  C   UNL     1       0.706   4.384   1.024  0.00  0.00    +0.112 A 
ATOM     11 BR   UNL     1       3.370   4.994  -4.782  0.00  0.00    -0.050 Br
ENDROOT
BRANCH   1  15
ATOM     12  C   UNL     1       1.208  -0.682  -0.013  0.00  0.00    +0.000 A 
ATOM     13  C   UNL     1       0.002  -0.004   0.002  0.00  0.00    +0.001 A 
ATOM     14  C   UNL     1      -0.017   1.375   0.010  0.00  0.00    +0.008 A 
ATOM     15  C   UNL     1       1.184   2.087   0.002  0.00  0.00    -0.015 A 
ATOM     16  C   UNL     1       2.397   1.396  -0.013  0.00  0.00    +0.008 A 
ATOM     17  C   UNL     1       2.402   0.017  -0.021  0.00  0.00    +0.001 A 
ENDBRANCH   1  15
BRANCH  10  18
ATOM     18  C   UNL     1       0.133   3.925   2.293  0.00  0.00    +0.280 C 
ATOM     19  O   UNL     1       0.035   2.734   2.522  0.00  0.00    -0.267 OA
ATOM     20  N   UNL     1      -0.287   4.823   3.207  0.00  0.00    -0.202 N 
ATOM     21  H   UNL     1      -0.210   5.773   3.025  0.00  0.00    +0.178 HD
BRANCH  20  22
ATOM     22  N   UNL     1      -0.836   4.385   4.419  0.00  0.00    -0.187 NA
ATOM     23  C   UNL     1      -1.240   5.249   5.299  0.00  0.00    +0.138 C 
BRANCH  23  24
ATOM     24  C   UNL     1      -1.817   4.788   6.575  0.00  0.00    -0.005 A 
ATOM     25  C   UNL     1      -1.936   3.421   6.838  0.00  0.00    +0.012 A 
ATOM     26  C   UNL     1      -2.472   2.997   8.036  0.00  0.00    +0.033 A 
ATOM     27  C   UNL     1      -2.901   3.921   8.972  0.00  0.00    +0.126 A 
ATOM     28  C   UNL     1      -2.793   5.277   8.715  0.00  0.00    +0.033 A 
ATOM     29  C   UNL     1      -2.254   5.715   7.524  0.00  0.00    +0.012 A 
BRANCH  27  30
ATOM     30  N   UNL     1      -3.481   3.458  10.253  0.00  0.00    +0.056 N 
ATOM     31  O   UNL     1      -3.860   4.269  11.078  0.00  0.00    -0.126 OA
ATOM     32  O   UNL     1      -3.578   2.266  10.481  0.00  0.00    -0.126 OA
ENDBRANCH  27  30
ENDBRANCH  23  24
ENDBRANCH  20  22
ENDBRANCH  10  18
TORSDOF 5
