REMARK  Name = ZINC36157252
REMARK  10 active torsions:
REMARK  status: ('A' for Active; 'I' for Inactive)
REMARK    1  A    between atoms: C_3  and  C_8
REMARK    2  A    between atoms: C_8  and  C_9
REMARK    3  A    between atoms: C_8  and  C_16
REMARK    4  A    between atoms: C_8  and  O_36
REMARK    5  A    between atoms: C_19  and  C_21
REMARK    6  A    between atoms: C_21  and  N_22
REMARK    7  A    between atoms: N_22  and  C_23
REMARK    8  A    between atoms: N_22  and  C_29
REMARK    9  A    between atoms: C_23  and  C_24
REMARK   10  A    between atoms: C_29  and  C_30
REMARK                            x       y       z     vdW  Elec       q    Type
REMARK                         _______ _______ _______ _____ _____    ______ ____
ROOT
ATOM      1  C   UNL     1       4.750   3.482  -0.699  0.00  0.00    +0.146 A 
ATOM      2  C   UNL     1       5.663   4.441  -0.939  0.00  0.00    +0.048 A 
ATOM      3  C   UNL     1       6.037   4.318  -2.297  0.00  0.00    +0.043 A 
ATOM      4  C   UNL     1       5.331   3.292  -2.805  0.00  0.00    +0.089 A 
ATOM      5  O   UNL     1       4.557   2.786  -1.831  0.00  0.00    -0.463 OA
ENDROOT
BRANCH   1   6
ATOM      6  C   UNL     1       4.065   3.228   0.619  0.00  0.00    +0.174 C 
BRANCH   6   9
ATOM      7  C   UNL     1       1.304   0.903  -0.488  0.00  0.00    +0.003 A 
ATOM      8  C   UNL     1       2.561   1.431  -0.260  0.00  0.00    +0.007 A 
ATOM      9  C   UNL     1       2.694   2.654   0.370  0.00  0.00    -0.002 A 
ATOM     10  C   UNL     1       1.570   3.351   0.772  0.00  0.00    +0.045 A 
ATOM     11  C   UNL     1       0.310   2.823   0.544  0.00  0.00    +0.124 A 
ATOM     12  C   UNL     1       0.179   1.598  -0.088  0.00  0.00    +0.038 A 
ATOM     13  F   UNL     1      -0.789   3.503   0.937  0.00  0.00    -0.205 F 
ENDBRANCH   6   9
BRANCH   6  14
ATOM     14  C   UNL     1       4.879   2.252   1.429  0.00  0.00    -0.002 A 
ATOM     15  C   UNL     1       5.464   1.162   0.811  0.00  0.00    +0.007 A 
ATOM     16  C   UNL     1       6.211   0.265   1.553  0.00  0.00    +0.003 A 
ATOM     17  C   UNL     1       6.373   0.457   2.912  0.00  0.00    +0.038 A 
ATOM     18  C   UNL     1       5.787   1.548   3.531  0.00  0.00    +0.124 A 
ATOM     19  C   UNL     1       5.045   2.449   2.786  0.00  0.00    +0.045 A 
ATOM     20  F   UNL     1       5.945   1.737   4.859  0.00  0.00    -0.205 F 
ENDBRANCH   6  14
BRANCH   6  21
ATOM     21  O   UNL     1       3.943   4.457   1.338  0.00  0.00    -0.372 OA
ATOM     22  H   UNL     1       4.789   4.884   1.533  0.00  0.00    +0.212 HD
ENDBRANCH   6  21
ENDBRANCH   1   6
BRANCH   4  23
ATOM     23  C   UNL     1       5.400   2.793  -4.225  0.00  0.00    -0.002 C 
BRANCH  23  24
ATOM     24  N   UNL     1       6.524   1.857  -4.361  0.00  0.00    +0.391 N 
ATOM     25  H   UNL     1       7.370   2.298  -4.034  0.00  0.00    -0.080 HD
BRANCH  24  26
ATOM     26  C   UNL     1       6.681   1.481  -5.772  0.00  0.00    -0.002 C 
BRANCH  26  27
ATOM     27  C   UNL     1       7.069   2.695  -6.575  0.00  0.00    +0.089 A 
ATOM     28  C   UNL     1       8.326   3.109  -6.818  0.00  0.00    +0.042 A 
ATOM     29  C   UNL     1       8.227   4.280  -7.605  0.00  0.00    +0.041 A 
ATOM     30  C   UNL     1       6.915   4.511  -7.796  0.00  0.00    +0.195 A 
ATOM     31  O   UNL     1       6.219   3.545  -7.175  0.00  0.00    -0.470 OA
ENDBRANCH  26  27
ENDBRANCH  24  26
BRANCH  24  32
ATOM     32  C   UNL     1       6.258   0.654  -3.560  0.00  0.00    -0.046 C 
BRANCH  32  33
ATOM     33  C   UNL     1       7.481  -0.266  -3.601  0.00  0.00    +0.102 C 
ATOM     34  C   UNL     1       7.168  -1.585  -2.863  0.00  0.00    +0.032 C 
ATOM     35  C   UNL     1       8.502  -1.873  -2.123  0.00  0.00    +0.030 C 
ATOM     36  C   UNL     1       8.972  -0.434  -1.793  0.00  0.00    +0.160 C 
ATOM     37  O   UNL     1       8.581   0.358  -2.928  0.00  0.00    -0.378 OA
ENDBRANCH  32  33
ENDBRANCH  24  32
ENDBRANCH  23  24
ENDBRANCH   4  23
TORSDOF 10
