REMARK  Name = ZINC40366970
REMARK  4 active torsions:
REMARK  status: ('A' for Active; 'I' for Inactive)
REMARK    1  A    between atoms: C_5  and  S_6
REMARK    2  A    between atoms: S_6  and  N_9
REMARK    3  A    between atoms: N_9  and  C_10
REMARK    4  A    between atoms: C_10  and  C_18
REMARK                            x       y       z     vdW  Elec       q    Type
REMARK                         _______ _______ _______ _____ _____    ______ ____
ROOT
ATOM      1  N   UNL     1      -1.743  -1.437  -1.571  0.00  0.00    -0.170 NA
ATOM      2  H   UNL     1      -2.617  -1.187  -1.910  0.00  0.00    +0.150 HD
ENDROOT
BRANCH   1   3
ATOM      3  C   UNL     1      -0.735  -2.035  -2.484  0.00  0.00    +0.126 C 
ATOM      4  C   UNL     1      -0.367  -3.397  -1.893  0.00  0.00    +0.039 C 
ATOM      5  C   UNL     1      -0.747  -4.563  -2.814  0.00  0.00    +0.003 C 
ATOM      6  C   UNL     1       0.556  -5.115  -3.434  0.00  0.00    +0.000 C 
ATOM      7  C   UNL     1       1.089  -4.129  -4.464  0.00  0.00    +0.000 C 
ATOM      8  C   UNL     1      -0.035  -3.615  -5.353  0.00  0.00    +0.000 C 
ATOM      9  C   UNL     1      -0.354  -2.163  -5.015  0.00  0.00    +0.003 C 
ATOM     10  C   UNL     1      -1.343  -2.074  -3.866  0.00  0.00    +0.039 C 
BRANCH   3  11
ATOM     11  C   UNL     1       0.447  -1.154  -2.428  0.00  0.00    +0.086 C 
ATOM     12  N   UNL     1       1.357  -0.475  -2.385  0.00  0.00    -0.195 NA
ENDBRANCH   3  11
ENDBRANCH   1   3
BRANCH   1  13
ATOM     13  S   UNL     1      -1.375  -1.196   0.025  0.00  0.00    +0.066 S 
ATOM     14  O   UNL     1      -0.777  -2.399   0.490  0.00  0.00    -0.153 OA
ATOM     15  O   UNL     1      -2.533  -0.638   0.630  0.00  0.00    -0.153 OA
BRANCH  13  20
ATOM     16  C   UNL     1      -0.263   1.390   0.181  0.00  0.00    +0.038 A 
ATOM     17  C   UNL     1       0.872   2.179   0.218  0.00  0.00    +0.030 A 
ATOM     18  C   UNL     1       2.089   1.582   0.162  0.00  0.00    +0.080 A 
ATOM     19  S   UNL     1       1.649  -0.144   0.054  0.00  0.00    -0.057 S 
ATOM     20  C   UNL     1      -0.125   0.045   0.090  0.00  0.00    +0.144 A 
ATOM     21 CL   UNL     1       3.666   2.309   0.189  0.00  0.00    -0.076 Cl
ENDBRANCH  13  20
ENDBRANCH   1  13
TORSDOF 4
