REMARK  Name = ZINC34749712
REMARK  7 active torsions:
REMARK  status: ('A' for Active; 'I' for Inactive)
REMARK    1  A    between atoms: C_4  and  C_7
REMARK    2  A    between atoms: C_7  and  C_8
REMARK    3  A    between atoms: C_8  and  C_9
REMARK    4  A    between atoms: C_9  and  N_10
REMARK    5  A    between atoms: C_14  and  C_33
REMARK    6  A    between atoms: N_23  and  C_26
REMARK    7  A    between atoms: C_26  and  C_27
REMARK                            x       y       z     vdW  Elec       q    Type
REMARK                         _______ _______ _______ _____ _____    ______ ____
ROOT
ATOM      1  N   UNL     1       6.039  -2.022   2.721  0.00  0.00    -0.280 N 
ATOM      2  C   UNL     1       6.891  -1.159   3.305  0.00  0.00    +0.264 A 
ATOM      3  O   UNL     1       7.373  -0.240   2.666  0.00  0.00    -0.267 OA
ATOM      4  C   UNL     1       7.222  -1.334   4.684  0.00  0.00    +0.080 A 
ATOM      5  C   UNL     1       8.109  -0.538   5.526  0.00  0.00    +0.004 A 
ATOM      6  C   UNL     1       8.272  -0.896   6.822  0.00  0.00    +0.056 A 
ATOM      7  S   UNL     1       7.235  -2.336   6.986  0.00  0.00    -0.076 S 
ATOM      8  C   UNL     1       6.612  -2.424   5.327  0.00  0.00    +0.118 A 
ATOM      9  N   UNL     1       5.779  -3.241   4.691  0.00  0.00    -0.208 NA
ATOM     10  C   UNL     1       5.486  -3.053   3.421  0.00  0.00    +0.202 A 
ATOM     11  N   UNL     1       4.617  -3.909   2.793  0.00  0.00    -0.304 N 
ATOM     12  C   UNL     1       3.169  -3.649   2.789  0.00  0.00    +0.089 C 
ATOM     13  C   UNL     1       2.445  -4.921   3.243  0.00  0.00    -0.059 C 
ATOM     14  N   UNL     1       2.861  -6.048   2.397  0.00  0.00    +0.384 N 
ATOM     15  C   UNL     1       4.292  -6.317   2.591  0.00  0.00    -0.059 C 
ATOM     16  C   UNL     1       5.107  -5.111   2.100  0.00  0.00    +0.089 C 
ATOM     17  H   UNL     1       2.691  -5.821   1.429  0.00  0.00    -0.081 HD
ENDROOT
BRANCH   5  18
ATOM     18  C   UNL     1       8.818   0.641   4.974  0.00  0.00    -0.017 A 
ATOM     19  C   UNL     1       9.531   0.533   3.781  0.00  0.00    +0.008 A 
ATOM     20  C   UNL     1      10.189   1.634   3.271  0.00  0.00    +0.001 A 
ATOM     21  C   UNL     1      10.142   2.843   3.942  0.00  0.00    +0.000 A 
ATOM     22  C   UNL     1       9.436   2.956   5.127  0.00  0.00    +0.001 A 
ATOM     23  C   UNL     1       8.770   1.863   5.643  0.00  0.00    +0.008 A 
ENDBRANCH   5  18
BRANCH   1  24
ATOM     24  C   UNL     1       5.696  -1.848   1.307  0.00  0.00    +0.128 C 
BRANCH  24  25
ATOM     25  C   UNL     1       4.554  -0.838   1.180  0.00  0.00    +0.026 C 
BRANCH  25  26
ATOM     26  C   UNL     1       4.196  -0.656  -0.296  0.00  0.00    +0.037 C 
BRANCH  26  30
ATOM     27  C   UNL     1       1.008   2.165  -0.652  0.00  0.00    +0.000 A 
ATOM     28  C   UNL     1       2.320   2.599  -0.677  0.00  0.00    +0.000 A 
ATOM     29  C   UNL     1       3.352   1.686  -0.562  0.00  0.00    +0.003 A 
ATOM     30  C   UNL     1       3.071   0.340  -0.421  0.00  0.00    -0.047 A 
ATOM     31  C   UNL     1       1.759  -0.094  -0.395  0.00  0.00    +0.003 A 
ATOM     32  C   UNL     1       0.727   0.819  -0.512  0.00  0.00    +0.000 A 
ENDBRANCH  26  30
ENDBRANCH  25  26
ENDBRANCH  24  25
ENDBRANCH   1  24
BRANCH  14  33
ATOM     33  C   UNL     1       2.087  -7.242   2.761  0.00  0.00    -0.043 C 
BRANCH  33  34
ATOM     34  C   UNL     1       2.423  -8.366   1.815  0.00  0.00    -0.064 A 
ATOM     35  C   UNL     1       1.699  -8.528   0.648  0.00  0.00    +0.002 A 
ATOM     36  C   UNL     1       2.008  -9.559  -0.220  0.00  0.00    +0.000 A 
ATOM     37  C   UNL     1       3.041 -10.427   0.079  0.00  0.00    +0.000 A 
ATOM     38  C   UNL     1       3.766 -10.265   1.245  0.00  0.00    +0.000 A 
ATOM     39  C   UNL     1       3.460  -9.231   2.110  0.00  0.00    +0.002 A 
ENDBRANCH  33  34
ENDBRANCH  14  33
TORSDOF 7
