REMARK  Name = ZINC32860146
REMARK  10 active torsions:
REMARK  status: ('A' for Active; 'I' for Inactive)
REMARK    1  A    between atoms: C_1  and  C_2
REMARK    2  A    between atoms: C_15  and  C_17
REMARK    3  A    between atoms: C_17  and  N_18
REMARK    4  A    between atoms: N_18  and  C_19
REMARK    5  A    between atoms: N_18  and  C_20
REMARK    6  A    between atoms: C_20  and  C_22
REMARK    7  A    between atoms: C_20  and  C_23
REMARK    8  A    between atoms: N_25  and  C_26
REMARK    9  A    between atoms: C_29  and  O_33
REMARK   10  A    between atoms: O_33  and  C_34
REMARK                            x       y       z     vdW  Elec       q    Type
REMARK                         _______ _______ _______ _____ _____    ______ ____
ROOT
ATOM      1  N   UNL     1      -0.163   4.777  -3.709  0.00  0.00    +0.391 N 
ATOM      2  C   UNL     1       1.033   5.416  -4.273  0.00  0.00    -0.094 C 
ATOM      3  H   UNL     1      -0.910   5.562  -3.521  0.00  0.00    -0.080 HD
ENDROOT
BRANCH   1   4
ATOM      4  C   UNL     1      -0.745   3.819  -4.660  0.00  0.00    +0.017 C 
ATOM      5  C   UNL     1       0.098   2.542  -4.678  0.00  0.00    -0.004 C 
BRANCH   4   6
ATOM      6  C   UNL     1      -2.153   3.486  -4.238  0.00  0.00    +0.203 C 
ATOM      7  O   UNL     1      -2.548   3.805  -3.136  0.00  0.00    -0.277 OA
ATOM      8  N   UNL     1      -2.974   2.833  -5.085  0.00  0.00    -0.287 N 
ATOM      9  H   UNL     1      -2.640   2.606  -6.108  0.00  0.00    +0.155 HD
BRANCH   8  10
ATOM     10  C   UNL     1      -4.251   2.443  -4.662  0.00  0.00    +0.035 A 
ATOM     11  C   UNL     1      -4.800   1.251  -5.117  0.00  0.00    +0.027 A 
ATOM     12  C   UNL     1      -6.057   0.865  -4.696  0.00  0.00    +0.049 A 
ATOM     13  C   UNL     1      -6.777   1.672  -3.827  0.00  0.00    +0.145 A 
ATOM     14  C   UNL     1      -6.231   2.866  -3.376  0.00  0.00    +0.084 A 
ATOM     15  C   UNL     1      -4.971   3.251  -3.792  0.00  0.00    +0.047 A 
ATOM     16 CL   UNL     1      -7.133   3.875  -2.289  0.00  0.00    -0.080 Cl
BRANCH  13  17
ATOM     17  O   UNL     1      -8.017   1.293  -3.418  0.00  0.00    -0.433 OA
BRANCH  17  18
ATOM     18  C   UNL     1      -8.516   0.052  -3.922  0.00  0.00    +0.541 C 
ATOM     19  F   UNL     1      -8.582   0.109  -5.318  0.00  0.00    -0.166 F 
ATOM     20  F   UNL     1      -7.660  -0.985  -3.537  0.00  0.00    -0.166 F 
ENDBRANCH  17  18
ENDBRANCH  13  17
ENDBRANCH   8  10
ENDBRANCH   4   6
ENDBRANCH   1   4
BRANCH   1  21
ATOM     21  C   UNL     1       0.141   4.127  -2.428  0.00  0.00    +0.020 C 
BRANCH  21  35
ATOM     22  C   UNL     1      -0.019   6.043   1.785  0.00  0.00    +0.029 C 
ATOM     23  C   UNL     1       1.174   5.817   0.853  0.00  0.00    +0.087 C 
ATOM     24  C   UNL     1       2.374   5.338   1.671  0.00  0.00    +0.118 C 
ATOM     25  C   UNL     1       3.413   4.736   0.762  0.00  0.00    +0.219 C 
ATOM     26  O   UNL     1       4.418   5.362   0.498  0.00  0.00    -0.275 OA
ATOM     27  N   UNL     1       3.232   3.505   0.239  0.00  0.00    -0.284 N 
ATOM     28  C   UNL     1       2.036   2.811   0.454  0.00  0.00    +0.055 A 
ATOM     29  C   UNL     1       2.045   1.491   0.874  0.00  0.00    +0.025 A 
ATOM     30  C   UNL     1       0.851   0.817   1.051  0.00  0.00    +0.002 A 
ATOM     31  C   UNL     1      -0.352   1.453   0.804  0.00  0.00    +0.002 A 
ATOM     32  C   UNL     1      -0.370   2.772   0.388  0.00  0.00    +0.025 A 
ATOM     33  C   UNL     1       0.821   3.458   0.222  0.00  0.00    +0.058 A 
ATOM     34  N   UNL     1       0.821   4.809  -0.149  0.00  0.00    -0.268 N 
ATOM     35  C   UNL     1       0.502   5.175  -1.406  0.00  0.00    +0.204 C 
ATOM     36  O   UNL     1       0.505   6.348  -1.716  0.00  0.00    -0.277 OA
ATOM     37  H   UNL     1       4.028   3.040  -0.361  0.00  0.00    +0.155 HD
ENDBRANCH  21  35
ENDBRANCH   1  21
TORSDOF 7
