REMARK  Name = ZINC36065733
REMARK  10 active torsions:
REMARK  status: ('A' for Active; 'I' for Inactive)
REMARK    1  A    between atoms: C_3  and  C_6
REMARK    2  A    between atoms: C_6  and  N_7
REMARK    3  A    between atoms: C_8  and  C_10
REMARK    4  A    between atoms: C_13  and  C_15
REMARK    5  A    between atoms: C_15  and  N_16
REMARK    6  A    between atoms: N_16  and  C_17
REMARK    7  A    between atoms: N_16  and  C_28
REMARK    8  A    between atoms: C_17  and  C_18
REMARK    9  A    between atoms: C_21  and  C_24
REMARK   10  A    between atoms: C_28  and  C_29
REMARK                            x       y       z     vdW  Elec       q    Type
REMARK                         _______ _______ _______ _____ _____    ______ ____
ROOT
ATOM      1  N   UNL     1       5.088  -1.319   7.134  0.00  0.00    +0.391 N 
ATOM      2  H   UNL     1       4.424  -1.834   6.577  0.00  0.00    -0.080 HD
ENDROOT
BRANCH   1   3
ATOM      3  C   UNL     1       5.131   0.077   6.679  0.00  0.00    +0.020 C 
BRANCH   3   7
ATOM      4  C   UNL     1       5.184   0.143   3.058  0.00  0.00    +0.163 A 
ATOM      5  C   UNL     1       6.518   0.190   3.323  0.00  0.00    +0.230 A 
ATOM      6  O   UNL     1       6.652   0.172   4.658  0.00  0.00    -0.449 OA
ATOM      7  C   UNL     1       5.429   0.115   5.202  0.00  0.00    +0.179 A 
ATOM      8  N   UNL     1       4.539   0.102   4.255  0.00  0.00    -0.210 NA
BRANCH   4  10
ATOM      9  N   UNL     1       3.213   0.099   1.612  0.00  0.00    -0.303 N 
ATOM     10  C   UNL     1       4.555   0.142   1.724  0.00  0.00    +0.266 C 
ATOM     11  O   UNL     1       5.248   0.182   0.725  0.00  0.00    -0.268 OA
ATOM     12  H   UNL     1       2.660   0.068   2.409  0.00  0.00    +0.150 HD
BRANCH   9  13
ATOM     13  C   UNL     1       2.588   0.098   0.287  0.00  0.00    +0.179 C 
BRANCH  13  16
ATOM     14  C   UNL     1      -1.043   0.602   0.660  0.00  0.00    +0.041 A 
ATOM     15  C   UNL     1       0.271   1.108   0.534  0.00  0.00    +0.046 A 
ATOM     16  C   UNL     1       1.090   0.045   0.438  0.00  0.00    +0.122 A 
ATOM     17  O   UNL     1       0.346  -1.071   0.499  0.00  0.00    -0.466 OA
ATOM     18  C   UNL     1      -0.949  -0.740   0.634  0.00  0.00    +0.195 A 
ENDBRANCH  13  16
ENDBRANCH   9  13
ENDBRANCH   4  10
ENDBRANCH   3   7
ENDBRANCH   1   3
BRANCH   1  19
ATOM     19  C   UNL     1       4.681  -1.362   8.545  0.00  0.00    -0.042 C 
BRANCH  19  20
ATOM     20  C   UNL     1       3.261  -0.873   8.673  0.00  0.00    -0.064 A 
ATOM     21  C   UNL     1       3.011   0.446   9.000  0.00  0.00    +0.002 A 
ATOM     22  C   UNL     1       1.709   0.895   9.118  0.00  0.00    +0.012 A 
ATOM     23  C   UNL     1       0.657   0.023   8.908  0.00  0.00    +0.055 A 
ATOM     24  C   UNL     1       0.907  -1.296   8.580  0.00  0.00    +0.012 A 
ATOM     25  C   UNL     1       2.209  -1.743   8.458  0.00  0.00    +0.002 A 
BRANCH  23  26
ATOM     26  C   UNL     1      -0.763   0.512   9.037  0.00  0.00    +0.417 C 
ATOM     27  F   UNL     1      -1.210   0.980   7.797  0.00  0.00    -0.166 F 
ATOM     28  F   UNL     1      -1.582  -0.541   9.460  0.00  0.00    -0.166 F 
ATOM     29  F   UNL     1      -0.816   1.549   9.974  0.00  0.00    -0.166 F 
ENDBRANCH  23  26
ENDBRANCH  19  20
ENDBRANCH   1  19
BRANCH   1  30
ATOM     30  C   UNL     1       6.420  -1.922   6.990  0.00  0.00    -0.042 C 
BRANCH  30  31
ATOM     31  C   UNL     1       6.349  -3.387   7.338  0.00  0.00    -0.060 A 
ATOM     32  C   UNL     1       6.656  -3.808   8.618  0.00  0.00    +0.005 A 
ATOM     33  C   UNL     1       6.592  -5.150   8.941  0.00  0.00    +0.050 A 
ATOM     34  C   UNL     1       6.218  -6.077   7.982  0.00  0.00    +0.166 A 
ATOM     35  C   UNL     1       5.909  -5.653   6.692  0.00  0.00    +0.166 A 
ATOM     36  C   UNL     1       5.970  -4.305   6.377  0.00  0.00    +0.051 A 
ATOM     37  O   UNL     1       5.575  -6.744   5.942  0.00  0.00    -0.453 OA
ATOM     38  C   UNL     1       6.078  -7.880   6.671  0.00  0.00    +0.466 C 
ATOM     39  O   UNL     1       6.079  -7.434   8.040  0.00  0.00    -0.453 OA
ENDBRANCH  30  31
ENDBRANCH   1  30
TORSDOF 10
