REMARK  Name = ZINC63625520
REMARK  10 active torsions:
REMARK  status: ('A' for Active; 'I' for Inactive)
REMARK    1  A    between atoms: C_1  and  C_2
REMARK    2  A    between atoms: C_2  and  O_3
REMARK    3  A    between atoms: O_3  and  C_4
REMARK    4  A    between atoms: C_4  and  C_6
REMARK    5  A    between atoms: C_7  and  C_38
REMARK    6  A    between atoms: C_9  and  C_13
REMARK    7  A    between atoms: C_10  and  C_12
REMARK    8  A    between atoms: C_18  and  C_21
REMARK    9  A    between atoms: C_21  and  C_23
REMARK   10  A    between atoms: C_21  and  C_24
REMARK                            x       y       z     vdW  Elec       q    Type
REMARK                         _______ _______ _______ _____ _____    ______ ____
ROOT
ATOM      1  C   UNL     1       3.558  -2.847  -5.638  0.00  0.00    +0.261 C 
ATOM      2  O   UNL     1       3.672  -1.710  -6.050  0.00  0.00    -0.269 OA
ATOM      3  N   UNL     1       4.020  -3.879  -6.371  0.00  0.00    -0.297 N 
ATOM      4  C   UNL     1       3.752  -5.265  -5.964  0.00  0.00    +0.108 C 
ATOM      5  C   UNL     1       3.114  -6.010  -7.141  0.00  0.00    +0.023 C 
ATOM      6  C   UNL     1       4.015  -5.878  -8.372  0.00  0.00    +0.004 C 
ATOM      7  C   UNL     1       4.151  -4.402  -8.751  0.00  0.00    +0.023 C 
ATOM      8  C   UNL     1       4.796  -3.639  -7.596  0.00  0.00    +0.108 C 
ENDROOT
BRANCH   1  12
ATOM      9  C   UNL     1       1.767  -2.912  -2.264  0.00  0.00    +0.066 C 
ATOM     10  C   UNL     1       2.184  -4.170  -2.544  0.00  0.00    +0.049 C 
ATOM     11  N   UNL     1       2.824  -4.240  -3.713  0.00  0.00    -0.250 NA
ATOM     12  C   UNL     1       2.912  -3.099  -4.332  0.00  0.00    +0.111 C 
ATOM     13  C   UNL     1       2.217  -2.079  -3.451  0.00  0.00    +0.078 C 
ATOM     14  C   UNL     1       1.013  -1.467  -4.171  0.00  0.00    +0.019 C 
ATOM     15  C   UNL     1       1.952  -5.353  -1.640  0.00  0.00    +0.066 C 
BRANCH   9  16
ATOM     16  C   UNL     1       1.036  -2.456  -1.078  0.00  0.00    +0.338 C 
ATOM     17  O   UNL     1       0.743  -3.248  -0.203  0.00  0.00    -0.245 OA
BRANCH  16  18
ATOM     18  O   UNL     1       0.688  -1.159  -0.958  0.00  0.00    -0.462 OA
BRANCH  18  20
ATOM     19  C   UNL     1      -0.328   0.714   0.182  0.00  0.00    +0.048 C 
ATOM     20  C   UNL     1      -0.023  -0.784   0.224  0.00  0.00    +0.229 C 
ENDBRANCH  18  20
ENDBRANCH  16  18
ENDBRANCH   9  16
ENDBRANCH   1  12
BRANCH   6  21
ATOM     21  C   UNL     1       3.397  -6.650  -9.540  0.00  0.00    +0.075 C 
ATOM     22  C   UNL     1       3.263  -8.126  -9.162  0.00  0.00    +0.017 C 
BRANCH  21  23
ATOM     23  C   UNL     1       4.284  -6.520 -10.752  0.00  0.00    +0.219 C 
ATOM     24  O   UNL     1       5.456  -6.240 -10.618  0.00  0.00    -0.275 OA
ATOM     25  N   UNL     1       3.774  -6.717 -11.984  0.00  0.00    -0.298 N 
ATOM     26  C   UNL     1       2.336  -6.954 -12.169  0.00  0.00    +0.126 C 
ATOM     27  C   UNL     1       1.792  -5.920 -13.162  0.00  0.00    +0.125 C 
ATOM     28  N   UNL     1       2.664  -5.899 -14.344  0.00  0.00    -0.314 N 
ATOM     29  C   UNL     1       4.102  -5.662 -14.159  0.00  0.00    +0.125 C 
ATOM     30  C   UNL     1       4.646  -6.691 -13.167  0.00  0.00    +0.126 C 
ATOM     31  C   UNL     1       2.138  -6.102 -15.615  0.00  0.00    +0.099 A 
ATOM     32  C   UNL     1       0.759  -6.126 -15.794  0.00  0.00    +0.042 A 
ATOM     33  C   UNL     1       0.249  -6.328 -17.064  0.00  0.00    +0.005 A 
ATOM     34  C   UNL     1       1.139  -6.500 -18.116  0.00  0.00    +0.018 A 
ATOM     35  C   UNL     1       2.496  -6.465 -17.866  0.00  0.00    +0.084 A 
ATOM     36  N   UNL     1       2.954  -6.265 -16.644  0.00  0.00    -0.350 N 
ATOM     37  H   UNL     1       3.913  -6.240 -16.497  0.00  0.00    +0.166 HD
ENDBRANCH  21  23
ENDBRANCH   6  21
TORSDOF 6
