REMARK  Name = ZINC23738720
REMARK  9 active torsions:
REMARK  status: ('A' for Active; 'I' for Inactive)
REMARK    1  A    between atoms: C_1  and  C_2
REMARK    2  A    between atoms: N_5  and  S_11
REMARK    3  A    between atoms: C_7  and  C_10
REMARK    4  A    between atoms: S_11  and  C_14
REMARK    5  A    between atoms: C_18  and  C_20
REMARK    6  A    between atoms: N_22  and  C_23
REMARK    7  A    between atoms: C_23  and  C_24
REMARK    8  A    between atoms: C_24  and  C_26
REMARK    9  A    between atoms: C_24  and  N_32
REMARK                            x       y       z     vdW  Elec       q    Type
REMARK                         _______ _______ _______ _____ _____    ______ ____
ROOT
ATOM      1  C   UNL     1       1.311  -6.033  -3.132  0.00  0.00    +0.244 C 
ATOM      2  O   UNL     1       1.169  -6.802  -2.202  0.00  0.00    -0.270 OA
ATOM      3  N   UNL     1       2.194  -6.315  -4.111  0.00  0.00    -0.313 N 
ATOM      4  H   UNL     1       2.308  -5.701  -4.853  0.00  0.00    +0.149 HD
ENDROOT
BRANCH   1   9
ATOM      5  C   UNL     1      -1.141  -3.331  -2.241  0.00  0.00    +0.106 A 
ATOM      6  C   UNL     1      -0.977  -2.458  -3.302  0.00  0.00    +0.028 A 
ATOM      7  C   UNL     1      -0.070  -2.744  -4.307  0.00  0.00    +0.003 A 
ATOM      8  C   UNL     1       0.676  -3.903  -4.258  0.00  0.00    +0.013 A 
ATOM      9  C   UNL     1       0.515  -4.788  -3.191  0.00  0.00    +0.039 A 
ATOM     10  C   UNL     1      -0.397  -4.491  -2.177  0.00  0.00    +0.041 A 
BRANCH   5  11
ATOM     11  S   UNL     1      -2.298  -2.957  -0.966  0.00  0.00    +0.061 S 
ATOM     12  O   UNL     1      -2.653  -4.195  -0.364  0.00  0.00    -0.153 OA
ATOM     13  O   UNL     1      -3.262  -2.082  -1.535  0.00  0.00    -0.153 OA
BRANCH  11  17
ATOM     14  C   UNL     1       0.111   1.336   0.397  0.00  0.00    +0.039 C 
ATOM     15  C   UNL     1       0.035  -0.187   0.268  0.00  0.00    +0.131 C 
ATOM     16  C   UNL     1      -1.429  -0.617   0.122  0.00  0.00    +0.140 C 
ATOM     17  N   UNL     1      -1.490  -2.085   0.188  0.00  0.00    -0.172 NA
ATOM     18  C   UNL     1      -0.813  -2.756   1.308  0.00  0.00    +0.140 C 
ATOM     19  C   UNL     1       0.621  -2.222   1.397  0.00  0.00    +0.131 C 
ATOM     20  O   UNL     1       0.591  -0.793   1.437  0.00  0.00    -0.371 OA
ATOM     21  C   UNL     1       1.289  -2.756   2.666  0.00  0.00    +0.039 C 
ENDBRANCH  11  17
ENDBRANCH   5  11
ENDBRANCH   1   9
BRANCH   3  22
ATOM     22  C   UNL     1       2.983  -7.548  -4.053  0.00  0.00    +0.094 C 
BRANCH  22  23
ATOM     23  C   UNL     1       3.822  -7.678  -5.325  0.00  0.00    -0.020 C 
BRANCH  23  24
ATOM     24  C   UNL     1       4.841  -6.569  -5.370  0.00  0.00    -0.059 A 
ATOM     25  C   UNL     1       6.009  -6.674  -4.637  0.00  0.00    +0.002 A 
ATOM     26  C   UNL     1       6.944  -5.657  -4.678  0.00  0.00    +0.000 A 
ATOM     27  C   UNL     1       6.713  -4.535  -5.452  0.00  0.00    +0.000 A 
ATOM     28  C   UNL     1       5.545  -4.430  -6.185  0.00  0.00    +0.000 A 
ATOM     29  C   UNL     1       4.612  -5.449  -6.147  0.00  0.00    +0.002 A 
ENDBRANCH  23  24
BRANCH  23  30
ATOM     30  N   UNL     1       4.509  -8.976  -5.329  0.00  0.00    +0.385 N 
ATOM     31  C   UNL     1       3.517 -10.081  -5.359  0.00  0.00    -0.078 C 
ATOM     32  C   UNL     1       4.333 -11.274  -5.917  0.00  0.00    -0.020 C 
ATOM     33  C   UNL     1       5.246 -10.606  -6.970  0.00  0.00    -0.020 C 
ATOM     34  C   UNL     1       5.315  -9.123  -6.561  0.00  0.00    -0.078 C 
ATOM     35  H   UNL     1       5.100  -9.059  -4.515  0.00  0.00    -0.081 HD
ENDBRANCH  23  30
ENDBRANCH  22  23
ENDBRANCH   3  22
TORSDOF 7
