REMARK  Name = ZINC67408006
REMARK  12 active torsions:
REMARK  status: ('A' for Active; 'I' for Inactive)
REMARK    1  A    between atoms: C_1  and  C_2
REMARK    2  A    between atoms: C_7  and  C_9
REMARK    3  A    between atoms: C_7  and  N_27
REMARK    4  A    between atoms: C_9  and  N_10
REMARK    5  A    between atoms: N_13  and  C_14
REMARK    6  A    between atoms: N_13  and  C_24
REMARK    7  A    between atoms: C_14  and  C_15
REMARK    8  A    between atoms: C_18  and  O_23
REMARK    9  A    between atoms: C_19  and  O_21
REMARK   10  A    between atoms: O_21  and  C_22
REMARK   11  A    between atoms: N_27  and  C_28
REMARK   12  A    between atoms: N_27  and  C_29
REMARK                            x       y       z     vdW  Elec       q    Type
REMARK                         _______ _______ _______ _____ _____    ______ ____
ROOT
ATOM      1  N   UNL     1       1.317  -3.750   2.239  0.00  0.00    -0.301 N 
ATOM      2  C   UNL     1       1.798  -4.377   3.330  0.00  0.00    +0.303 C 
ATOM      3  O   UNL     1       2.419  -3.751   4.167  0.00  0.00    -0.253 OA
ATOM      4  N   UNL     1       1.591  -5.699   3.495  0.00  0.00    -0.278 N 
ATOM      5  H   UNL     1       0.886  -4.261   1.536  0.00  0.00    +0.150 HD
ENDROOT
BRANCH   4   6
ATOM      6  C   UNL     1       1.998  -6.355   4.739  0.00  0.00    +0.078 C 
ATOM      7  C   UNL     1       2.286  -5.462   5.947  0.00  0.00    +0.024 C 
ATOM      8  C   UNL     1       3.438  -6.146   5.210  0.00  0.00    +0.024 C 
ENDBRANCH   4   6
BRANCH   1   9
ATOM      9  C   UNL     1       1.444  -2.296   2.114  0.00  0.00    +0.094 C 
BRANCH   9  15
ATOM     10  C   UNL     1       1.351  -2.520  -2.877  0.00  0.00    +0.007 C 
ATOM     11  C   UNL     1       0.664  -1.938  -1.640  0.00  0.00    -0.015 C 
ATOM     12  C   UNL     1      -0.789  -2.415  -1.591  0.00  0.00    +0.003 C 
ATOM     13  C   UNL     1      -1.475  -1.833  -0.354  0.00  0.00    -0.001 C 
ATOM     14  C   UNL     1      -0.742  -2.303   0.904  0.00  0.00    -0.010 C 
ATOM     15  C   UNL     1       0.711  -1.826   0.856  0.00  0.00    -0.050 C 
ATOM     16  C   UNL     1       1.397  -2.408  -0.382  0.00  0.00    -0.007 C 
BRANCH  15  17
ATOM     17  N   UNL     1       0.744  -0.359   0.789  0.00  0.00    +0.381 N 
ATOM     18  C   UNL     1       0.183   0.200   2.027  0.00  0.00    -0.096 C 
ATOM     19  C   UNL     1       2.132   0.093   0.633  0.00  0.00    -0.096 C 
ATOM     20  H   UNL     1       0.197  -0.046   0.001  0.00  0.00    -0.082 HD
ENDBRANCH  15  17
ENDBRANCH   9  15
ENDBRANCH   1   9
BRANCH   4  21
ATOM     21  C   UNL     1       0.958  -6.479   2.428  0.00  0.00    +0.144 C 
BRANCH  21  22
ATOM     22  C   UNL     1       2.023  -7.115   1.572  0.00  0.00    -0.026 A 
ATOM     23  C   UNL     1       2.593  -6.399   0.536  0.00  0.00    +0.009 A 
ATOM     24  C   UNL     1       3.571  -6.977  -0.253  0.00  0.00    +0.049 A 
ATOM     25  C   UNL     1       3.981  -8.278  -0.005  0.00  0.00    +0.158 A 
ATOM     26  C   UNL     1       3.407  -8.998   1.038  0.00  0.00    +0.162 A 
ATOM     27  C   UNL     1       2.431  -8.411   1.827  0.00  0.00    +0.054 A 
BRANCH  26  28
ATOM     28  O   UNL     1       3.806 -10.274   1.285  0.00  0.00    -0.491 OA
ATOM     29  C   UNL     1       3.173 -10.953   2.372  0.00  0.00    +0.277 C 
ENDBRANCH  26  28
BRANCH  25  30
ATOM     30  O   UNL     1       4.941  -8.848  -0.780  0.00  0.00    -0.503 OA
ATOM     31  H   UNL     1       5.842  -8.713  -0.454  0.00  0.00    +0.292 HD
ENDBRANCH  25  30
ENDBRANCH  21  22
ENDBRANCH   4  21
TORSDOF 8
