REMARK  Name = ZINC35524343
REMARK  14 active torsions:
REMARK  status: ('A' for Active; 'I' for Inactive)
REMARK    1  A    between atoms: C_1  and  C_2
REMARK    2  A    between atoms: C_5  and  N_8
REMARK    3  A    between atoms: C_11  and  C_13
REMARK    4  A    between atoms: C_13  and  C_14
REMARK    5  A    between atoms: C_13  and  C_15
REMARK    6  A    between atoms: C_13  and  C_16
REMARK    7  A    between atoms: C_17  and  C_34
REMARK    8  A    between atoms: N_23  and  C_24
REMARK    9  A    between atoms: C_24  and  C_25
REMARK   10  A    between atoms: N_27  and  C_28
REMARK   11  A    between atoms: C_28  and  C_30
REMARK   12  A    between atoms: C_28  and  C_31
REMARK   13  A    between atoms: C_31  and  C_32
REMARK   14  A    between atoms: C_31  and  C_33
REMARK                            x       y       z     vdW  Elec       q    Type
REMARK                         _______ _______ _______ _____ _____    ______ ____
ROOT
ATOM      1  N   UNL     1      -0.693  -3.786  -1.363  0.00  0.00    -0.218 N 
ATOM      2  C   UNL     1       0.614  -4.095  -1.533  0.00  0.00    +0.136 A 
ATOM      3  C   UNL     1       0.736  -5.442  -1.495  0.00  0.00    +0.034 A 
ATOM      4  C   UNL     1      -0.534  -5.982  -1.291  0.00  0.00    +0.075 A 
ATOM      5  N   UNL     1      -1.392  -4.993  -1.207  0.00  0.00    -0.169 NA
ATOM      6  C   UNL     1       2.033  -6.194  -1.654  0.00  0.00    +0.118 C 
ATOM      7  S   UNL     1       3.017  -5.989  -0.126  0.00  0.00    -0.138 S 
ATOM      8  C   UNL     1       2.733  -4.231   0.271  0.00  0.00    +0.166 C 
ATOM      9  C   UNL     1       2.789  -3.392  -0.969  0.00  0.00    +0.231 C 
ATOM     10  O   UNL     1       3.833  -2.868  -1.298  0.00  0.00    -0.274 OA
ATOM     11  N   UNL     1       1.694  -3.218  -1.715  0.00  0.00    -0.246 N 
ENDROOT
BRANCH   1  16
ATOM     12  C   UNL     1      -2.932   1.429  -1.275  0.00  0.00    +0.044 C 
ATOM     13  C   UNL     1      -2.338   0.044  -1.298  0.00  0.00    -0.050 A 
ATOM     14  C   UNL     1      -2.977  -0.970  -1.987  0.00  0.00    +0.005 A 
ATOM     15  C   UNL     1      -2.435  -2.240  -2.011  0.00  0.00    +0.028 A 
ATOM     16  C   UNL     1      -1.246  -2.498  -1.342  0.00  0.00    +0.067 A 
ATOM     17  C   UNL     1      -0.606  -1.478  -0.651  0.00  0.00    +0.028 A 
ATOM     18  C   UNL     1      -1.151  -0.209  -0.636  0.00  0.00    +0.005 A 
ENDBRANCH   1  16
BRANCH   6  19
ATOM     19  C   UNL     1       1.746  -7.655  -1.884  0.00  0.00    +0.007 A 
ATOM     20  C   UNL     1       1.478  -8.625  -0.976  0.00  0.00    +0.012 A 
ATOM     21  C   UNL     1       1.242  -9.913  -1.421  0.00  0.00    +0.008 A 
ATOM     22  C   UNL     1       1.285 -10.167  -2.752  0.00  0.00    +0.045 A 
ATOM     23  S   UNL     1       1.662  -8.556  -3.423  0.00  0.00    -0.100 S 
ENDBRANCH   6  19
BRANCH   4  24
ATOM     24  C   UNL     1      -0.864  -7.449  -1.182  0.00  0.00    +0.007 C 
ATOM     25  C   UNL     1      -0.210  -8.025   0.076  0.00  0.00    +0.017 C 
ATOM     26  C   UNL     1      -2.381  -7.626  -1.095  0.00  0.00    +0.017 C 
ATOM     27  C   UNL     1      -0.334  -8.184  -2.414  0.00  0.00    +0.017 C 
ENDBRANCH   4  24
BRANCH  11  28
ATOM     28  C   UNL     1       1.622  -2.136  -2.701  0.00  0.00    +0.210 C 
BRANCH  28  29
ATOM     29  C   UNL     1       2.049  -2.656  -4.049  0.00  0.00    +0.231 C 
ATOM     30  O   UNL     1       2.292  -3.836  -4.195  0.00  0.00    -0.274 OA
ATOM     31  N   UNL     1       2.160  -1.811  -5.093  0.00  0.00    -0.311 N 
ATOM     32  H   UNL     1       2.037  -0.858  -4.961  0.00  0.00    +0.149 HD
BRANCH  31  33
ATOM     33  C   UNL     1       2.467  -2.332  -6.428  0.00  0.00    +0.072 C 
ATOM     34  C   UNL     1       1.165  -2.683  -7.150  0.00  0.00    +0.028 C 
BRANCH  33  35
ATOM     35  C   UNL     1       3.224  -1.270  -7.228  0.00  0.00    +0.003 C 
ATOM     36  C   UNL     1       4.569  -0.987  -6.556  0.00  0.00    +0.009 C 
ATOM     37  C   UNL     1       3.462  -1.778  -8.652  0.00  0.00    +0.009 C 
ENDBRANCH  33  35
ENDBRANCH  31  33
ENDBRANCH  28  29
ENDBRANCH  11  28
TORSDOF 7
