REMARK  Name = ZINC21243960
REMARK  7 active torsions:
REMARK  status: ('A' for Active; 'I' for Inactive)
REMARK    1  A    between atoms: C_1  and  C_2
REMARK    2  A    between atoms: C_2  and  O_3
REMARK    3  A    between atoms: O_3  and  C_4
REMARK    4  A    between atoms: C_6  and  C_11
REMARK    5  A    between atoms: C_9  and  O_10
REMARK    6  A    between atoms: C_22  and  C_25
REMARK    7  A    between atoms: C_28  and  C_31
REMARK                            x       y       z     vdW  Elec       q    Type
REMARK                         _______ _______ _______ _____ _____    ______ ____
ROOT
ATOM      1  C   UNL     1       6.582  -0.243  -0.101  0.00  0.00    +0.063 C 
ATOM      2  C   UNL     1       6.646  -1.210  -1.284  0.00  0.00    +0.109 C 
ATOM      3  C   UNL     1       6.174  -0.501  -2.527  0.00  0.00    +0.218 C 
ATOM      4  O   UNL     1       6.662  -0.776  -3.602  0.00  0.00    -0.275 OA
ATOM      5  N   UNL     1       5.213   0.435  -2.447  0.00  0.00    -0.289 N 
ATOM      6  C   UNL     1       4.625   0.751  -1.249  0.00  0.00    +0.018 C 
ATOM      7  C   UNL     1       5.236   0.443  -0.085  0.00  0.00    +0.020 C 
ATOM      8  C   UNL     1       4.648   0.748   1.153  0.00  0.00    +0.162 C 
ATOM      9  O   UNL     1       5.234   0.466   2.179  0.00  0.00    -0.292 OA
ATOM     10  C   UNL     1       3.303   1.420   1.229  0.00  0.00    +0.088 C 
ATOM     11  C   UNL     1       2.490   1.048  -0.016  0.00  0.00    +0.032 C 
ATOM     12  C   UNL     1       3.288   1.449  -1.258  0.00  0.00    +0.059 C 
ATOM     13  H   UNL     1       4.884   0.964  -3.354  0.00  0.00    +0.155 HD
ENDROOT
BRANCH  11  14
ATOM     14  C   UNL     1       1.175   1.783   0.000  0.00  0.00    -0.043 A 
ATOM     15  C   UNL     1      -0.013   1.076   0.008  0.00  0.00    +0.004 A 
ATOM     16  C   UNL     1      -1.219   1.751   0.017  0.00  0.00    +0.003 A 
ATOM     17  C   UNL     1      -1.238   3.133   0.029  0.00  0.00    -0.050 A 
ATOM     18  C   UNL     1      -0.050   3.840   0.022  0.00  0.00    +0.003 A 
ATOM     19  C   UNL     1       1.156   3.165   0.008  0.00  0.00    +0.004 A 
ATOM     20  C   UNL     1      -2.553   3.869   0.044  0.00  0.00    +0.044 C 
ENDBRANCH  11  14
BRANCH   1  23
ATOM     21  C   UNL     1       9.637   1.859   0.623  0.00  0.00    +0.162 A 
ATOM     22  C   UNL     1       8.635   0.910   0.747  0.00  0.00    +0.053 A 
ATOM     23  C   UNL     1       7.671   0.790  -0.237  0.00  0.00    -0.036 A 
ATOM     24  C   UNL     1       7.707   1.613  -1.348  0.00  0.00    +0.008 A 
ATOM     25  C   UNL     1       8.701   2.565  -1.475  0.00  0.00    +0.049 A 
ATOM     26  C   UNL     1       9.670   2.690  -0.492  0.00  0.00    +0.158 A 
BRANCH  26  27
ATOM     27  O   UNL     1      10.651   3.623  -0.618  0.00  0.00    -0.503 OA
ATOM     28  H   UNL     1      10.676   4.280  -1.501  0.00  0.00    +0.292 HD
ENDBRANCH  26  27
BRANCH  21  29
ATOM     29  O   UNL     1      10.587   1.978   1.590  0.00  0.00    -0.489 OA
BRANCH  29  31
ATOM     30  C   UNL     1      11.636   1.372   3.681  0.00  0.00    +0.048 C 
ATOM     31  C   UNL     1      10.490   1.091   2.706  0.00  0.00    +0.226 C 
ENDBRANCH  29  31
ENDBRANCH  21  29
ENDBRANCH   1  23
TORSDOF 5
