REMARK  Name = ZINC39666371
REMARK  7 active torsions:
REMARK  status: ('A' for Active; 'I' for Inactive)
REMARK    1  A    between atoms: C_1  and  C_2
REMARK    2  A    between atoms: C_2  and  C_4
REMARK    3  A    between atoms: C_2  and  O_29
REMARK    4  A    between atoms: C_4  and  N_5
REMARK    5  A    between atoms: C_6  and  C_8
REMARK    6  A    between atoms: C_19  and  C_21
REMARK    7  A    between atoms: O_29  and  C_30
REMARK                            x       y       z     vdW  Elec       q    Type
REMARK                         _______ _______ _______ _____ _____    ______ ____
ROOT
ATOM      1  C   UNL     1       1.524  -4.260  -2.977  0.00  0.00    +0.100 C 
ATOM      2  C   UNL     1       0.129  -4.817  -3.342  0.00  0.00    +0.121 C 
ATOM      3  N   UNL     1       0.101  -4.814  -4.823  0.00  0.00    -0.296 N 
ATOM      4  C   UNL     1       1.463  -5.243  -5.219  0.00  0.00    +0.115 C 
ATOM      5  C   UNL     1       2.397  -4.546  -4.210  0.00  0.00    -0.004 C 
ATOM      6  C   UNL     1       3.554  -5.467  -3.837  0.00  0.00    -0.010 C 
ATOM      7  C   UNL     1       4.441  -5.689  -5.065  0.00  0.00    -0.082 C 
ATOM      8  N   UNL     1       4.952  -4.398  -5.542  0.00  0.00    +0.379 N 
ATOM      9  C   UNL     1       3.838  -3.552  -5.986  0.00  0.00    -0.082 C 
ATOM     10  C   UNL     1       2.925  -3.240  -4.797  0.00  0.00    -0.010 C 
ATOM     11  C   UNL     1      -0.931  -4.495  -5.629  0.00  0.00    +0.249 C 
ATOM     12  O   UNL     1      -0.797  -4.543  -6.837  0.00  0.00    -0.270 OA
ATOM     13  H   UNL     1       5.446  -3.936  -4.793  0.00  0.00    -0.086 HD
ATOM     14  H   UNL     1       5.585  -4.552  -6.313  0.00  0.00    -0.086 HD
ENDROOT
BRANCH  11  15
ATOM     15  C   UNL     1      -2.225  -4.087  -5.045  0.00  0.00    +0.073 A 
ATOM     16  C   UNL     1      -2.481  -2.739  -4.779  0.00  0.00    +0.054 A 
ATOM     17  C   UNL     1      -3.694  -2.365  -4.233  0.00  0.00    +0.021 A 
ATOM     18  C   UNL     1      -4.653  -3.321  -3.950  0.00  0.00    +0.003 A 
ATOM     19  C   UNL     1      -4.407  -4.657  -4.211  0.00  0.00    +0.021 A 
ATOM     20  C   UNL     1      -3.202  -5.045  -4.762  0.00  0.00    +0.054 A 
ATOM     21 CL   UNL     1      -2.898  -6.722  -5.096  0.00  0.00    -0.083 Cl
ATOM     22 CL   UNL     1      -1.278  -1.538  -5.131  0.00  0.00    -0.083 Cl
ENDBRANCH  11  15
BRANCH   1  24
ATOM     23  N   UNL     1       2.367  -2.180  -1.938  0.00  0.00    -0.312 N 
ATOM     24  C   UNL     1       1.446  -2.777  -2.721  0.00  0.00    +0.218 C 
ATOM     25  O   UNL     1       0.556  -2.122  -3.219  0.00  0.00    -0.275 OA
ATOM     26  H   UNL     1       3.079  -2.704  -1.540  0.00  0.00    +0.149 HD
BRANCH  23  27
ATOM     27  C   UNL     1       2.292  -0.738  -1.689  0.00  0.00    +0.148 C 
BRANCH  27  29
ATOM     28  C   UNL     1       3.297   1.162  -0.415  0.00  0.00    +0.053 C 
ATOM     29  C   UNL     1       3.446  -0.318  -0.777  0.00  0.00    +0.187 C 
BRANCH  29  30
ATOM     30  O   UNL     1       4.687  -0.520  -1.455  0.00  0.00    -0.486 OA
BRANCH  30  31
ATOM     31  C   UNL     1       5.792  -0.691  -0.682  0.00  0.00    +0.139 A 
ATOM     32  C   UNL     1       5.703  -0.558   0.696  0.00  0.00    +0.047 A 
ATOM     33  C   UNL     1       6.827  -0.734   1.479  0.00  0.00    +0.004 A 
ATOM     34  C   UNL     1       8.041  -1.042   0.891  0.00  0.00    +0.002 A 
ATOM     35  C   UNL     1       8.133  -1.175  -0.482  0.00  0.00    +0.023 A 
ATOM     36  C   UNL     1       7.009  -1.006  -1.270  0.00  0.00    +0.083 A 
ATOM     37 CL   UNL     1       7.123  -1.181  -2.994  0.00  0.00    -0.080 Cl
ENDBRANCH  30  31
ENDBRANCH  29  30
ENDBRANCH  27  29
ENDBRANCH  23  27
ENDBRANCH   1  24
TORSDOF 6
