REMARK  Name = ZINC16455513
REMARK  7 active torsions:
REMARK  status: ('A' for Active; 'I' for Inactive)
REMARK    1  A    between atoms: C_1  and  C_2
REMARK    2  A    between atoms: C_5  and  C_9
REMARK    3  A    between atoms: C_6  and  C_8
REMARK    4  A    between atoms: C_9  and  C_11
REMARK    5  A    between atoms: C_11  and  N_12
REMARK    6  A    between atoms: C_15  and  C_19
REMARK    7  A    between atoms: C_15  and  C_20
REMARK                            x       y       z     vdW  Elec       q    Type
REMARK                         _______ _______ _______ _____ _____    ______ ____
ROOT
ATOM      1  N   UNL     1       1.023  -6.409  -0.625  0.00  0.00    -0.216 N 
ATOM      2  C   UNL     1       2.262  -6.903  -0.436  0.00  0.00    +0.251 C 
ATOM      3  O   UNL     1       3.313  -6.309  -0.547  0.00  0.00    -0.272 OA
ATOM      4  C   UNL     1       2.069  -8.357  -0.053  0.00  0.00    +0.135 C 
ATOM      5  N   UNL     1       0.606  -8.529  -0.074  0.00  0.00    -0.281 N 
ATOM      6  C   UNL     1       0.083  -7.337  -0.413  0.00  0.00    +0.310 C 
ATOM      7  O   UNL     1      -1.109  -7.128  -0.518  0.00  0.00    -0.252 OA
ATOM      8  C   UNL     1       2.733  -9.277  -1.080  0.00  0.00    +0.047 C 
ATOM      9  H   UNL     1       0.115  -9.343   0.122  0.00  0.00    +0.152 HD
ENDROOT
BRANCH   4  10
ATOM     10  C   UNL     1       2.615  -8.620   1.327  0.00  0.00    -0.015 A 
ATOM     11  C   UNL     1       3.677  -7.874   1.802  0.00  0.00    +0.009 A 
ATOM     12  C   UNL     1       4.178  -8.114   3.068  0.00  0.00    +0.039 A 
ATOM     13  C   UNL     1       3.615  -9.100   3.860  0.00  0.00    +0.123 A 
ATOM     14  C   UNL     1       2.551  -9.846   3.382  0.00  0.00    +0.039 A 
ATOM     15  C   UNL     1       2.048  -9.602   2.118  0.00  0.00    +0.009 A 
ATOM     16  F   UNL     1       4.104  -9.335   5.097  0.00  0.00    -0.205 F 
ENDBRANCH   4  10
BRANCH   1  17
ATOM     17  C   UNL     1       0.740  -5.024  -1.010  0.00  0.00    +0.197 C 
BRANCH  17  18
ATOM     18  C   UNL     1       0.587  -4.179   0.229  0.00  0.00    +0.181 C 
ATOM     19  O   UNL     1       0.703  -4.685   1.325  0.00  0.00    -0.290 OA
BRANCH  18  24
ATOM     20  C   UNL     1      -0.549   1.436  -0.242  0.00  0.00    +0.044 C 
ATOM     21  C   UNL     1      -0.251  -0.036  -0.118  0.00  0.00    -0.050 A 
ATOM     22  C   UNL     1       0.012  -0.782  -1.254  0.00  0.00    +0.004 A 
ATOM     23  C   UNL     1       0.286  -2.130  -1.149  0.00  0.00    +0.012 A 
ATOM     24  C   UNL     1       0.296  -2.742   0.108  0.00  0.00    +0.022 A 
ATOM     25  C   UNL     1       0.029  -1.981   1.251  0.00  0.00    -0.040 A 
ATOM     26  C   UNL     1      -0.237  -0.633   1.130  0.00  0.00    +0.007 A 
ATOM     27  C   UNL     1       0.037  -2.630   2.610  0.00  0.00    +0.044 C 
ENDBRANCH  18  24
ENDBRANCH  17  18
ENDBRANCH   1  17
TORSDOF 4
