REMARK  Name = ZINC13501119
REMARK  13 active torsions:
REMARK  status: ('A' for Active; 'I' for Inactive)
REMARK    1  A    between atoms: C_1  and  C_2
REMARK    2  A    between atoms: C_2  and  C_3
REMARK    3  A    between atoms: C_3  and  C_5
REMARK    4  A    between atoms: C_3  and  N_71
REMARK    5  A    between atoms: N_9  and  C_10
REMARK    6  A    between atoms: C_10  and  C_11
REMARK    7  A    between atoms: C_10  and  C_12
REMARK    8  A    between atoms: C_10  and  C_13
REMARK    9  A    between atoms: C_13  and  C_14
REMARK   10  A    between atoms: C_15  and  C_16
REMARK   11  A    between atoms: C_15  and  N_71
REMARK   12  A    between atoms: C_22  and  C_28
REMARK   13  A    between atoms: C_29  and  N_71
REMARK                            x       y       z     vdW  Elec       q    Type
REMARK                         _______ _______ _______ _____ _____    ______ ____
ROOT
ATOM      1  N   UNL     1      -1.289   2.535   1.506  0.00  0.00    +0.391 N 
ATOM      2  H   UNL     1      -1.724   2.961   2.333  0.00  0.00    -0.080 HD
ENDROOT
BRANCH   1   3
ATOM      3  C   UNL     1       0.012   3.191   1.255  0.00  0.00    -0.067 C 
ATOM      4  C   UNL     1       0.771   2.466   0.142  0.00  0.00    -0.015 C 
ATOM      5  C   UNL     1       2.114   3.161  -0.095  0.00  0.00    -0.002 C 
ATOM      6  C   UNL     1       2.940   3.127   1.192  0.00  0.00    -0.000 C 
ATOM      7  C   UNL     1       2.180   3.851   2.305  0.00  0.00    -0.002 C 
ATOM      8  C   UNL     1       0.838   3.156   2.542  0.00  0.00    -0.015 C 
ENDBRANCH   1   3
BRANCH   1   9
ATOM      9  C   UNL     1      -1.088   1.093   1.758  0.00  0.00    +0.003 C 
BRANCH   9  10
ATOM     10  C   UNL     1      -0.840   0.360   0.465  0.00  0.00    +0.139 A 
ATOM     11  N   UNL     1      -1.383   0.621  -0.699  0.00  0.00    -0.115 NA
ATOM     12  N   UNL     1      -0.917  -0.223  -1.553  0.00  0.00    -0.023 NA
ATOM     13  N   UNL     1      -0.091  -1.016  -0.965  0.00  0.00    -0.043 NA
ATOM     14  N   UNL     1      -0.012  -0.685   0.280  0.00  0.00    -0.225 N 
BRANCH  14  15
ATOM     15  C   UNL     1       0.819  -1.328   1.300  0.00  0.00    +0.061 C 
ATOM     16  C   UNL     1       1.911  -0.358   1.755  0.00  0.00    +0.036 C 
ATOM     17  C   UNL     1      -0.051  -1.714   2.498  0.00  0.00    +0.036 C 
BRANCH  15  18
ATOM     18  C   UNL     1       1.466  -2.585   0.714  0.00  0.00    +0.026 C 
ATOM     19  C   UNL     1       2.334  -3.257   1.779  0.00  0.00    +0.006 C 
ENDBRANCH  15  18
ENDBRANCH  14  15
ENDBRANCH   9  10
BRANCH   9  21
ATOM     20  C   UNL     1      -2.529   1.191   3.797  0.00  0.00    +0.002 C 
ATOM     21  C   UNL     1      -2.344   0.532   2.429  0.00  0.00    -0.011 C 
ENDBRANCH   9  21
ENDBRANCH   1   9
BRANCH   1  22
ATOM     22  C   UNL     1      -2.183   2.725   0.343  0.00  0.00    -0.036 C 
BRANCH  22  23
ATOM     23  C   UNL     1      -2.691   4.143   0.350  0.00  0.00    +0.001 A 
ATOM     24  C   UNL     1      -2.079   5.084  -0.410  0.00  0.00    +0.017 A 
ATOM     25  C   UNL     1      -2.597   6.453  -0.381  0.00  0.00    -0.001 A 
ATOM     26  C   UNL     1      -2.008   7.466  -1.145  0.00  0.00    +0.010 A 
ATOM     27  C   UNL     1      -2.515   8.733  -1.095  0.00  0.00    +0.001 A 
ATOM     28  C   UNL     1      -3.612   9.025  -0.294  0.00  0.00    +0.005 A 
ATOM     29  C   UNL     1      -4.208   8.042   0.466  0.00  0.00    -0.026 A 
ATOM     30  C   UNL     1      -3.709   6.744   0.432  0.00  0.00    +0.052 A 
ATOM     31  N   UNL     1      -4.286   5.742   1.181  0.00  0.00    -0.322 N 
ATOM     32  H   UNL     1      -5.052   5.944   1.741  0.00  0.00    +0.169 HD
ATOM     33  C   UNL     1      -3.806   4.486   1.144  0.00  0.00    +0.251 A 
ATOM     34  O   UNL     1      -4.345   3.624   1.817  0.00  0.00    -0.268 OA
ATOM     35  C   UNL     1      -5.397   8.373   1.331  0.00  0.00    +0.046 C 
ENDBRANCH  22  23
ENDBRANCH   1  22
TORSDOF 8
