REMARK  Name = ZINC04502300
REMARK  3 active torsions:
REMARK  status: ('A' for Active; 'I' for Inactive)
REMARK    1  A    between atoms: C_1  and  C_2
REMARK    2  A    between atoms: C_7  and  C_23
REMARK    3  A    between atoms: C_13  and  C_18
REMARK                            x       y       z     vdW  Elec       q    Type
REMARK                         _______ _______ _______ _____ _____    ______ ____
ROOT
ATOM      1  C   UNL     1      -0.018   1.503   0.010  0.00  0.00    +0.090 C 
ATOM      2  C   UNL     1       0.002  -0.004   0.002  0.00  0.00    +0.150 A 
ATOM      3  N   UNL     1       0.008  -0.773  -1.092  0.00  0.00    -0.198 NA
ATOM      4  C   UNL     1       0.029  -2.029  -0.742  0.00  0.00    +0.219 A 
ATOM      5  N   UNL     1       0.031  -2.087   0.613  0.00  0.00    -0.221 N 
ATOM      6  N   UNL     1       0.023  -0.769   1.066  0.00  0.00    -0.153 NA
ATOM      7  C   UNL     1       0.040  -3.337   1.362  0.00  0.00    +0.175 C 
ATOM      8  C   UNL     1       0.388  -4.489   0.444  0.00  0.00    +0.041 C 
ATOM      9  C   UNL     1       0.378  -4.364  -0.900  0.00  0.00    +0.020 C 
ATOM     10  N   UNL     1       0.050  -3.179  -1.515  0.00  0.00    -0.287 N 
ATOM     11  C   UNL     1       0.737  -5.529  -1.791  0.00  0.00    +0.063 C 
ATOM     12  C   UNL     1       0.338  -6.840  -1.110  0.00  0.00    +0.068 C 
ATOM     13  C   UNL     1       1.066  -6.926   0.235  0.00  0.00    +0.091 C 
ATOM     14  C   UNL     1       0.726  -5.711   1.053  0.00  0.00    +0.164 C 
ATOM     15  O   UNL     1       0.743  -5.787   2.265  0.00  0.00    -0.292 OA
ATOM     16  H   UNL     1      -0.161  -3.149  -2.461  0.00  0.00    +0.155 HD
ENDROOT
BRANCH   7  17
ATOM     17  C   UNL     1      -1.323  -3.572   1.960  0.00  0.00    -0.018 A 
ATOM     18  C   UNL     1      -2.428  -3.688   1.138  0.00  0.00    +0.007 A 
ATOM     19  C   UNL     1      -3.678  -3.903   1.686  0.00  0.00    +0.020 A 
ATOM     20  C   UNL     1      -3.824  -4.003   3.058  0.00  0.00    +0.041 A 
ATOM     21  C   UNL     1      -2.718  -3.887   3.881  0.00  0.00    +0.020 A 
ATOM     22  C   UNL     1      -1.467  -3.677   3.331  0.00  0.00    +0.007 A 
ATOM     23 CL   UNL     1      -5.394  -4.273   3.747  0.00  0.00    -0.084 Cl
ENDBRANCH   7  17
BRANCH  12  24
ATOM     24  C   UNL     1       0.735  -8.005  -1.979  0.00  0.00    +0.109 A 
ATOM     25  C   UNL     1      -0.102  -8.922  -2.496  0.00  0.00    +0.045 A 
ATOM     26  C   UNL     1       0.690  -9.827  -3.240  0.00  0.00    +0.041 A 
ATOM     27  C   UNL     1       1.964  -9.408  -3.134  0.00  0.00    +0.195 A 
ATOM     28  O   UNL     1       1.984  -8.301  -2.374  0.00  0.00    -0.468 OA
ENDBRANCH  12  24
TORSDOF 2
