REMARK  Name = ZINC34975282
REMARK  9 active torsions:
REMARK  status: ('A' for Active; 'I' for Inactive)
REMARK    1  A    between atoms: C_1  and  C_2
REMARK    2  A    between atoms: C_5  and  C_8
REMARK    3  A    between atoms: C_15  and  C_17
REMARK    4  A    between atoms: C_18  and  C_20
REMARK    5  A    between atoms: C_20  and  C_22
REMARK    6  A    between atoms: C_20  and  N_25
REMARK    7  A    between atoms: C_22  and  C_23
REMARK    8  A    between atoms: C_22  and  C_24
REMARK    9  A    between atoms: N_28  and  C_29
REMARK                            x       y       z     vdW  Elec       q    Type
REMARK                         _______ _______ _______ _____ _____    ______ ____
ROOT
ATOM      1  C   UNL     1      -1.550  -4.770   0.336  0.00  0.00    +0.247 C 
ATOM      2  O   UNL     1      -1.592  -5.393  -0.707  0.00  0.00    -0.270 OA
ATOM      3  N   UNL     1      -1.068  -5.354   1.451  0.00  0.00    -0.292 N 
ATOM      4  C   UNL     1      -1.014  -4.614   2.720  0.00  0.00    +0.127 C 
ATOM      5  C   UNL     1       0.427  -4.645   3.244  0.00  0.00    +0.127 C 
ATOM      6  N   UNL     1       0.908  -6.033   3.213  0.00  0.00    -0.297 N 
ATOM      7  C   UNL     1       0.854  -6.773   1.945  0.00  0.00    +0.130 C 
ATOM      8  C   UNL     1      -0.592  -6.744   1.421  0.00  0.00    +0.091 C 
ATOM      9  C   UNL     1      -0.631  -7.270  -0.015  0.00  0.00    +0.029 C 
ATOM     10  C   UNL     1       1.391  -6.617   4.328  0.00  0.00    +0.236 C 
ATOM     11  O   UNL     1       1.875  -7.727   4.271  0.00  0.00    -0.274 OA
ENDROOT
BRANCH   1  16
ATOM     12  C   UNL     1      -3.415   0.671   0.513  0.00  0.00    +0.044 C 
ATOM     13  C   UNL     1      -2.926  -0.754   0.467  0.00  0.00    -0.050 A 
ATOM     14  C   UNL     1      -2.350  -1.247  -0.690  0.00  0.00    +0.004 A 
ATOM     15  C   UNL     1      -1.901  -2.551  -0.739  0.00  0.00    +0.013 A 
ATOM     16  C   UNL     1      -2.029  -3.372   0.382  0.00  0.00    +0.037 A 
ATOM     17  C   UNL     1      -2.611  -2.868   1.546  0.00  0.00    +0.013 A 
ATOM     18  C   UNL     1      -3.051  -1.561   1.583  0.00  0.00    +0.004 A 
ENDBRANCH   1  16
BRANCH  10  19
ATOM     19  C   UNL     1       1.329  -5.889   5.647  0.00  0.00    +0.163 C 
BRANCH  19  20
ATOM     20  N   UNL     1       1.196  -6.861   6.735  0.00  0.00    -0.288 N 
ATOM     21  C   UNL     1       0.631  -6.493   7.902  0.00  0.00    +0.304 C 
ATOM     22  O   UNL     1       0.233  -5.354   8.052  0.00  0.00    -0.252 OA
ATOM     23  N   UNL     1       0.508  -7.387   8.903  0.00  0.00    -0.268 N 
ATOM     24  H   UNL     1       1.513  -7.770   6.615  0.00  0.00    +0.151 HD
ATOM     25  H   UNL     1       0.893  -8.273   8.812  0.00  0.00    +0.156 HD
BRANCH  23  26
ATOM     26  C   UNL     1      -0.174  -7.037  10.074  0.00  0.00    +0.049 A 
ATOM     27  C   UNL     1      -1.256  -6.169  10.016  0.00  0.00    +0.024 A 
ATOM     28  C   UNL     1      -1.928  -5.826  11.173  0.00  0.00    +0.002 A 
ATOM     29  C   UNL     1      -1.524  -6.346  12.389  0.00  0.00    +0.001 A 
ATOM     30  C   UNL     1      -0.447  -7.211  12.451  0.00  0.00    +0.017 A 
ATOM     31  C   UNL     1       0.226  -7.562  11.296  0.00  0.00    +0.039 A 
ATOM     32 BR   UNL     1       1.695  -8.751  11.381  0.00  0.00    -0.048 Br
ENDBRANCH  23  26
ENDBRANCH  19  20
BRANCH  19  33
ATOM     33  C   UNL     1       2.611  -5.078   5.842  0.00  0.00    +0.012 C 
ATOM     34  C   UNL     1       2.718  -4.020   4.742  0.00  0.00    +0.009 C 
ATOM     35  C   UNL     1       2.577  -4.391   7.209  0.00  0.00    +0.009 C 
ENDBRANCH  19  33
ENDBRANCH  10  19
TORSDOF 5
