REMARK  Name = ZINC11614283
REMARK  11 active torsions:
REMARK  status: ('A' for Active; 'I' for Inactive)
REMARK    1  A    between atoms: C_1  and  C_2
REMARK    2  A    between atoms: C_2  and  C_3
REMARK    3  A    between atoms: C_3  and  C_5
REMARK    4  A    between atoms: C_3  and  N_6
REMARK    5  A    between atoms: C_10  and  C_11
REMARK    6  A    between atoms: C_12  and  C_34
REMARK    7  A    between atoms: C_13  and  C_32
REMARK    8  A    between atoms: N_16  and  C_31
REMARK    9  A    between atoms: C_17  and  N_18
REMARK   10  A    between atoms: C_21  and  C_24
REMARK   11  A    between atoms: C_24  and  C_25
REMARK                            x       y       z     vdW  Elec       q    Type
REMARK                         _______ _______ _______ _____ _____    ______ ____
ROOT
ATOM      1  C   UNL     1      -2.437   5.952  -0.094  0.00  0.00    +0.019 A 
ATOM      2  C   UNL     1      -3.130   4.731  -0.049  0.00  0.00    -0.017 A 
ATOM      3  C   UNL     1      -4.521   4.749   0.005  0.00  0.00    +0.120 A 
ATOM      4  C   UNL     1      -5.203   5.992   0.003  0.00  0.00    +0.270 A 
ATOM      5  O   UNL     1      -6.420   6.014   0.045  0.00  0.00    -0.266 OA
ATOM      6  N   UNL     1      -4.516   7.148  -0.047  0.00  0.00    -0.298 N 
ATOM      7  C   UNL     1      -3.159   7.157  -0.095  0.00  0.00    +0.111 A 
ATOM      8  C   UNL     1      -5.244   8.419  -0.048  0.00  0.00    +0.154 C 
ATOM      9  C   UNL     1      -2.380   3.424  -0.053  0.00  0.00    +0.046 C 
ENDROOT
BRANCH   1  14
ATOM     10  N   UNL     1       1.628   4.916   2.206  0.00  0.00    -0.252 N 
ATOM     11  C   UNL     1       1.160   5.347   1.047  0.00  0.00    +0.259 C 
ATOM     12  O   UNL     1       1.909   5.573   0.114  0.00  0.00    -0.269 OA
ATOM     13  C   UNL     1      -0.249   5.540   0.923  0.00  0.00    +0.077 C 
ATOM     14  C   UNL     1      -0.974   5.969  -0.147  0.00  0.00    +0.032 C 
ATOM     15  S   UNL     1      -0.804   5.057   2.552  0.00  0.00    -0.061 S 
ATOM     16  C   UNL     1       0.796   4.665   3.241  0.00  0.00    +0.121 C 
ATOM     17  S   UNL     1       1.180   4.107   4.814  0.00  0.00    -0.027 S 
BRANCH  10  18
ATOM     18  C   UNL     1       3.068   4.706   2.370  0.00  0.00    +0.080 C 
ATOM     19  C   UNL     1       3.589   5.602   3.495  0.00  0.00    +0.028 C 
BRANCH  18  21
ATOM     20  C   UNL     1       2.927   2.353   1.542  0.00  0.00    +0.006 C 
ATOM     21  C   UNL     1       3.334   3.241   2.720  0.00  0.00    +0.019 C 
ENDBRANCH  18  21
ENDBRANCH  10  18
ENDBRANCH   1  14
BRANCH   7  22
ATOM     22  N   UNL     1      -2.491   8.346  -0.145  0.00  0.00    -0.316 N 
ATOM     23  C   UNL     1      -1.784   8.499  -1.422  0.00  0.00    +0.107 C 
ATOM     24  C   UNL     1      -1.170   9.899  -1.502  0.00  0.00    +0.023 C 
ATOM     25  C   UNL     1      -0.199  10.092  -0.334  0.00  0.00    -0.004 C 
ATOM     26  C   UNL     1      -0.950   9.880   0.984  0.00  0.00    +0.023 C 
ATOM     27  C   UNL     1      -1.571   8.481   0.991  0.00  0.00    +0.107 C 
BRANCH  25  28
ATOM     28  C   UNL     1       0.373  11.510  -0.373  0.00  0.00    +0.038 C 
BRANCH  28  29
ATOM     29  C   UNL     1       1.214  11.679  -1.612  0.00  0.00    -0.047 A 
ATOM     30  C   UNL     1       2.566  11.388  -1.575  0.00  0.00    +0.003 A 
ATOM     31  C   UNL     1       3.336  11.539  -2.713  0.00  0.00    +0.000 A 
ATOM     32  C   UNL     1       2.757  11.988  -3.885  0.00  0.00    +0.000 A 
ATOM     33  C   UNL     1       1.407  12.283  -3.921  0.00  0.00    +0.000 A 
ATOM     34  C   UNL     1       0.636  12.129  -2.784  0.00  0.00    +0.003 A 
ENDBRANCH  28  29
ENDBRANCH  25  28
ENDBRANCH   7  22
BRANCH   3  35
ATOM     35  C   UNL     1      -5.257   3.522   0.058  0.00  0.00    +0.105 C 
ATOM     36  N   UNL     1      -5.841   2.548   0.101  0.00  0.00    -0.191 NA
ENDBRANCH   3  35
TORSDOF 7
