REMARK  Name = ZINC09271202
REMARK  18 active torsions:
REMARK  status: ('A' for Active; 'I' for Inactive)
REMARK    1  A    between atoms: C_1  and  C_2
REMARK    2  A    between atoms: C_2  and  N_74
REMARK    3  A    between atoms: C_3  and  C_4
REMARK    4  A    between atoms: C_3  and  N_74
REMARK    5  A    between atoms: C_5  and  C_6
REMARK    6  A    between atoms: C_5  and  N_74
REMARK    7  A    between atoms: C_6  and  N_7
REMARK    8  A    between atoms: C_8  and  C_27
REMARK    9  A    between atoms: C_11  and  C_12
REMARK   10  A    between atoms: C_11  and  O_22
REMARK   11  A    between atoms: C_15  and  O_18
REMARK   12  A    between atoms: O_18  and  C_19
REMARK   13  A    between atoms: C_19  and  C_20
REMARK   14  A    between atoms: C_19  and  C_21
REMARK   15  A    between atoms: C_30  and  O_33
REMARK   16  A    between atoms: O_33  and  C_34
REMARK   17  A    between atoms: C_34  and  C_35
REMARK   18  A    between atoms: C_34  and  C_36
REMARK                            x       y       z     vdW  Elec       q    Type
REMARK                         _______ _______ _______ _____ _____    ______ ____
ROOT
ATOM      1  N   UNL     1      -2.819   4.991   3.866  0.00  0.00    -0.285 N 
ATOM      2  C   UNL     1      -4.160   5.431   3.468  0.00  0.00    +0.144 C 
ATOM      3  C   UNL     1      -5.055   5.230   4.669  0.00  0.00    +0.071 C 
ATOM      4  C   UNL     1      -6.405   5.510   4.754  0.00  0.00    +0.133 C 
ATOM      5  C   UNL     1      -4.238   4.703   5.681  0.00  0.00    +0.249 C 
ATOM      6  O   UNL     1      -4.597   4.406   6.806  0.00  0.00    -0.282 OA
ATOM      7  C   UNL     1      -2.859   4.566   5.140  0.00  0.00    +0.288 C 
ATOM      8  O   UNL     1      -1.908   4.134   5.759  0.00  0.00    -0.266 OA
ENDROOT
BRANCH   4   9
ATOM      9  C   UNL     1      -7.163   5.118   5.952  0.00  0.00    +0.017 A 
ATOM     10  C   UNL     1      -7.093   3.803   6.428  0.00  0.00    +0.015 A 
ATOM     11  C   UNL     1      -7.801   3.442   7.552  0.00  0.00    +0.046 A 
ATOM     12  C   UNL     1      -8.593   4.378   8.208  0.00  0.00    +0.121 A 
ATOM     13  C   UNL     1      -8.671   5.684   7.736  0.00  0.00    +0.046 A 
ATOM     14  C   UNL     1      -7.963   6.056   6.616  0.00  0.00    +0.015 A 
BRANCH  12  15
ATOM     15  O   UNL     1      -9.293   4.016   9.313  0.00  0.00    -0.489 OA
BRANCH  15  16
ATOM     16  C   UNL     1      -9.271   2.632   9.669  0.00  0.00    +0.167 C 
ATOM     17  C   UNL     1      -8.016   2.337  10.493  0.00  0.00    +0.051 C 
ATOM     18  C   UNL     1     -10.514   2.300  10.497  0.00  0.00    +0.051 C 
ENDBRANCH  15  16
ENDBRANCH  12  15
ENDBRANCH   4   9
BRANCH   2  19
ATOM     19  C   UNL     1      -4.654   4.600   2.312  0.00  0.00    -0.022 A 
ATOM     20  C   UNL     1      -4.402   3.240   2.282  0.00  0.00    +0.009 A 
ATOM     21  C   UNL     1      -4.859   2.475   1.226  0.00  0.00    +0.046 A 
ATOM     22  C   UNL     1      -5.560   3.074   0.190  0.00  0.00    +0.121 A 
ATOM     23  C   UNL     1      -5.806   4.439   0.220  0.00  0.00    +0.046 A 
ATOM     24  C   UNL     1      -5.352   5.199   1.280  0.00  0.00    +0.009 A 
BRANCH  22  25
ATOM     25  O   UNL     1      -6.006   2.325  -0.852  0.00  0.00    -0.489 OA
BRANCH  25  26
ATOM     26  C   UNL     1      -6.692   3.014  -1.900  0.00  0.00    +0.167 C 
ATOM     27  C   UNL     1      -6.595   2.201  -3.193  0.00  0.00    +0.051 C 
ATOM     28  C   UNL     1      -8.163   3.189  -1.517  0.00  0.00    +0.051 C 
ENDBRANCH  25  26
ENDBRANCH  22  25
ENDBRANCH   2  19
BRANCH   4  29
ATOM     29  O   UNL     1      -7.028   6.144   3.738  0.00  0.00    -0.506 OA
ATOM     30  H   UNL     1      -7.995   6.266   3.964  0.00  0.00    +0.292 HD
ENDBRANCH   4  29
BRANCH   1  31
ATOM     31  C   UNL     1      -1.630   5.007   3.011  0.00  0.00    +0.090 C 
BRANCH  31  32
ATOM     32  C   UNL     1      -0.910   6.349   3.162  0.00  0.00    -0.060 C 
BRANCH  32  33
ATOM     33  N   UNL     1       0.274   6.357   2.278  0.00  0.00    +0.380 N 
ATOM     34  H   UNL     1      -0.016   6.093   1.330  0.00  0.00    -0.082 HD
BRANCH  33  36
ATOM     35  C   UNL     1       1.698   5.718   4.195  0.00  0.00    -0.017 C 
ATOM     36  C   UNL     1       1.274   5.383   2.764  0.00  0.00    -0.082 C 
ENDBRANCH  33  36
BRANCH  33  37
ATOM     37  C   UNL     1       0.866   7.711   2.240  0.00  0.00    -0.082 C 
ATOM     38  C   UNL     1       1.765   7.818   1.007  0.00  0.00    -0.017 C 
ENDBRANCH  33  37
ENDBRANCH  32  33
ENDBRANCH  31  32
ENDBRANCH   1  31
TORSDOF 12
