REMARK  Name = ZINC56762331
REMARK  10 active torsions:
REMARK  status: ('A' for Active; 'I' for Inactive)
REMARK    1  A    between atoms: C_1  and  C_2
REMARK    2  A    between atoms: C_2  and  C_4
REMARK    3  A    between atoms: C_2  and  N_12
REMARK    4  A    between atoms: C_4  and  C_5
REMARK    5  A    between atoms: C_8  and  O_11
REMARK    6  A    between atoms: N_15  and  C_16
REMARK    7  A    between atoms: C_16  and  C_18
REMARK    8  A    between atoms: C_16  and  C_28
REMARK    9  A    between atoms: C_28  and  C_29
REMARK   10  A    between atoms: C_28  and  C_30
REMARK                            x       y       z     vdW  Elec       q    Type
REMARK                         _______ _______ _______ _____ _____    ______ ____
ROOT
ATOM      1  N   UNL     1      -1.372  -0.511   0.012  0.00  0.00    -0.297 N 
ATOM      2  C   UNL     1      -2.051  -0.643  -1.145  0.00  0.00    +0.300 C 
ATOM      3  O   UNL     1      -1.522  -0.341  -2.197  0.00  0.00    -0.253 OA
ATOM      4  N   UNL     1      -3.315  -1.109  -1.135  0.00  0.00    -0.289 N 
ATOM      5  H   UNL     1      -1.794  -0.752   0.852  0.00  0.00    +0.151 HD
ATOM      6  H   UNL     1      -3.737  -1.350  -0.295  0.00  0.00    +0.151 HD
ENDROOT
BRANCH   1   8
ATOM      7  C   UNL     1      -0.019   1.526   0.010  0.00  0.00    +0.028 C 
ATOM      8  C   UNL     1       0.002  -0.004   0.002  0.00  0.00    +0.076 C 
BRANCH   8   9
ATOM      9  C   UNL     1       0.742  -0.511   1.242  0.00  0.00    +0.057 C 
BRANCH   9  10
ATOM     10  C   UNL     1       0.870  -2.011   1.172  0.00  0.00    -0.045 A 
ATOM     11  C   UNL     1      -0.118  -2.814   1.711  0.00  0.00    +0.007 A 
ATOM     12  C   UNL     1      -0.003  -4.189   1.649  0.00  0.00    +0.045 A 
ATOM     13  C   UNL     1       1.105  -4.764   1.044  0.00  0.00    +0.117 A 
ATOM     14  C   UNL     1       2.095  -3.957   0.504  0.00  0.00    +0.045 A 
ATOM     15  C   UNL     1       1.973  -2.582   0.564  0.00  0.00    +0.007 A 
BRANCH  13  16
ATOM     16  O   UNL     1       1.221  -6.117   0.983  0.00  0.00    -0.507 OA
ATOM     17  H   UNL     1       0.831  -6.509   0.189  0.00  0.00    +0.292 HD
ENDBRANCH  13  16
ENDBRANCH   9  10
ENDBRANCH   8   9
ENDBRANCH   1   8
BRANCH   4  18
ATOM     18  C   UNL     1      -4.053  -1.252  -2.393  0.00  0.00    +0.143 C 
BRANCH  18  19
ATOM     19  C   UNL     1      -5.533  -1.183  -2.118  0.00  0.00    +0.129 A 
ATOM     20  N   UNL     1      -6.088  -0.911  -0.906  0.00  0.00    -0.340 N 
ATOM     21  H   UNL     1      -5.610  -0.732  -0.082  0.00  0.00    +0.167 HD
ATOM     22  C   UNL     1      -7.459  -0.939  -1.068  0.00  0.00    +0.066 A 
ATOM     23  C   UNL     1      -8.537  -0.744  -0.215  0.00  0.00    +0.028 A 
ATOM     24  C   UNL     1      -9.822  -0.844  -0.705  0.00  0.00    +0.002 A 
ATOM     25  C   UNL     1     -10.044  -1.139  -2.042  0.00  0.00    +0.002 A 
ATOM     26  C   UNL     1      -8.995  -1.333  -2.896  0.00  0.00    +0.030 A 
ATOM     27  C   UNL     1      -7.684  -1.236  -2.422  0.00  0.00    +0.089 A 
ATOM     28  N   UNL     1      -6.465  -1.367  -3.006  0.00  0.00    -0.231 NA
ENDBRANCH  18  19
BRANCH  18  29
ATOM     29  C   UNL     1      -3.716  -2.601  -3.031  0.00  0.00    +0.011 C 
ATOM     30  C   UNL     1      -2.213  -2.672  -3.310  0.00  0.00    +0.009 C 
ATOM     31  C   UNL     1      -4.111  -3.730  -2.077  0.00  0.00    +0.009 C 
ENDBRANCH  18  29
ENDBRANCH   4  18
TORSDOF 7
