REMARK  Name = ZINC39654497
REMARK  10 active torsions:
REMARK  status: ('A' for Active; 'I' for Inactive)
REMARK    1  A    between atoms: C_1  and  C_2
REMARK    2  A    between atoms: C_2  and  C_3
REMARK    3  A    between atoms: C_6  and  C_9
REMARK    4  A    between atoms: C_9  and  C_10
REMARK    5  A    between atoms: C_10  and  N_11
REMARK    6  A    between atoms: C_12  and  C_14
REMARK    7  A    between atoms: C_25  and  C_27
REMARK    8  A    between atoms: C_32  and  O_33
REMARK    9  A    between atoms: O_33  and  C_34
REMARK   10  A    between atoms: C_37  and  C_40
REMARK                            x       y       z     vdW  Elec       q    Type
REMARK                         _______ _______ _______ _____ _____    ______ ____
ROOT
ATOM      1  C   UNL     1       5.086  -0.450   8.422  0.00  0.00    +0.100 C 
ATOM      2  C   UNL     1       6.229  -1.457   8.167  0.00  0.00    +0.121 C 
ATOM      3  N   UNL     1       7.469  -0.653   8.276  0.00  0.00    -0.296 N 
ATOM      4  C   UNL     1       7.209   0.273   9.405  0.00  0.00    +0.115 C 
ATOM      5  C   UNL     1       5.732   0.683   9.237  0.00  0.00    -0.004 C 
ATOM      6  C   UNL     1       5.059   0.802  10.602  0.00  0.00    -0.010 C 
ATOM      7  C   UNL     1       5.679   1.972  11.371  0.00  0.00    -0.082 C 
ATOM      8  N   UNL     1       5.503   3.212  10.606  0.00  0.00    +0.379 N 
ATOM      9  C   UNL     1       6.231   3.124   9.335  0.00  0.00    -0.082 C 
ATOM     10  C   UNL     1       5.634   2.003   8.479  0.00  0.00    -0.010 C 
ATOM     11  C   UNL     1       8.581  -0.743   7.521  0.00  0.00    +0.252 C 
ATOM     12  O   UNL     1       9.558  -0.072   7.795  0.00  0.00    -0.270 OA
ATOM     13  H   UNL     1       4.521   3.354  10.421  0.00  0.00    -0.086 HD
ATOM     14  H   UNL     1       5.857   3.990  11.142  0.00  0.00    -0.086 HD
ENDROOT
BRANCH  11  15
ATOM     15  C   UNL     1       8.614  -1.655   6.362  0.00  0.00    +0.099 A 
ATOM     16  C   UNL     1       7.932  -2.877   6.397  0.00  0.00    +0.020 A 
ATOM     17  C   UNL     1       7.994  -3.696   5.284  0.00  0.00    +0.021 A 
ATOM     18  C   UNL     1       8.720  -3.288   4.178  0.00  0.00    +0.114 A 
ATOM     19  N   UNL     1       9.355  -2.133   4.167  0.00  0.00    -0.220 NA
ATOM     20  C   UNL     1       9.324  -1.310   5.202  0.00  0.00    +0.233 A 
BRANCH  20  21
ATOM     21  O   UNL     1       9.987  -0.130   5.144  0.00  0.00    -0.437 OA
BRANCH  21  22
ATOM     22  C   UNL     1      10.743   0.123   4.044  0.00  0.00    +0.130 A 
ATOM     23  C   UNL     1      12.123  -0.012   4.103  0.00  0.00    +0.046 A 
ATOM     24  C   UNL     1      12.889   0.246   2.983  0.00  0.00    +0.007 A 
ATOM     25  C   UNL     1      12.283   0.639   1.804  0.00  0.00    -0.050 A 
ATOM     26  C   UNL     1      10.908   0.775   1.742  0.00  0.00    +0.007 A 
ATOM     27  C   UNL     1      10.137   0.512   2.858  0.00  0.00    +0.046 A 
ATOM     28  C   UNL     1      13.121   0.919   0.584  0.00  0.00    +0.044 C 
ENDBRANCH  21  22
ENDBRANCH  20  21
ENDBRANCH  11  15
BRANCH   1  30
ATOM     29  N   UNL     1       3.271   0.482   7.024  0.00  0.00    -0.315 N 
ATOM     30  C   UNL     1       4.554   0.082   7.116  0.00  0.00    +0.218 C 
ATOM     31  O   UNL     1       5.282   0.149   6.147  0.00  0.00    -0.275 OA
ATOM     32  H   UNL     1       2.689   0.429   7.798  0.00  0.00    +0.149 HD
BRANCH  29  33
ATOM     33  C   UNL     1       2.754   0.999   5.754  0.00  0.00    +0.109 C 
BRANCH  33  34
ATOM     34  C   UNL     1       1.281   1.380   5.920  0.00  0.00    +0.054 C 
BRANCH  34  38
ATOM     35  C   UNL     1      -0.228   2.888   2.219  0.00  0.00    -0.048 A 
ATOM     36  C   UNL     1      -0.305   1.536   2.498  0.00  0.00    +0.004 A 
ATOM     37  C   UNL     1       0.183   1.048   3.696  0.00  0.00    +0.004 A 
ATOM     38  C   UNL     1       0.750   1.912   4.614  0.00  0.00    -0.046 A 
ATOM     39  C   UNL     1       0.828   3.264   4.335  0.00  0.00    +0.004 A 
ATOM     40  C   UNL     1       0.344   3.751   3.135  0.00  0.00    +0.004 A 
BRANCH  35  42
ATOM     41  C   UNL     1       0.350   3.393  -0.139  0.00  0.00    +0.009 C 
ATOM     42  C   UNL     1      -0.760   3.419   0.913  0.00  0.00    +0.032 C 
ENDBRANCH  35  42
ENDBRANCH  34  38
ENDBRANCH  33  34
ENDBRANCH  29  33
ENDBRANCH   1  30
TORSDOF 8
