REMARK  Name = ZINC49574858
REMARK  7 active torsions:
REMARK  status: ('A' for Active; 'I' for Inactive)
REMARK    1  A    between atoms: C_1  and  S_2
REMARK    2  A    between atoms: S_2  and  C_3
REMARK    3  A    between atoms: C_6  and  C_15
REMARK    4  A    between atoms: N_7  and  C_8
REMARK    5  A    between atoms: C_15  and  N_17
REMARK    6  A    between atoms: C_20  and  C_23
REMARK    7  A    between atoms: C_23  and  N_24
REMARK                            x       y       z     vdW  Elec       q    Type
REMARK                         _______ _______ _______ _____ _____    ______ ____
ROOT
ATOM      1  C   UNL     1       2.279  -2.621  -3.997  0.00  0.00    +0.288 C 
ATOM      2  O   UNL     1       2.866  -2.361  -5.036  0.00  0.00    -0.266 OA
ENDROOT
BRANCH   1   3
ATOM      3  N   UNL     1       2.082  -3.897  -3.641  0.00  0.00    -0.151 NA
ATOM      4  C   UNL     1       2.526  -4.881  -4.418  0.00  0.00    +0.163 A 
ATOM      5  N   UNL     1       2.418  -6.225  -4.228  0.00  0.00    -0.341 N 
ATOM      6  C   UNL     1       2.950  -7.064  -5.159  0.00  0.00    +0.008 A 
ATOM      7  C   UNL     1       3.553  -6.506  -6.214  0.00  0.00    +0.067 A 
ATOM      8  S   UNL     1       3.352  -4.766  -5.879  0.00  0.00    -0.061 S 
ATOM      9  H   UNL     1       1.970  -6.579  -3.443  0.00  0.00    +0.167 HD
BRANCH   6  10
ATOM     10  C   UNL     1       2.863  -8.560  -5.006  0.00  0.00    -0.024 C 
BRANCH  10  11
ATOM     11  N   UNL     1       3.636  -8.978  -3.829  0.00  0.00    +0.383 N 
ATOM     12  C   UNL     1       5.058  -8.683  -4.050  0.00  0.00    -0.078 C 
ATOM     13  C   UNL     1       5.857  -9.042  -2.795  0.00  0.00    -0.019 C 
ATOM     14  C   UNL     1       5.684 -10.534  -2.495  0.00  0.00    -0.004 C 
ATOM     15  C   UNL     1       4.192 -10.844  -2.341  0.00  0.00    -0.019 C 
ATOM     16  C   UNL     1       3.454 -10.418  -3.612  0.00  0.00    -0.078 C 
ATOM     17  H   UNL     1       3.312  -8.473  -3.018  0.00  0.00    -0.081 HD
ENDBRANCH  10  11
ENDBRANCH   6  10
ENDBRANCH   1   3
BRANCH   1  21
ATOM     18  C   UNL     1       0.848  -0.411  -1.489  0.00  0.00    +0.174 A 
ATOM     19  N   UNL     1       1.335   0.454  -2.355  0.00  0.00    -0.229 NA
ATOM     20  C   UNL     1       1.911  -0.195  -3.367  0.00  0.00    +0.145 A 
ATOM     21  C   UNL     1       1.788  -1.536  -3.139  0.00  0.00    +0.131 A 
ATOM     22  N   UNL     1       1.112  -1.670  -1.933  0.00  0.00    -0.283 N 
BRANCH  22  23
ATOM     23  C   UNL     1       0.766  -2.871  -1.297  0.00  0.00    +0.049 A 
ATOM     24  C   UNL     1       1.758  -3.715  -0.818  0.00  0.00    +0.029 A 
ATOM     25  C   UNL     1       1.415  -4.898  -0.192  0.00  0.00    +0.040 A 
ATOM     26  C   UNL     1       0.082  -5.241  -0.042  0.00  0.00    +0.124 A 
ATOM     27  C   UNL     1      -0.910  -4.400  -0.519  0.00  0.00    +0.040 A 
ATOM     28  C   UNL     1      -0.570  -3.214  -1.140  0.00  0.00    +0.029 A 
ATOM     29  F   UNL     1      -0.252  -6.398   0.570  0.00  0.00    -0.205 F 
ENDBRANCH  22  23
BRANCH  18  31
ATOM     30  C   UNL     1      -0.022   1.810   0.012  0.00  0.00    +0.093 C 
ATOM     31  S   UNL     1       0.002  -0.004   0.002  0.00  0.00    -0.091 S 
ENDBRANCH  18  31
ENDBRANCH   1  21
TORSDOF 6
