REMARK  Name = ZINC45313137
REMARK  13 active torsions:
REMARK  status: ('A' for Active; 'I' for Inactive)
REMARK    1  A    between atoms: C_1  and  C_2
REMARK    2  A    between atoms: C_2  and  O_3
REMARK    3  A    between atoms: O_3  and  C_4
REMARK    4  A    between atoms: C_11  and  C_18
REMARK    5  A    between atoms: C_13  and  O_14
REMARK    6  A    between atoms: C_18  and  N_19
REMARK    7  A    between atoms: N_19  and  C_20
REMARK    8  A    between atoms: N_19  and  C_21
REMARK    9  A    between atoms: C_21  and  C_22
REMARK   10  A    between atoms: C_25  and  O_30
REMARK   11  A    between atoms: C_26  and  O_28
REMARK   12  A    between atoms: O_28  and  C_29
REMARK   13  A    between atoms: O_30  and  C_31
REMARK                            x       y       z     vdW  Elec       q    Type
REMARK                         _______ _______ _______ _____ _____    ______ ____
ROOT
ATOM      1  C   UNL     1       0.979  -1.828  -1.233  0.00  0.00    +0.405 C 
ATOM      2  O   UNL     1       0.915  -2.572  -0.268  0.00  0.00    -0.226 OA
ATOM      3  N   UNL     1       1.385  -2.296  -2.405  0.00  0.00    -0.251 N 
ATOM      4  C   UNL     1       1.593  -3.629  -2.570  0.00  0.00    +0.040 A 
ATOM      5  C   UNL     1       2.338  -4.090  -3.671  0.00  0.00    +0.024 A 
ATOM      6  C   UNL     1       2.552  -5.420  -3.846  0.00  0.00    +0.013 A 
ATOM      7  C   UNL     1       2.028  -6.343  -2.924  0.00  0.00    +0.019 A 
ATOM      8  C   UNL     1       2.240  -7.728  -3.088  0.00  0.00    -0.047 A 
ATOM      9  C   UNL     1       1.705  -8.593  -2.154  0.00  0.00    +0.090 A 
ATOM     10  C   UNL     1       0.978  -8.092  -1.084  0.00  0.00    +0.285 A 
ATOM     11  O   UNL     1       0.779  -6.778  -0.932  0.00  0.00    -0.425 OA
ATOM     12  C   UNL     1       1.279  -5.889  -1.815  0.00  0.00    +0.141 A 
ATOM     13  C   UNL     1       1.071  -4.533  -1.642  0.00  0.00    +0.070 A 
ATOM     14  H   UNL     1       1.535  -1.686  -3.145  0.00  0.00    +0.158 HD
ENDROOT
BRANCH  10  15
ATOM     15  O   UNL     1       0.462  -8.947  -0.180  0.00  0.00    -0.480 OA
ATOM     16  H   UNL     1      -0.030  -8.516   0.532  0.00  0.00    +0.295 HD
ENDBRANCH  10  15
BRANCH   1  17
ATOM     17  O   UNL     1       0.634  -0.527  -1.107  0.00  0.00    -0.450 OA
BRANCH  17  19
ATOM     18  C   UNL     1      -0.140   1.398   0.132  0.00  0.00    +0.048 C 
ATOM     19  C   UNL     1       0.205  -0.091   0.185  0.00  0.00    +0.230 C 
ENDBRANCH  17  19
ENDBRANCH   1  17
BRANCH   8  20
ATOM     20  C   UNL     1       3.033  -8.252  -4.258  0.00  0.00    -0.042 C 
BRANCH  20  21
ATOM     21  N   UNL     1       4.432  -8.446  -3.853  0.00  0.00    +0.383 N 
ATOM     22  C   UNL     1       4.505  -9.499  -2.831  0.00  0.00    -0.095 C 
ATOM     23  H   UNL     1       4.796  -7.584  -3.474  0.00  0.00    -0.081 HD
BRANCH  21  24
ATOM     24  C   UNL     1       5.229  -8.842  -5.022  0.00  0.00    -0.043 C 
BRANCH  24  25
ATOM     25  C   UNL     1       6.684  -8.922  -4.634  0.00  0.00    -0.060 A 
ATOM     26  C   UNL     1       7.489  -7.804  -4.745  0.00  0.00    +0.005 A 
ATOM     27  C   UNL     1       8.824  -7.872  -4.391  0.00  0.00    +0.049 A 
ATOM     28  C   UNL     1       9.357  -9.062  -3.923  0.00  0.00    +0.161 A 
ATOM     29  C   UNL     1       8.545 -10.187  -3.811  0.00  0.00    +0.162 A 
ATOM     30  C   UNL     1       7.207 -10.111  -4.163  0.00  0.00    +0.051 A 
BRANCH  29  31
ATOM     31  O   UNL     1       9.063 -11.358  -3.352  0.00  0.00    -0.491 OA
ATOM     32  C   UNL     1       8.172 -12.471  -3.263  0.00  0.00    +0.277 C 
ENDBRANCH  29  31
BRANCH  28  33
ATOM     33  O   UNL     1      10.669  -9.131  -3.575  0.00  0.00    -0.491 OA
ATOM     34  C   UNL     1      11.442  -7.937  -3.717  0.00  0.00    +0.277 C 
ENDBRANCH  28  33
ENDBRANCH  24  25
ENDBRANCH  21  24
ENDBRANCH  20  21
ENDBRANCH   8  20
TORSDOF 9
