REMARK  Name = ZINC09498810
REMARK  7 active torsions:
REMARK  status: ('A' for Active; 'I' for Inactive)
REMARK    1  A    between atoms: C_1  and  C_2
REMARK    2  A    between atoms: C_5  and  N_8
REMARK    3  A    between atoms: C_21  and  S_22
REMARK    4  A    between atoms: S_22  and  C_23
REMARK    5  A    between atoms: C_23  and  C_25
REMARK    6  A    between atoms: C_23  and  C_26
REMARK    7  A    between atoms: C_26  and  C_28
REMARK                            x       y       z     vdW  Elec       q    Type
REMARK                         _______ _______ _______ _____ _____    ______ ____
ROOT
ATOM      1  N   UNL     1       7.300   2.913  -1.549  0.00  0.00    -0.245 N 
ATOM      2  C   UNL     1       7.669   2.028  -2.498  0.00  0.00    +0.268 A 
ATOM      3  O   UNL     1       8.632   2.249  -3.208  0.00  0.00    -0.267 OA
ATOM      4  C   UNL     1       6.888   0.788  -2.661  0.00  0.00    +0.064 A 
ATOM      5  C   UNL     1       7.227  -0.158  -3.626  0.00  0.00    +0.015 A 
ATOM      6  C   UNL     1       6.472  -1.306  -3.750  0.00  0.00    +0.001 A 
ATOM      7  C   UNL     1       5.383  -1.520  -2.920  0.00  0.00    +0.002 A 
ATOM      8  C   UNL     1       5.037  -0.590  -1.960  0.00  0.00    +0.027 A 
ATOM      9  C   UNL     1       5.783   0.570  -1.822  0.00  0.00    +0.064 A 
ATOM     10  N   UNL     1       5.461   1.525  -0.866  0.00  0.00    -0.255 N 
ATOM     11  C   UNL     1       6.204   2.670  -0.735  0.00  0.00    +0.245 A 
ATOM     12  N   UNL     1       5.664   3.366   0.236  0.00  0.00    -0.109 NA
ATOM     13  N   UNL     1       4.643   2.745   0.710  0.00  0.00    -0.120 NA
ATOM     14  C   UNL     1       4.474   1.608   0.079  0.00  0.00    +0.198 A 
ENDROOT
BRANCH   1  19
ATOM     15  C   UNL     1      10.273   7.699  -0.880  0.00  0.00    +0.044 C 
ATOM     16  C   UNL     1       9.483   6.428  -1.058  0.00  0.00    -0.050 A 
ATOM     17  C   UNL     1       8.409   6.398  -1.929  0.00  0.00    +0.005 A 
ATOM     18  C   UNL     1       7.684   5.235  -2.094  0.00  0.00    +0.026 A 
ATOM     19  C   UNL     1       8.034   4.094  -1.384  0.00  0.00    +0.053 A 
ATOM     20  C   UNL     1       9.109   4.128  -0.506  0.00  0.00    +0.026 A 
ATOM     21  C   UNL     1       9.834   5.293  -0.350  0.00  0.00    +0.005 A 
ENDBRANCH   1  19
BRANCH  14  22
ATOM     22  S   UNL     1       3.211   0.418   0.383  0.00  0.00    -0.074 S 
BRANCH  22  23
ATOM     23  C   UNL     1       2.251   1.135   1.744  0.00  0.00    +0.122 C 
ATOM     24  C   UNL     1       3.126   1.218   2.997  0.00  0.00    +0.028 C 
BRANCH  23  25
ATOM     25  C   UNL     1       1.052   0.265   2.027  0.00  0.00    +0.178 C 
ATOM     26  O   UNL     1       1.076  -0.913   1.736  0.00  0.00    -0.291 OA
BRANCH  25  27
ATOM     27  C   UNL     1      -0.104   0.825   2.625  0.00  0.00    +0.043 A 
ATOM     28  C   UNL     1      -0.285   2.136   3.010  0.00  0.00    +0.095 A 
ATOM     29  N   UNL     1      -1.514   2.286   3.541  0.00  0.00    -0.360 N 
ATOM     30  H   UNL     1      -1.868   3.122   3.883  0.00  0.00    +0.165 HD
ATOM     31  C   UNL     1      -2.199   1.088   3.532  0.00  0.00    +0.047 A 
ATOM     32  C   UNL     1      -1.359   0.122   2.957  0.00  0.00    +0.010 A 
ATOM     33  C   UNL     1      -1.794  -1.193   2.825  0.00  0.00    +0.011 A 
ATOM     34  C   UNL     1      -3.058  -1.540   3.252  0.00  0.00    +0.001 A 
ATOM     35  C   UNL     1      -3.892  -0.586   3.815  0.00  0.00    +0.002 A 
ATOM     36  C   UNL     1      -3.471   0.719   3.956  0.00  0.00    +0.026 A 
ENDBRANCH  25  27
ENDBRANCH  23  25
ENDBRANCH  22  23
ENDBRANCH  14  22
TORSDOF 5
