REMARK  Name = ZINC02798814
REMARK  11 active torsions:
REMARK  status: ('A' for Active; 'I' for Inactive)
REMARK    1  A    between atoms: C_1  and  C_2
REMARK    2  A    between atoms: C_2  and  O_3
REMARK    3  A    between atoms: O_3  and  C_4
REMARK    4  A    between atoms: C_4  and  C_6
REMARK    5  A    between atoms: C_10  and  N_11
REMARK    6  A    between atoms: C_12  and  C_14
REMARK    7  A    between atoms: C_14  and  C_16
REMARK    8  A    between atoms: C_14  and  S_17
REMARK    9  A    between atoms: S_17  and  C_18
REMARK   10  A    between atoms: C_20  and  C_28
REMARK   11  A    between atoms: C_22  and  C_24
REMARK                            x       y       z     vdW  Elec       q    Type
REMARK                         _______ _______ _______ _____ _____    ______ ____
ROOT
ATOM      1  C   UNL     1      -4.724   2.305   0.533  0.00  0.00    +0.137 C 
ATOM      2  C   UNL     1      -4.023   3.293  -0.402  0.00  0.00    +0.029 C 
ENDROOT
BRANCH   1   4
ATOM      3  N   UNL     1      -6.733   1.576  -0.710  0.00  0.00    -0.278 N 
ATOM      4  C   UNL     1      -6.208   2.333   0.273  0.00  0.00    +0.231 C 
ATOM      5  O   UNL     1      -6.929   3.037   0.947  0.00  0.00    -0.274 OA
ATOM      6  H   UNL     1      -6.157   1.013  -1.250  0.00  0.00    +0.155 HD
BRANCH   3  11
ATOM      7  C   UNL     1      -8.817   0.906  -1.909  0.00  0.00    +0.091 A 
ATOM      8  C   UNL     1     -10.265   1.111  -1.949  0.00  0.00    -0.021 A 
ATOM      9  C   UNL     1     -10.745   1.976  -1.038  0.00  0.00    -0.004 A 
ATOM     10  S   UNL     1      -9.318   2.516  -0.130  0.00  0.00    -0.077 S 
ATOM     11  C   UNL     1      -8.098   1.602  -0.950  0.00  0.00    +0.086 A 
ATOM     12  C   UNL     1     -12.238   2.136  -1.143  0.00  0.00    +0.043 C 
ATOM     13  C   UNL     1     -12.702   0.918  -1.972  0.00  0.00    +0.010 C 
ATOM     14  C   UNL     1     -11.434   0.590  -2.786  0.00  0.00    +0.037 C 
BRANCH   7  15
ATOM     15  C   UNL     1      -8.153  -0.004  -2.844  0.00  0.00    +0.342 C 
ATOM     16  O   UNL     1      -8.012  -1.177  -2.554  0.00  0.00    -0.245 OA
BRANCH  15  17
ATOM     17  O   UNL     1      -7.697   0.458  -4.026  0.00  0.00    -0.461 OA
BRANCH  17  19
ATOM     18  C   UNL     1      -6.603   0.203  -6.186  0.00  0.00    +0.048 C 
ATOM     19  C   UNL     1      -7.050  -0.500  -4.903  0.00  0.00    +0.229 C 
ENDBRANCH  17  19
ENDBRANCH  15  17
ENDBRANCH   7  15
ENDBRANCH   3  11
ENDBRANCH   1   4
BRANCH   1  20
ATOM     20  S   UNL     1      -4.404   2.772   2.253  0.00  0.00    -0.074 S 
BRANCH  20  21
ATOM     21  C   UNL     1      -2.663   2.514   2.322  0.00  0.00    +0.190 A 
ATOM     22  N   UNL     1      -2.019   2.753   3.454  0.00  0.00    -0.222 NA
ATOM     23  C   UNL     1      -0.704   2.568   3.538  0.00  0.00    +0.076 A 
ATOM     24  C   UNL     1      -0.010   2.117   2.412  0.00  0.00    +0.060 A 
ATOM     25  C   UNL     1      -0.722   1.881   1.250  0.00  0.00    +0.148 A 
ATOM     26  N   UNL     1      -2.029   2.091   1.237  0.00  0.00    -0.218 NA
BRANCH  23  27
ATOM     27  C   UNL     1       0.014   2.835   4.808  0.00  0.00    +0.000 A 
ATOM     28  C   UNL     1       1.391   2.632   4.889  0.00  0.00    +0.010 A 
ATOM     29  C   UNL     1       2.055   2.888   6.072  0.00  0.00    +0.001 A 
ATOM     30  C   UNL     1       1.355   3.333   7.178  0.00  0.00    +0.000 A 
ATOM     31  C   UNL     1      -0.012   3.531   7.106  0.00  0.00    +0.001 A 
ATOM     32  C   UNL     1      -0.686   3.284   5.927  0.00  0.00    +0.010 A 
ENDBRANCH  23  27
BRANCH  25  33
ATOM     33  C   UNL     1      -0.017   1.395   0.010  0.00  0.00    +0.434 C 
ATOM     34  F   UNL     1       0.002  -0.004   0.002  0.00  0.00    -0.164 F 
ATOM     35  F   UNL     1       1.296   1.879  -0.000  0.00  0.00    -0.164 F 
ATOM     36  F   UNL     1      -0.694   1.858  -1.124  0.00  0.00    -0.164 F 
ENDBRANCH  25  33
ENDBRANCH  20  21
ENDBRANCH   1  20
TORSDOF 9
