REMARK  Name = ZINC40824864
REMARK  4 active torsions:
REMARK  status: ('A' for Active; 'I' for Inactive)
REMARK    1  A    between atoms: C_1  and  C_2
REMARK    2  A    between atoms: C_6  and  C_7
REMARK    3  A    between atoms: N_9  and  C_10
REMARK    4  A    between atoms: N_24  and  N_25
REMARK                            x       y       z     vdW  Elec       q    Type
REMARK                         _______ _______ _______ _____ _____    ______ ____
ROOT
ATOM      1  C   UNL     1      -0.008   1.502   0.010  0.00  0.00    +0.048 C 
ATOM      2  C   UNL     1       0.019  -0.004   0.002  0.00  0.00    +0.009 A 
ATOM      3  C   UNL     1       0.037  -0.838  -1.123  0.00  0.00    +0.042 A 
ATOM      4  C   UNL     1       0.058  -2.137  -0.673  0.00  0.00    +0.115 A 
ATOM      5  O   UNL     1       0.057  -2.112   0.658  0.00  0.00    -0.454 OA
ATOM      6  C   UNL     1       0.038  -0.831   1.091  0.00  0.00    +0.193 A 
ATOM      7  C   UNL     1       0.076  -3.326  -1.600  0.00  0.00    +0.075 C 
ATOM      8  C   UNL     1      -0.441  -2.905  -2.978  0.00  0.00    +0.014 C 
ATOM      9  C   UNL     1       0.328  -1.684  -3.493  0.00  0.00    +0.058 C 
ATOM     10  C   UNL     1       0.038  -0.512  -2.567  0.00  0.00    +0.072 C 
ATOM     11  N   UNL     1      -0.192   0.685  -3.009  0.00  0.00    -0.175 NA
ENDROOT
BRANCH  11  12
ATOM     12  N   UNL     1      -0.179   0.937  -4.388  0.00  0.00    -0.248 N 
ATOM     13  C   UNL     1      -0.422   2.200  -4.855  0.00  0.00    +0.187 C 
ATOM     14  N   UNL     1      -0.409   2.440  -6.166  0.00  0.00    -0.370 N 
ATOM     15  N   UNL     1      -0.670   3.191  -3.999  0.00  0.00    -0.370 N 
ATOM     16  H   UNL     1       0.002   0.216  -5.011  0.00  0.00    +0.192 HD
ATOM     17  H   UNL     1      -0.228   1.719  -6.789  0.00  0.00    +0.159 HD
ATOM     18  H   UNL     1      -0.679   3.017  -3.045  0.00  0.00    +0.159 HD
ATOM     19  H   UNL     1      -0.842   4.087  -4.330  0.00  0.00    +0.159 HD
ATOM     20  H   UNL     1      -0.581   3.335  -6.497  0.00  0.00    +0.159 HD
ENDBRANCH  11  12
BRANCH   6  21
ATOM     21  C   UNL     1       0.034  -0.400   2.493  0.00  0.00    +0.284 C 
ATOM     22  O   UNL     1       0.013   0.786   2.765  0.00  0.00    -0.266 OA
ATOM     23  N   UNL     1       0.054  -1.318   3.480  0.00  0.00    -0.278 N 
ATOM     24  H   UNL     1      -0.010  -2.262   3.266  0.00  0.00    +0.155 HD
BRANCH  23  25
ATOM     25  C   UNL     1       0.166  -0.910   4.809  0.00  0.00    +0.042 A 
ATOM     26  C   UNL     1       0.753   0.298   5.119  0.00  0.00    +0.024 A 
ATOM     27  C   UNL     1       0.870   0.714   6.442  0.00  0.00    +0.002 A 
ATOM     28  C   UNL     1       0.410  -0.058   7.465  0.00  0.00    +0.008 A 
ATOM     29  C   UNL     1      -0.194  -1.297   7.192  0.00  0.00    -0.016 A 
ATOM     30  C   UNL     1      -0.325  -1.728   5.849  0.00  0.00    +0.003 A 
ATOM     31  C   UNL     1      -0.934  -2.963   5.578  0.00  0.00    +0.010 A 
ATOM     32  C   UNL     1      -1.397  -3.727   6.606  0.00  0.00    +0.001 A 
ATOM     33  C   UNL     1      -1.275  -3.301   7.927  0.00  0.00    +0.001 A 
ATOM     34  C   UNL     1      -0.678  -2.115   8.228  0.00  0.00    +0.008 A 
ENDBRANCH  23  25
ENDBRANCH   6  21
TORSDOF 3
