REMARK  Name = ZINC09613884
REMARK  13 active torsions:
REMARK  status: ('A' for Active; 'I' for Inactive)
REMARK    1  A    between atoms: C_1  and  C_2
REMARK    2  A    between atoms: C_2  and  C_3
REMARK    3  A    between atoms: C_3  and  C_5
REMARK    4  A    between atoms: C_3  and  N_12
REMARK    5  A    between atoms: C_8  and  C_11
REMARK    6  A    between atoms: C_13  and  C_15
REMARK    7  A    between atoms: C_15  and  N_16
REMARK    8  A    between atoms: N_16  and  C_17
REMARK    9  A    between atoms: N_16  and  C_19
REMARK   10  A    between atoms: C_17  and  C_18
REMARK   11  A    between atoms: C_20  and  N_35
REMARK   12  A    between atoms: N_21  and  C_28
REMARK   13  A    between atoms: C_28  and  C_29
REMARK                            x       y       z     vdW  Elec       q    Type
REMARK                         _______ _______ _______ _____ _____    ______ ____
ROOT
ATOM      1  C   UNL     1      -1.846   8.270   0.665  0.00  0.00    +0.134 A 
ATOM      2  C   UNL     1      -2.987   8.867   1.130  0.00  0.00    +0.127 A 
ATOM      3  N   UNL     1      -2.939  10.175   1.554  0.00  0.00    -0.276 N 
ATOM      4  C   UNL     1      -1.786  10.866   1.502  0.00  0.00    +0.331 A 
ATOM      5  O   UNL     1      -1.764  12.023   1.875  0.00  0.00    -0.246 OA
ATOM      6  N   UNL     1      -0.657  10.297   1.042  0.00  0.00    -0.273 N 
ATOM      7  H   UNL     1       0.189  10.829   1.012  0.00  0.00    +0.173 HD
ATOM      8  C   UNL     1      -0.655   9.017   0.621  0.00  0.00    +0.277 A 
ATOM      9  O   UNL     1       0.373   8.509   0.206  0.00  0.00    -0.266 OA
ENDROOT
BRANCH   2  10
ATOM     10  N   UNL     1      -4.168   8.163   1.179  0.00  0.00    -0.343 N 
ATOM     11  H   UNL     1      -4.196   7.240   0.883  0.00  0.00    +0.144 HD
ATOM     12  H   UNL     1      -4.974   8.590   1.510  0.00  0.00    +0.144 HD
ENDBRANCH   2  10
BRANCH   1  13
ATOM     13  N   UNL     1      -1.867   6.925   0.228  0.00  0.00    -0.315 N 
BRANCH  13  14
ATOM     14  C   UNL     1      -1.563   6.833  -1.206  0.00  0.00    +0.102 C 
ATOM     15  C   UNL     1      -2.058   5.489  -1.746  0.00  0.00    +0.024 C 
ENDBRANCH  13  14
BRANCH  13  16
ATOM     16  C   UNL     1      -0.940   6.102   1.016  0.00  0.00    +0.201 C 
BRANCH  16  18
ATOM     17  N   UNL     1      -0.820   5.178   3.308  0.00  0.00    -0.307 N 
ATOM     18  C   UNL     1      -1.540   5.825   2.370  0.00  0.00    +0.231 C 
ATOM     19  O   UNL     1      -2.672   6.186   2.617  0.00  0.00    -0.274 OA
ATOM     20  H   UNL     1       0.053   4.819   3.086  0.00  0.00    +0.149 HD
BRANCH  17  21
ATOM     21  C   UNL     1      -1.357   5.014   4.661  0.00  0.00    +0.103 C 
BRANCH  21  22
ATOM     22  C   UNL     1      -0.274   5.300   5.669  0.00  0.00    -0.027 A 
ATOM     23  C   UNL     1       1.015   4.854   5.444  0.00  0.00    +0.006 A 
ATOM     24  C   UNL     1       2.009   5.120   6.366  0.00  0.00    +0.004 A 
ATOM     25  C   UNL     1       1.713   5.823   7.519  0.00  0.00    -0.050 A 
ATOM     26  C   UNL     1       0.423   6.265   7.746  0.00  0.00    +0.004 A 
ATOM     27  C   UNL     1      -0.571   6.003   6.822  0.00  0.00    +0.006 A 
ATOM     28  C   UNL     1       2.796   6.108   8.527  0.00  0.00    +0.044 C 
ENDBRANCH  21  22
BRANCH  21  30
ATOM     29  C   UNL     1      -3.026   3.323   3.889  0.00  0.00    +0.006 C 
ATOM     30  C   UNL     1      -1.857   3.579   4.841  0.00  0.00    +0.024 C 
ENDBRANCH  21  30
ENDBRANCH  17  21
ENDBRANCH  16  18
ENDBRANCH  13  16
ENDBRANCH   1  13
BRANCH   3  31
ATOM     31  C   UNL     1      -4.153  10.822   2.059  0.00  0.00    +0.163 C 
BRANCH  31  32
ATOM     32  C   UNL     1      -4.887  11.475   0.916  0.00  0.00    -0.028 A 
ATOM     33  C   UNL     1      -4.613  12.787   0.579  0.00  0.00    +0.005 A 
ATOM     34  C   UNL     1      -5.283  13.385  -0.473  0.00  0.00    +0.000 A 
ATOM     35  C   UNL     1      -6.234  12.673  -1.180  0.00  0.00    +0.000 A 
ATOM     36  C   UNL     1      -6.512  11.363  -0.839  0.00  0.00    +0.000 A 
ATOM     37  C   UNL     1      -5.838  10.764   0.209  0.00  0.00    +0.005 A 
ENDBRANCH  31  32
ENDBRANCH   3  31
TORSDOF 10
