REMARK  Name = ZINC06176825
REMARK  8 active torsions:
REMARK  status: ('A' for Active; 'I' for Inactive)
REMARK    1  A    between atoms: C_1  and  O_2
REMARK    2  A    between atoms: O_2  and  C_3
REMARK    3  A    between atoms: C_8  and  C_15
REMARK    4  A    between atoms: C_15  and  C_17
REMARK    5  A    between atoms: C_15  and  N_68
REMARK    6  A    between atoms: N_21  and  C_22
REMARK    7  A    between atoms: C_22  and  C_23
REMARK    8  A    between atoms: N_31  and  C_34
REMARK                            x       y       z     vdW  Elec       q    Type
REMARK                         _______ _______ _______ _____ _____    ______ ____
ROOT
ATOM      1  C   UNL     1       4.959   1.178  -0.042  0.00  0.00    +0.039 C 
ENDROOT
BRANCH   1   7
ATOM      2  C   UNL     1      -1.345   2.653   0.452  0.00  0.00    +0.122 A 
ATOM      3  C   UNL     1      -1.209   1.265   0.430  0.00  0.00    +0.046 A 
ATOM      4  C   UNL     1       0.025   0.691   0.339  0.00  0.00    +0.013 A 
ATOM      5  C   UNL     1       1.164   1.501   0.255  0.00  0.00    -0.001 A 
ATOM      6  C   UNL     1       2.500   0.916   0.149  0.00  0.00    +0.017 A 
ATOM      7  C   UNL     1       3.569   1.749   0.069  0.00  0.00    +0.011 A 
ATOM      8  C   UNL     1       3.383   3.146   0.088  0.00  0.00    +0.251 A 
ATOM      9  O   UNL     1       4.357   3.876   0.015  0.00  0.00    -0.268 OA
ATOM     10  N   UNL     1       2.159   3.694   0.185  0.00  0.00    -0.322 N 
ATOM     11  H   UNL     1       2.067   4.660   0.196  0.00  0.00    +0.169 HD
ATOM     12  C   UNL     1       1.033   2.904   0.270  0.00  0.00    +0.053 A 
ATOM     13  C   UNL     1      -0.231   3.470   0.369  0.00  0.00    +0.072 A 
BRANCH   2  15
ATOM     14  C   UNL     1      -3.690   2.309   0.631  0.00  0.00    +0.277 C 
ATOM     15  O   UNL     1      -2.581   3.207   0.549  0.00  0.00    -0.495 OA
ENDBRANCH   2  15
ENDBRANCH   1   7
BRANCH   1  21
ATOM     16  C   UNL     1       7.190   1.264   0.895  0.00  0.00    -0.058 C 
ATOM     17  C   UNL     1       8.057   1.940   1.960  0.00  0.00    +0.086 C 
ATOM     18  N   UNL     1       7.510   1.645   3.292  0.00  0.00    -0.333 N 
ATOM     19  C   UNL     1       6.128   2.129   3.410  0.00  0.00    +0.086 C 
ATOM     20  C   UNL     1       5.261   1.453   2.345  0.00  0.00    -0.058 C 
ATOM     21  N   UNL     1       5.808   1.775   1.010  0.00  0.00    +0.391 N 
ATOM     22  H   UNL     1       5.819   2.795   0.891  0.00  0.00    -0.080 HD
BRANCH  18  23
ATOM     23  C   UNL     1       8.318   2.188   4.297  0.00  0.00    +0.030 A 
ATOM     24  C   UNL     1       7.776   3.065   5.227  0.00  0.00    +0.026 A 
ATOM     25  C   UNL     1       8.575   3.596   6.221  0.00  0.00    +0.040 A 
ATOM     26  C   UNL     1       9.917   3.262   6.284  0.00  0.00    +0.124 A 
ATOM     27  C   UNL     1      10.461   2.392   5.354  0.00  0.00    +0.040 A 
ATOM     28  C   UNL     1       9.665   1.855   4.362  0.00  0.00    +0.026 A 
ATOM     29  F   UNL     1      10.698   3.786   7.254  0.00  0.00    -0.205 F 
ENDBRANCH  18  23
ENDBRANCH   1  21
BRANCH   1  30
ATOM     30  C   UNL     1       5.537   1.520  -1.391  0.00  0.00    +0.143 A 
ATOM     31  N   UNL     1       5.986   2.689  -1.776  0.00  0.00    -0.115 NA
ATOM     32  N   UNL     1       6.397   2.577  -2.992  0.00  0.00    -0.023 NA
ATOM     33  N   UNL     1       6.216   1.367  -3.395  0.00  0.00    -0.044 NA
ATOM     34  N   UNL     1       5.687   0.685  -2.436  0.00  0.00    -0.228 N 
BRANCH  34  35
ATOM     35  C   UNL     1       5.319  -0.733  -2.477  0.00  0.00    +0.178 C 
BRANCH  35  36
ATOM     36  C   UNL     1       3.875  -0.871  -2.964  0.00  0.00    +0.140 C 
ATOM     37  C   UNL     1       3.441  -2.352  -2.901  0.00  0.00    +0.035 C 
ATOM     38  C   UNL     1       2.601  -2.504  -4.198  0.00  0.00    +0.031 C 
ATOM     39  C   UNL     1       3.360  -1.549  -5.154  0.00  0.00    +0.160 C 
ATOM     40  O   UNL     1       3.780  -0.450  -4.330  0.00  0.00    -0.375 OA
ENDBRANCH  35  36
ENDBRANCH  34  35
ENDBRANCH   1  30
TORSDOF 7
