REMARK  Name = ZINC36343959
REMARK  11 active torsions:
REMARK  status: ('A' for Active; 'I' for Inactive)
REMARK    1  A    between atoms: C_1  and  C_2
REMARK    2  A    between atoms: C_2  and  O_3
REMARK    3  A    between atoms: O_3  and  C_4
REMARK    4  A    between atoms: C_7  and  C_10
REMARK    5  A    between atoms: C_13  and  C_30
REMARK    6  A    between atoms: C_16  and  C_18
REMARK    7  A    between atoms: C_18  and  N_19
REMARK    8  A    between atoms: C_22  and  C_25
REMARK    9  A    between atoms: C_25  and  O_27
REMARK   10  A    between atoms: O_27  and  C_28
REMARK   11  A    between atoms: C_28  and  C_29
REMARK                            x       y       z     vdW  Elec       q    Type
REMARK                         _______ _______ _______ _____ _____    ______ ____
ROOT
ATOM      1  C   UNL     1       1.109  -6.040  -1.847  0.00  0.00    +0.137 C 
ATOM      2  C   UNL     1       2.525  -6.522  -1.474  0.00  0.00    +0.087 C 
ATOM      3  C   UNL     1       3.058  -7.117  -2.757  0.00  0.00    +0.069 C 
ATOM      4  N   UNL     1       2.167  -7.014  -3.682  0.00  0.00    -0.181 NA
ATOM      5  N   UNL     1       0.981  -6.401  -3.268  0.00  0.00    -0.187 N 
ATOM      6  C   UNL     1      -0.100  -6.177  -4.040  0.00  0.00    +0.219 C 
ATOM      7  O   UNL     1      -1.078  -5.633  -3.571  0.00  0.00    -0.276 OA
ENDROOT
BRANCH   3   8
ATOM      8  C   UNL     1       4.392  -7.721  -2.925  0.00  0.00    -0.002 A 
ATOM      9  C   UNL     1       5.276  -7.782  -1.845  0.00  0.00    +0.012 A 
ATOM     10  C   UNL     1       6.522  -8.349  -2.008  0.00  0.00    +0.039 A 
ATOM     11  C   UNL     1       6.898  -8.859  -3.241  0.00  0.00    +0.123 A 
ATOM     12  C   UNL     1       6.026  -8.801  -4.316  0.00  0.00    +0.039 A 
ATOM     13  C   UNL     1       4.775  -8.241  -4.164  0.00  0.00    +0.012 A 
ATOM     14  F   UNL     1       8.121  -9.413  -3.395  0.00  0.00    -0.205 F 
ENDBRANCH   3   8
BRANCH   1  18
ATOM     15  C   UNL     1       0.777  -1.810  -1.336  0.00  0.00    +0.121 A 
ATOM     16  C   UNL     1       0.243  -2.669  -0.386  0.00  0.00    +0.046 A 
ATOM     17  C   UNL     1       0.351  -4.036  -0.554  0.00  0.00    +0.009 A 
ATOM     18  C   UNL     1       0.992  -4.548  -1.667  0.00  0.00    -0.024 A 
ATOM     19  C   UNL     1       1.525  -3.694  -2.615  0.00  0.00    +0.009 A 
ATOM     20  C   UNL     1       1.414  -2.327  -2.455  0.00  0.00    +0.046 A 
BRANCH  15  21
ATOM     21  O   UNL     1       0.671  -0.465  -1.174  0.00  0.00    -0.492 OA
BRANCH  21  23
ATOM     22  C   UNL     1      -0.019   1.526   0.010  0.00  0.00    +0.048 C 
ATOM     23  C   UNL     1       0.002  -0.004   0.002  0.00  0.00    +0.225 C 
ENDBRANCH  21  23
ENDBRANCH  15  21
ENDBRANCH   1  18
BRANCH   6  24
ATOM     24  C   UNL     1      -0.095  -6.601  -5.486  0.00  0.00    +0.021 C 
BRANCH  24  25
ATOM     25  N   UNL     1      -1.380  -6.248  -6.104  0.00  0.00    +0.385 N 
ATOM     26  C   UNL     1      -1.528  -4.787  -6.120  0.00  0.00    -0.077 C 
ATOM     27  C   UNL     1      -2.899  -4.416  -6.689  0.00  0.00    -0.004 C 
ATOM     28  C   UNL     1      -3.017  -4.958  -8.117  0.00  0.00    +0.094 C 
ATOM     29  C   UNL     1      -2.787  -6.472  -8.098  0.00  0.00    -0.004 C 
ATOM     30  C   UNL     1      -1.420  -6.767  -7.477  0.00  0.00    -0.077 C 
ATOM     31  H   UNL     1      -2.133  -6.654  -5.570  0.00  0.00    -0.081 HD
BRANCH  28  32
ATOM     32  C   UNL     1      -4.393  -4.664  -8.656  0.00  0.00    +0.310 C 
ATOM     33  O   UNL     1      -5.199  -4.081  -7.969  0.00  0.00    -0.251 OA
BRANCH  32  34
ATOM     34  O   UNL     1      -4.724  -5.050  -9.898  0.00  0.00    -0.465 OA
BRANCH  34  35
ATOM     35  C   UNL     1      -6.046  -4.739 -10.343  0.00  0.00    +0.229 C 
ATOM     36  C   UNL     1      -6.237  -5.253 -11.772  0.00  0.00    +0.048 C 
ENDBRANCH  34  35
ENDBRANCH  32  34
ENDBRANCH  28  32
ENDBRANCH  24  25
ENDBRANCH   6  24
TORSDOF 9
