REMARK  Name = ZINC14150105
REMARK  6 active torsions:
REMARK  status: ('A' for Active; 'I' for Inactive)
REMARK    1  A    between atoms: N_4  and  C_6
REMARK    2  A    between atoms: C_6  and  C_7
REMARK    3  A    between atoms: C_10  and  C_13
REMARK    4  A    between atoms: C_13  and  O_15
REMARK    5  A    between atoms: O_15  and  C_16
REMARK    6  A    between atoms: C_16  and  C_17
REMARK                            x       y       z     vdW  Elec       q    Type
REMARK                         _______ _______ _______ _____ _____    ______ ____
ROOT
ATOM      1  C   UNL     1      -1.289  -0.729  -0.393  0.00  0.00    +0.308 C 
ENDROOT
BRANCH   1   2
ATOM      2  C   UNL     1       0.009   0.010  -0.187  0.00  0.00    +0.170 A 
ATOM      3  N   UNL     1       1.145  -0.664  -0.195  0.00  0.00    -0.214 NA
ATOM      4  C   UNL     1       2.316  -0.074  -0.019  0.00  0.00    +0.128 A 
ATOM      5  C   UNL     1       2.358   1.333   0.184  0.00  0.00    +0.051 A 
ATOM      6  C   UNL     1       3.523   2.194   0.398  0.00  0.00    -0.025 A 
ATOM      7  C   UNL     1       3.287   3.511   0.566  0.00  0.00    -0.004 A 
ATOM      8  S   UNL     1       1.527   3.684   0.452  0.00  0.00    -0.073 S 
ATOM      9  C   UNL     1       1.108   1.983   0.179  0.00  0.00    +0.114 A 
ATOM     10  N   UNL     1      -0.015   1.316  -0.003  0.00  0.00    -0.221 NA
ATOM     11  C   UNL     1       4.299   4.591   0.800  0.00  0.00    +0.043 C 
ATOM     12  C   UNL     1       5.629   3.933   1.193  0.00  0.00    +0.005 C 
ATOM     13  C   UNL     1       5.926   2.799   0.206  0.00  0.00    +0.005 C 
ATOM     14  C   UNL     1       4.947   1.646   0.432  0.00  0.00    +0.037 C 
ATOM     15  N   UNL     1       3.483  -0.816  -0.035  0.00  0.00    -0.343 N 
ATOM     16  H   UNL     1       3.481  -1.716  -0.395  0.00  0.00    +0.144 HD
ATOM     17  H   UNL     1       4.304  -0.435   0.315  0.00  0.00    +0.144 HD
ENDBRANCH   1   2
BRANCH   1  18
ATOM     18  O   UNL     1      -1.600  -0.774  -1.810  0.00  0.00    -0.453 OA
BRANCH  18  19
ATOM     19  C   UNL     1      -2.736  -1.404  -2.167  0.00  0.00    +0.340 C 
ATOM     20  O   UNL     1      -3.447  -1.903  -1.317  0.00  0.00    -0.245 OA
BRANCH  19  24
ATOM     21  C   UNL     1      -3.833  -1.648  -6.262  0.00  0.00    -0.026 A 
ATOM     22  C   UNL     1      -4.645  -2.217  -5.297  0.00  0.00    +0.006 A 
ATOM     23  C   UNL     1      -4.295  -2.142  -3.965  0.00  0.00    +0.015 A 
ATOM     24  C   UNL     1      -3.118  -1.489  -3.592  0.00  0.00    +0.059 A 
ATOM     25  C   UNL     1      -2.306  -0.913  -4.571  0.00  0.00    +0.015 A 
ATOM     26  C   UNL     1      -2.666  -1.000  -5.899  0.00  0.00    +0.006 A 
BRANCH  21  27
ATOM     27  C   UNL     1      -4.223  -1.735  -7.715  0.00  0.00    +0.178 C 
BRANCH  27  31
ATOM     28  C   UNL     1      -5.788   1.217  -9.071  0.00  0.00    +0.041 A 
ATOM     29  C   UNL     1      -6.667   0.903  -8.029  0.00  0.00    +0.134 A 
ATOM     30  N   UNL     1      -6.222  -0.171  -7.429  0.00  0.00    -0.179 NA
ATOM     31  N   UNL     1      -5.044  -0.575  -8.071  0.00  0.00    -0.267 N 
ATOM     32  C   UNL     1      -4.796   0.296  -9.072  0.00  0.00    +0.108 A 
ENDBRANCH  27  31
ENDBRANCH  21  27
ENDBRANCH  19  24
ENDBRANCH  18  19
ENDBRANCH   1  18
TORSDOF 6
