REMARK  Name = ZINC09512590
REMARK  8 active torsions:
REMARK  status: ('A' for Active; 'I' for Inactive)
REMARK    1  A    between atoms: C_4  and  C_7
REMARK    2  A    between atoms: C_7  and  C_9
REMARK    3  A    between atoms: C_7  and  N_51
REMARK    4  A    between atoms: C_14  and  C_15
REMARK    5  A    between atoms: C_14  and  N_51
REMARK    6  A    between atoms: N_17  and  C_18
REMARK    7  A    between atoms: C_23  and  C_24
REMARK    8  A    between atoms: N_26  and  C_27
REMARK                            x       y       z     vdW  Elec       q    Type
REMARK                         _______ _______ _______ _____ _____    ______ ____
ROOT
ATOM      1  C   UNL     1       1.720  -3.333   3.137  0.00  0.00    +0.200 C 
ATOM      2  O   UNL     1       0.937  -4.124   2.655  0.00  0.00    -0.278 OA
ATOM      3  N   UNL     1       1.971  -3.355   4.461  0.00  0.00    -0.286 N 
ATOM      4  H   UNL     1       2.644  -2.766   4.837  0.00  0.00    +0.155 HD
ENDROOT
BRANCH   3   5
ATOM      5  C   UNL     1       1.264  -4.223   5.289  0.00  0.00    +0.045 A 
ATOM      6  C   UNL     1       0.894  -5.480   4.829  0.00  0.00    +0.024 A 
ATOM      7  C   UNL     1       0.198  -6.341   5.653  0.00  0.00    +0.002 A 
ATOM      8  C   UNL     1      -0.146  -5.956   6.939  0.00  0.00    +0.001 A 
ATOM      9  C   UNL     1       0.209  -4.711   7.411  0.00  0.00    +0.015 A 
ATOM     10  C   UNL     1       0.918  -3.831   6.590  0.00  0.00    +0.058 A 
BRANCH  10  11
ATOM     11  C   UNL     1       1.300  -2.496   7.089  0.00  0.00    +0.246 C 
ATOM     12  O   UNL     1       1.829  -1.696   6.342  0.00  0.00    -0.270 OA
ATOM     13  N   UNL     1       1.063  -2.163   8.373  0.00  0.00    -0.308 N 
ATOM     14  H   UNL     1       0.641  -2.801   8.970  0.00  0.00    +0.149 HD
BRANCH  13  15
ATOM     15  C   UNL     1       1.443  -0.838   8.869  0.00  0.00    +0.073 C 
ATOM     16  C   UNL     1       2.121  -0.763  10.238  0.00  0.00    +0.024 C 
ATOM     17  C   UNL     1       0.676  -0.287  10.073  0.00  0.00    +0.024 C 
ENDBRANCH  13  15
ENDBRANCH  10  11
ENDBRANCH   3   5
BRANCH   1  18
ATOM     18  C   UNL     1       2.411  -2.325   2.255  0.00  0.00    +0.016 C 
BRANCH  18  19
ATOM     19  N   UNL     1       1.964  -2.513   0.862  0.00  0.00    +0.392 N 
ATOM     20  H   UNL     1       2.200  -3.464   0.556  0.00  0.00    -0.084 HD
ATOM     21  H   UNL     1       0.947  -2.380   0.812  0.00  0.00    -0.084 HD
BRANCH  19  22
ATOM     22  C   UNL     1       2.626  -1.538  -0.025  0.00  0.00    -0.003 C 
BRANCH  22  26
ATOM     23  C   UNL     1       2.736  -3.105  -3.997  0.00  0.00    +0.000 A 
ATOM     24  C   UNL     1       3.825  -2.417  -3.495  0.00  0.00    +0.000 A 
ATOM     25  C   UNL     1       3.789  -1.910  -2.209  0.00  0.00    +0.002 A 
ATOM     26  C   UNL     1       2.664  -2.090  -1.426  0.00  0.00    -0.057 A 
ATOM     27  C   UNL     1       1.578  -2.783  -1.926  0.00  0.00    +0.002 A 
ATOM     28  C   UNL     1       1.612  -3.286  -3.213  0.00  0.00    +0.000 A 
ENDBRANCH  22  26
BRANCH  22  29
ATOM     29  C   UNL     1       1.852  -0.244  -0.016  0.00  0.00    -0.020 A 
ATOM     30  C   UNL     1       2.318   1.029  -0.014  0.00  0.00    +0.010 A 
ATOM     31  C   UNL     1       1.413   2.074  -0.005  0.00  0.00    +0.008 A 
ATOM     32  C   UNL     1       0.087   1.794   0.001  0.00  0.00    +0.045 A 
ATOM     33  S   UNL     1       0.085   0.009  -0.006  0.00  0.00    -0.103 S 
ENDBRANCH  22  29
ENDBRANCH  19  22
ENDBRANCH  18  19
ENDBRANCH   1  18
TORSDOF 8
