REMARK  Name = ZINC05082417
REMARK  16 active torsions:
REMARK  status: ('A' for Active; 'I' for Inactive)
REMARK    1  A    between atoms: C_1  and  C_2
REMARK    2  A    between atoms: C_2  and  C_3
REMARK    3  A    between atoms: C_2  and  C_4
REMARK    4  A    between atoms: C_4  and  C_5
REMARK    5  A    between atoms: C_5  and  C_7
REMARK    6  A    between atoms: C_5  and  N_11
REMARK    7  A    between atoms: C_7  and  O_9
REMARK    8  A    between atoms: O_9  and  C_10
REMARK    9  A    between atoms: C_12  and  C_14
REMARK   10  A    between atoms: C_14  and  C_16
REMARK   11  A    between atoms: C_14  and  N_69
REMARK   12  A    between atoms: C_16  and  S_17
REMARK   13  A    between atoms: S_17  and  C_18
REMARK   14  A    between atoms: C_18  and  C_19
REMARK   15  A    between atoms: C_18  and  C_25
REMARK   16  A    between atoms: C_18  and  C_31
REMARK                            x       y       z     vdW  Elec       q    Type
REMARK                         _______ _______ _______ _____ _____    ______ ____
ROOT
ATOM      1  S   UNL     1       6.404   3.004   4.155  0.00  0.00    -0.141 S 
ENDROOT
BRANCH   1   2
ATOM      2  C   UNL     1       4.982   2.030   3.589  0.00  0.00    +0.063 C 
BRANCH   2   3
ATOM      3  C   UNL     1       5.474   0.710   2.990  0.00  0.00    +0.023 C 
BRANCH   3   5
ATOM      4  N   UNL     1       3.824   0.289   1.195  0.00  0.00    -0.304 N 
ATOM      5  C   UNL     1       4.305  -0.044   2.409  0.00  0.00    +0.200 C 
ATOM      6  O   UNL     1       3.798  -0.951   3.035  0.00  0.00    -0.278 OA
ATOM      7  H   UNL     1       4.229   1.015   0.695  0.00  0.00    +0.149 HD
BRANCH   4   8
ATOM      8  C   UNL     1       2.688  -0.444   0.631  0.00  0.00    +0.182 C 
BRANCH   8   9
ATOM      9  C   UNL     1       1.402   0.150   1.145  0.00  0.00    +0.327 C 
ATOM     10  O   UNL     1       1.431   1.089   1.904  0.00  0.00    -0.249 OA
BRANCH   9  11
ATOM     11  O   UNL     1       0.224  -0.365   0.758  0.00  0.00    -0.467 OA
ATOM     12  C   UNL     1      -0.975   0.257   1.292  0.00  0.00    +0.280 C 
ENDBRANCH   9  11
ENDBRANCH   8   9
BRANCH   8  13
ATOM     13  C   UNL     1       2.723  -0.343  -0.895  0.00  0.00    +0.036 C 
BRANCH  13  15
ATOM     14  C   UNL     1       3.972  -2.500  -1.069  0.00  0.00    +0.007 C 
ATOM     15  C   UNL     1       3.995  -1.012  -1.421  0.00  0.00    -0.015 C 
ATOM     16  C   UNL     1       4.065  -0.849  -2.941  0.00  0.00    +0.007 C 
ENDBRANCH  13  15
ENDBRANCH   8  13
ENDBRANCH   4   8
ENDBRANCH   3   5
BRANCH   3  19
ATOM     17  H   UNL     1       5.453  -0.304   4.781  0.00  0.00    -0.089 HD
ATOM     18  H   UNL     1       6.497  -0.947   3.657  0.00  0.00    -0.089 HD
ATOM     19  N   UNL     1       6.124  -0.083   4.047  0.00  0.00    +0.386 N 
ATOM     20  H   UNL     1       6.895   0.462   4.452  0.00  0.00    -0.089 HD
ENDBRANCH   3  19
ENDBRANCH   2   3
ENDBRANCH   1   2
BRANCH   1  21
ATOM     21  C   UNL     1       5.657   4.486   4.887  0.00  0.00    +0.091 C 
BRANCH  21  22
ATOM     22  C   UNL     1       6.740   5.471   5.242  0.00  0.00    -0.023 A 
ATOM     23  C   UNL     1       6.506   6.828   5.123  0.00  0.00    +0.005 A 
ATOM     24  C   UNL     1       7.498   7.732   5.454  0.00  0.00    +0.000 A 
ATOM     25  C   UNL     1       8.728   7.279   5.894  0.00  0.00    +0.000 A 
ATOM     26  C   UNL     1       8.964   5.922   6.007  0.00  0.00    +0.000 A 
ATOM     27  C   UNL     1       7.970   5.018   5.682  0.00  0.00    +0.005 A 
ENDBRANCH  21  22
BRANCH  21  28
ATOM     28  C   UNL     1       4.712   5.114   3.896  0.00  0.00    -0.023 A 
ATOM     29  C   UNL     1       3.394   5.341   4.245  0.00  0.00    +0.005 A 
ATOM     30  C   UNL     1       2.528   5.922   3.338  0.00  0.00    +0.000 A 
ATOM     31  C   UNL     1       2.978   6.266   2.077  0.00  0.00    +0.000 A 
ATOM     32  C   UNL     1       4.294   6.034   1.725  0.00  0.00    +0.000 A 
ATOM     33  C   UNL     1       5.161   5.458   2.635  0.00  0.00    +0.005 A 
ENDBRANCH  21  28
BRANCH  21  34
ATOM     34  C   UNL     1       4.898   4.103   6.132  0.00  0.00    -0.023 A 
ATOM     35  C   UNL     1       4.321   5.083   6.918  0.00  0.00    +0.005 A 
ATOM     36  C   UNL     1       3.621   4.731   8.057  0.00  0.00    +0.000 A 
ATOM     37  C   UNL     1       3.506   3.401   8.415  0.00  0.00    +0.000 A 
ATOM     38  C   UNL     1       4.088   2.422   7.632  0.00  0.00    +0.000 A 
ATOM     39  C   UNL     1       4.783   2.773   6.490  0.00  0.00    +0.005 A 
ENDBRANCH  21  34
ENDBRANCH   1  21
TORSDOF 13
