REMARK  Name = ZINC23532573
REMARK  8 active torsions:
REMARK  status: ('A' for Active; 'I' for Inactive)
REMARK    1  A    between atoms: C_1  and  C_2
REMARK    2  A    between atoms: C_2  and  C_4
REMARK    3  A    between atoms: C_9  and  N_10
REMARK    4  A    between atoms: C_11  and  C_13
REMARK    5  A    between atoms: C_13  and  S_14
REMARK    6  A    between atoms: S_14  and  C_15
REMARK    7  A    between atoms: N_25  and  C_26
REMARK    8  A    between atoms: C_26  and  C_27
REMARK                            x       y       z     vdW  Elec       q    Type
REMARK                         _______ _______ _______ _____ _____    ______ ____
ROOT
ATOM      1  N   UNL     1      -6.250  -1.131   0.066  0.00  0.00    -0.284 N 
ATOM      2  C   UNL     1      -5.219  -2.000   0.050  0.00  0.00    +0.228 C 
ATOM      3  O   UNL     1      -5.433  -3.194   0.033  0.00  0.00    -0.275 OA
ATOM      4  H   UNL     1      -6.058  -0.052   0.156  0.00  0.00    +0.155 HD
ENDROOT
BRANCH   1  10
ATOM      5  C   UNL     1      -8.527  -0.850  -0.721  0.00  0.00    +0.042 A 
ATOM      6  C   UNL     1      -9.839  -1.335  -0.820  0.00  0.00    +0.062 A 
ATOM      7  C   UNL     1     -10.176  -2.534  -0.230  0.00  0.00    +0.167 A 
ATOM      8  C   UNL     1      -9.211  -3.274   0.460  0.00  0.00    +0.168 A 
ATOM      9  C   UNL     1      -7.910  -2.805   0.556  0.00  0.00    +0.073 A 
ATOM     10  C   UNL     1      -7.558  -1.601  -0.032  0.00  0.00    +0.048 A 
ATOM     11  O   UNL     1      -9.796  -4.407   0.942  0.00  0.00    -0.453 OA
ATOM     12  C   UNL     1     -11.018  -4.557   0.197  0.00  0.00    +0.466 C 
ATOM     13  O   UNL     1     -11.362  -3.210  -0.176  0.00  0.00    -0.453 OA
BRANCH   5  15
ATOM     14  C   UNL     1      -9.230   1.284  -1.976  0.00  0.00    +0.091 C 
ATOM     15  C   UNL     1      -8.166   0.428  -1.339  0.00  0.00    +0.162 C 
ATOM     16  O   UNL     1      -7.010   0.797  -1.339  0.00  0.00    -0.292 OA
ENDBRANCH   5  15
ENDBRANCH   1  10
BRANCH   2  17
ATOM     17  C   UNL     1      -3.802  -1.488   0.052  0.00  0.00    +0.173 C 
BRANCH  17  18
ATOM     18  S   UNL     1      -2.655  -2.888   0.028  0.00  0.00    -0.078 S 
BRANCH  18  19
ATOM     19  C   UNL     1      -1.119  -2.024   0.035  0.00  0.00    +0.173 A 
ATOM     20  N   UNL     1      -1.139  -0.715   0.054  0.00  0.00    -0.223 NA
ATOM     21  C   UNL     1      -0.001   0.009   0.061  0.00  0.00    +0.079 A 
ATOM     22  C   UNL     1      -0.022   1.407   0.082  0.00  0.00    +0.028 A 
ATOM     23  C   UNL     1       1.154   2.101   0.089  0.00  0.00    +0.002 A 
ATOM     24  C   UNL     1       2.375   1.439   0.076  0.00  0.00    +0.001 A 
ATOM     25  C   UNL     1       2.429   0.072   0.055  0.00  0.00    +0.015 A 
ATOM     26  C   UNL     1       1.243  -0.661   0.047  0.00  0.00    +0.065 A 
ATOM     27  C   UNL     1       1.239  -2.130   0.026  0.00  0.00    +0.263 A 
ATOM     28  O   UNL     1       2.278  -2.764   0.014  0.00  0.00    -0.267 OA
ATOM     29  N   UNL     1       0.037  -2.752   0.020  0.00  0.00    -0.283 N 
BRANCH  29  30
ATOM     30  C   UNL     1      -0.025  -4.215  -0.001  0.00  0.00    +0.154 C 
BRANCH  30  31
ATOM     31  C   UNL     1      -0.042  -4.738   1.412  0.00  0.00    -0.013 C 
ATOM     32  C   UNL     1      -1.004  -5.536   1.804  0.00  0.00    +0.005 C 
ENDBRANCH  30  31
ENDBRANCH  29  30
ENDBRANCH  18  19
ENDBRANCH  17  18
ENDBRANCH   2  17
TORSDOF 7
