REMARK  Name = ZINC22419665
REMARK  12 active torsions:
REMARK  status: ('A' for Active; 'I' for Inactive)
REMARK    1  A    between atoms: C_1  and  C_2
REMARK    2  A    between atoms: C_2  and  N_3
REMARK    3  A    between atoms: N_3  and  C_4
REMARK    4  A    between atoms: N_3  and  S_6
REMARK    5  A    between atoms: C_4  and  C_5
REMARK    6  A    between atoms: S_6  and  C_9
REMARK    7  A    between atoms: N_14  and  C_19
REMARK    8  A    between atoms: C_19  and  N_20
REMARK    9  A    between atoms: N_20  and  C_21
REMARK   10  A    between atoms: N_20  and  C_22
REMARK   11  A    between atoms: C_22  and  C_23
REMARK   12  A    between atoms: C_22  and  C_29
REMARK                            x       y       z     vdW  Elec       q    Type
REMARK                         _______ _______ _______ _____ _____    ______ ____
ROOT
ATOM      1  C   UNL     1       3.320  -1.696   0.100  0.00  0.00    +0.122 A 
ATOM      2  C   UNL     1       4.159  -0.580   0.292  0.00  0.00    +0.033 A 
ATOM      3  C   UNL     1       3.623   0.663   0.361  0.00  0.00    +0.050 A 
ATOM      4  C   UNL     1       2.219   0.821   0.238  0.00  0.00    +0.160 A 
ATOM      5  N   UNL     1       1.449   1.884   0.266  0.00  0.00    -0.153 NA
ATOM      6  N   UNL     1       0.124   1.460   0.093  0.00  0.00    -0.257 N 
ATOM      7  C   UNL     1       0.140   0.118  -0.036  0.00  0.00    +0.181 A 
ATOM      8  S   UNL     1      -1.226  -0.887  -0.269  0.00  0.00    -0.011 S 
ATOM      9  N   UNL     1       1.421  -0.292   0.051  0.00  0.00    -0.277 N 
ATOM     10  C   UNL     1       1.989  -1.541  -0.016  0.00  0.00    +0.123 A 
ENDROOT
BRANCH   1  11
ATOM     11  S   UNL     1       4.021  -3.311   0.010  0.00  0.00    +0.062 S 
ATOM     12  O   UNL     1       5.265  -3.251   0.694  0.00  0.00    -0.153 OA
ATOM     13  O   UNL     1       2.993  -4.221   0.376  0.00  0.00    -0.153 OA
BRANCH  11  14
ATOM     14  N   UNL     1       4.370  -3.605  -1.582  0.00  0.00    -0.177 NA
BRANCH  14  16
ATOM     15  C   UNL     1       6.608  -4.458  -2.074  0.00  0.00    +0.022 C 
ATOM     16  C   UNL     1       5.681  -3.242  -2.124  0.00  0.00    +0.106 C 
ENDBRANCH  14  16
BRANCH  14  17
ATOM     17  C   UNL     1       3.366  -4.229  -2.448  0.00  0.00    +0.106 C 
ATOM     18  C   UNL     1       2.592  -3.143  -3.197  0.00  0.00    +0.022 C 
ENDBRANCH  14  17
ENDBRANCH  11  14
ENDBRANCH   1  11
BRANCH   6  19
ATOM     19  C   UNL     1      -1.062   2.320   0.054  0.00  0.00    +0.073 C 
BRANCH  19  20
ATOM     20  N   UNL     1      -1.600   2.474   1.413  0.00  0.00    +0.398 N 
ATOM     21  C   UNL     1      -2.112   1.195   1.924  0.00  0.00    -0.092 C 
ATOM     22  H   UNL     1      -0.777   2.794   2.068  0.00  0.00    -0.078 HD
BRANCH  20  23
ATOM     23  C   UNL     1      -2.639   3.511   1.453  0.00  0.00    -0.005 C 
BRANCH  23  24
ATOM     24  C   UNL     1      -3.137   3.668   2.866  0.00  0.00    -0.057 A 
ATOM     25  C   UNL     1      -2.237   3.729   3.914  0.00  0.00    +0.002 A 
ATOM     26  C   UNL     1      -2.694   3.878   5.210  0.00  0.00    +0.000 A 
ATOM     27  C   UNL     1      -4.051   3.957   5.460  0.00  0.00    +0.000 A 
ATOM     28  C   UNL     1      -4.952   3.890   4.413  0.00  0.00    +0.000 A 
ATOM     29  C   UNL     1      -4.495   3.746   3.116  0.00  0.00    +0.002 A 
ENDBRANCH  23  24
BRANCH  23  30
ATOM     30  C   UNL     1      -2.063   4.819   0.975  0.00  0.00    -0.057 A 
ATOM     31  C   UNL     1      -0.823   5.233   1.424  0.00  0.00    +0.002 A 
ATOM     32  C   UNL     1      -0.292   6.430   0.982  0.00  0.00    +0.000 A 
ATOM     33  C   UNL     1      -1.005   7.218   0.098  0.00  0.00    +0.000 A 
ATOM     34  C   UNL     1      -2.248   6.806  -0.347  0.00  0.00    +0.000 A 
ATOM     35  C   UNL     1      -2.776   5.607   0.091  0.00  0.00    +0.002 A 
ENDBRANCH  23  30
ENDBRANCH  20  23
ENDBRANCH  19  20
ENDBRANCH   6  19
TORSDOF 9
