REMARK  Name = ZINC21917807
REMARK  13 active torsions:
REMARK  status: ('A' for Active; 'I' for Inactive)
REMARK    1  A    between atoms: C_1  and  C_2
REMARK    2  A    between atoms: C_2  and  N_3
REMARK    3  A    between atoms: N_3  and  C_4
REMARK    4  A    between atoms: N_3  and  C_6
REMARK    5  A    between atoms: C_4  and  C_5
REMARK    6  A    between atoms: C_6  and  C_8
REMARK    7  A    between atoms: C_6  and  C_29
REMARK    8  A    between atoms: C_8  and  N_9
REMARK    9  A    between atoms: C_10  and  C_12
REMARK   10  A    between atoms: N_15  and  S_18
REMARK   11  A    between atoms: S_18  and  C_21
REMARK   12  A    between atoms: C_24  and  C_28
REMARK   13  A    between atoms: C_26  and  C_27
REMARK                            x       y       z     vdW  Elec       q    Type
REMARK                         _______ _______ _______ _____ _____    ______ ____
ROOT
ATOM      1  N   UNL     1      -2.514   1.088  -1.281  0.00  0.00    -0.316 N 
ATOM      2  C   UNL     1      -3.031   1.037  -2.524  0.00  0.00    +0.216 C 
ATOM      3  O   UNL     1      -2.468   1.601  -3.439  0.00  0.00    -0.276 OA
ATOM      4  H   UNL     1      -3.025   0.577  -0.451  0.00  0.00    +0.149 HD
ENDROOT
BRANCH   2   5
ATOM      5  C   UNL     1      -4.309   0.281  -2.778  0.00  0.00    +0.077 C 
ATOM      6  C   UNL     1      -4.116  -1.189  -2.396  0.00  0.00    +0.030 C 
ATOM      7  C   UNL     1      -5.428  -1.948  -2.623  0.00  0.00    +0.110 C 
ATOM      8  N   UNL     1      -5.862  -1.737  -4.011  0.00  0.00    -0.177 NA
ATOM      9  C   UNL     1      -5.992  -0.361  -4.509  0.00  0.00    +0.110 C 
ATOM     10  C   UNL     1      -4.675   0.380  -4.261  0.00  0.00    +0.030 C 
BRANCH   8  11
ATOM     11  S   UNL     1      -6.198  -3.026  -4.995  0.00  0.00    +0.061 S 
ATOM     12  O   UNL     1      -6.700  -4.057  -4.156  0.00  0.00    -0.153 OA
ATOM     13  O   UNL     1      -6.933  -2.514  -6.098  0.00  0.00    -0.153 OA
BRANCH  11  14
ATOM     14  C   UNL     1      -4.662  -3.604  -5.638  0.00  0.00    +0.108 A 
ATOM     15  C   UNL     1      -4.200  -4.862  -5.299  0.00  0.00    +0.029 A 
ATOM     16  C   UNL     1      -2.997  -5.316  -5.804  0.00  0.00    +0.005 A 
ATOM     17  C   UNL     1      -2.254  -4.511  -6.648  0.00  0.00    -0.050 A 
ATOM     18  C   UNL     1      -2.716  -3.254  -6.987  0.00  0.00    +0.008 A 
ATOM     19  C   UNL     1      -3.923  -2.802  -6.486  0.00  0.00    -0.024 A 
ATOM     20  C   UNL     1      -4.429  -1.433  -6.861  0.00  0.00    +0.046 C 
ATOM     21  C   UNL     1      -0.942  -5.006  -7.199  0.00  0.00    +0.044 C 
ENDBRANCH  11  14
ENDBRANCH   8  11
ENDBRANCH   2   5
BRANCH   1  22
ATOM     22  C   UNL     1      -1.271   1.824  -1.034  0.00  0.00    +0.093 C 
BRANCH  22  23
ATOM     23  C   UNL     1      -0.839   1.621   0.420  0.00  0.00    -0.020 C 
BRANCH  23  24
ATOM     24  C   UNL     1       0.551   2.172   0.612  0.00  0.00    -0.059 A 
ATOM     25  C   UNL     1       1.588   1.722  -0.183  0.00  0.00    +0.002 A 
ATOM     26  C   UNL     1       2.862   2.231  -0.009  0.00  0.00    +0.000 A 
ATOM     27  C   UNL     1       3.100   3.182   0.965  0.00  0.00    +0.000 A 
ATOM     28  C   UNL     1       2.063   3.627   1.764  0.00  0.00    +0.000 A 
ATOM     29  C   UNL     1       0.789   3.122   1.588  0.00  0.00    +0.002 A 
ENDBRANCH  23  24
BRANCH  23  30
ATOM     30  N   UNL     1      -0.846   0.187   0.738  0.00  0.00    +0.385 N 
ATOM     31  H   UNL     1      -1.738  -0.258   0.272  0.00  0.00    -0.081 HD
BRANCH  30  33
ATOM     32  C   UNL     1       0.136  -0.702  -1.322  0.00  0.00    -0.017 C 
ATOM     33  C   UNL     1       0.337  -0.482   0.179  0.00  0.00    -0.081 C 
ENDBRANCH  30  33
BRANCH  30  34
ATOM     34  C   UNL     1      -0.937  -0.030   2.188  0.00  0.00    -0.081 C 
ATOM     35  C   UNL     1      -2.353   0.302   2.665  0.00  0.00    -0.017 C 
ENDBRANCH  30  34
ENDBRANCH  23  30
ENDBRANCH  22  23
ENDBRANCH   1  22
TORSDOF 9
