REMARK  Name = ZINC26467902
REMARK  12 active torsions:
REMARK  status: ('A' for Active; 'I' for Inactive)
REMARK    1  A    between atoms: C_1  and  C_2
REMARK    2  A    between atoms: C_2  and  O_3
REMARK    3  A    between atoms: O_3  and  C_4
REMARK    4  A    between atoms: C_6  and  C_25
REMARK    5  A    between atoms: C_8  and  C_21
REMARK    6  A    between atoms: C_9  and  C_20
REMARK    7  A    between atoms: C_11  and  C_12
REMARK    8  A    between atoms: C_12  and  O_13
REMARK    9  A    between atoms: O_13  and  C_14
REMARK   10  A    between atoms: C_14  and  C_15
REMARK   11  A    between atoms: C_21  and  O_23
REMARK   12  A    between atoms: O_23  and  C_24
REMARK                            x       y       z     vdW  Elec       q    Type
REMARK                         _______ _______ _______ _____ _____    ______ ____
ROOT
ATOM      1  C   UNL     1       0.743  -1.827  -1.341  0.00  0.00    +0.338 C 
ATOM      2  C   UNL     1       1.395  -2.325  -2.447  0.00  0.00    +0.072 C 
ATOM      3  C   UNL     1       1.323  -3.797  -2.812  0.00  0.00    +0.098 C 
ATOM      4  C   UNL     1       2.089  -4.208  -4.056  0.00  0.00    +0.069 C 
ATOM      5  C   UNL     1       2.767  -3.234  -4.731  0.00  0.00    +0.049 C 
ATOM      6  N   UNL     1       2.774  -1.970  -4.337  0.00  0.00    -0.253 NA
ATOM      7  C   UNL     1       2.146  -1.499  -3.284  0.00  0.00    +0.078 C 
ATOM      8  C   UNL     1       3.537  -3.612  -5.971  0.00  0.00    +0.066 C 
ATOM      9  O   UNL     1       0.026  -2.651  -0.552  0.00  0.00    -0.245 OA
ENDROOT
BRANCH   3  10
ATOM     10  C   UNL     1      -0.125  -4.163  -3.013  0.00  0.00    -0.015 A 
ATOM     11  C   UNL     1      -0.869  -3.526  -3.988  0.00  0.00    +0.006 A 
ATOM     12  C   UNL     1      -2.198  -3.860  -4.173  0.00  0.00    +0.002 A 
ATOM     13  C   UNL     1      -2.783  -4.832  -3.383  0.00  0.00    +0.021 A 
ATOM     14  C   UNL     1      -2.040  -5.470  -2.407  0.00  0.00    +0.060 A 
ATOM     15  C   UNL     1      -0.707  -5.139  -2.226  0.00  0.00    +0.063 A 
ATOM     16 CL   UNL     1       0.230  -5.945  -1.007  0.00  0.00    -0.082 Cl
ATOM     17 CL   UNL     1      -2.775  -6.690  -1.415  0.00  0.00    -0.082 Cl
ENDBRANCH   3  10
BRANCH   4  18
ATOM     18  C   UNL     1       2.100  -5.543  -4.498  0.00  0.00    +0.338 C 
ATOM     19  O   UNL     1       2.622  -5.829  -5.561  0.00  0.00    -0.245 OA
BRANCH  18  20
ATOM     20  O   UNL     1       1.533  -6.509  -3.743  0.00  0.00    -0.465 OA
ATOM     21  C   UNL     1       1.581  -7.843  -4.252  0.00  0.00    +0.280 C 
ENDBRANCH  18  20
ENDBRANCH   4  18
BRANCH   1  22
ATOM     22  O   UNL     1       0.822  -0.514  -1.047  0.00  0.00    -0.462 OA
BRANCH  22  24
ATOM     23  C   UNL     1       0.327   1.441   0.285  0.00  0.00    +0.048 C 
ATOM     24  C   UNL     1       0.121  -0.065   0.115  0.00  0.00    +0.229 C 
ENDBRANCH  22  24
ENDBRANCH   1  22
BRANCH   7  25
ATOM     25  C   UNL     1       2.244  -0.028  -2.969  0.00  0.00    +0.216 C 
BRANCH  25  26
ATOM     26  O   UNL     1       3.056   0.617  -3.952  0.00  0.00    -0.366 OA
BRANCH  26  27
ATOM     27  C   UNL     1       3.213   2.022  -3.744  0.00  0.00    +0.240 C 
BRANCH  27  28
ATOM     28  C   UNL     1       4.083   2.596  -4.833  0.00  0.00    +0.202 A 
ATOM     29  N   UNL     1       3.675   3.082  -5.997  0.00  0.00    -0.109 NA
ATOM     30  N   UNL     1       4.719   3.474  -6.643  0.00  0.00    -0.021 NA
ATOM     31  N   UNL     1       5.765   3.251  -5.926  0.00  0.00    -0.021 NA
ATOM     32  N   UNL     1       5.402   2.718  -4.809  0.00  0.00    -0.109 NA
ENDBRANCH  27  28
ENDBRANCH  26  27
ENDBRANCH  25  26
ENDBRANCH   7  25
TORSDOF 9
