REMARK  Name = ZINC12137152
REMARK  7 active torsions:
REMARK  status: ('A' for Active; 'I' for Inactive)
REMARK    1  A    between atoms: C_4  and  C_7
REMARK    2  A    between atoms: C_8  and  C_9
REMARK    3  A    between atoms: N_11  and  C_12
REMARK    4  A    between atoms: C_17  and  C_18
REMARK    5  A    between atoms: C_25  and  C_26
REMARK    6  A    between atoms: C_25  and  C_32
REMARK    7  A    between atoms: C_25  and  N_69
REMARK                            x       y       z     vdW  Elec       q    Type
REMARK                         _______ _______ _______ _____ _____    ______ ____
ROOT
ATOM      1  C   UNL     1      -2.299  -2.476   4.143  0.00  0.00    +0.248 C 
ATOM      2  O   UNL     1      -2.311  -3.686   4.029  0.00  0.00    -0.270 OA
ATOM      3  N   UNL     1      -2.408  -1.694   3.050  0.00  0.00    -0.301 N 
ATOM      4  C   UNL     1      -2.462  -2.283   1.704  0.00  0.00    +0.089 C 
ATOM      5  C   UNL     1      -1.417  -1.587   0.826  0.00  0.00    -0.058 C 
ATOM      6  C   UNL     1      -1.430   0.385   2.238  0.00  0.00    -0.058 C 
ATOM      7  C   UNL     1      -2.476  -0.230   3.173  0.00  0.00    +0.089 C 
ATOM      8  N   UNL     1      -1.657  -0.128   0.869  0.00  0.00    +0.389 N 
ATOM      9  H   UNL     1      -2.630   0.058   0.601  0.00  0.00    -0.080 HD
ENDROOT
BRANCH   1  15
ATOM     10  C   UNL     1      -1.114  -2.239   6.326  0.00  0.00    +0.046 A 
ATOM     11  C   UNL     1      -0.999  -1.654   7.580  0.00  0.00    +0.024 A 
ATOM     12  C   UNL     1      -1.917  -0.708   7.989  0.00  0.00    +0.002 A 
ATOM     13  C   UNL     1      -2.957  -0.334   7.154  0.00  0.00    +0.001 A 
ATOM     14  C   UNL     1      -3.084  -0.900   5.904  0.00  0.00    +0.015 A 
ATOM     15  C   UNL     1      -2.166  -1.863   5.478  0.00  0.00    +0.058 A 
BRANCH  10  18
ATOM     16  C   UNL     1       0.375  -4.021   6.813  0.00  0.00    +0.241 C 
ATOM     17  O   UNL     1       0.129  -3.889   7.998  0.00  0.00    -0.270 OA
ATOM     18  N   UNL     1      -0.189  -3.193   5.912  0.00  0.00    -0.281 N 
ATOM     19  H   UNL     1       0.049  -3.262   4.974  0.00  0.00    +0.155 HD
BRANCH  16  21
ATOM     20  C   UNL     1       1.848  -5.906   7.270  0.00  0.00    +0.013 C 
ATOM     21  C   UNL     1       1.284  -5.078   6.368  0.00  0.00    +0.068 C 
BRANCH  20  25
ATOM     22  C   UNL     1       4.482  -8.971   5.979  0.00  0.00    +0.000 A 
ATOM     23  C   UNL     1       4.205  -8.824   7.327  0.00  0.00    +0.001 A 
ATOM     24  C   UNL     1       3.350  -7.830   7.755  0.00  0.00    +0.008 A 
ATOM     25  C   UNL     1       2.762  -6.970   6.822  0.00  0.00    -0.025 A 
ATOM     26  C   UNL     1       3.043  -7.128   5.462  0.00  0.00    +0.008 A 
ATOM     27  C   UNL     1       3.905  -8.123   5.050  0.00  0.00    +0.001 A 
ENDBRANCH  20  25
ENDBRANCH  16  21
ENDBRANCH  10  18
ENDBRANCH   1  15
BRANCH   8  28
ATOM     28  C   UNL     1      -0.758   0.559  -0.082  0.00  0.00    -0.007 C 
BRANCH  28  29
ATOM     29  C   UNL     1      -1.003   2.044  -0.000  0.00  0.00    -0.057 A 
ATOM     30  C   UNL     1      -2.290   2.526   0.146  0.00  0.00    +0.002 A 
ATOM     31  C   UNL     1      -2.514   3.887   0.226  0.00  0.00    +0.000 A 
ATOM     32  C   UNL     1      -1.451   4.768   0.149  0.00  0.00    +0.000 A 
ATOM     33  C   UNL     1      -0.164   4.287  -0.003  0.00  0.00    +0.000 A 
ATOM     34  C   UNL     1       0.060   2.925  -0.077  0.00  0.00    +0.002 A 
ENDBRANCH  28  29
BRANCH  28  35
ATOM     35  C   UNL     1      -1.064   0.076  -1.476  0.00  0.00    -0.057 A 
ATOM     36  C   UNL     1      -2.372  -0.159  -1.855  0.00  0.00    +0.002 A 
ATOM     37  C   UNL     1      -2.653  -0.597  -3.136  0.00  0.00    +0.000 A 
ATOM     38  C   UNL     1      -1.624  -0.811  -4.034  0.00  0.00    +0.000 A 
ATOM     39  C   UNL     1      -0.315  -0.582  -3.654  0.00  0.00    +0.000 A 
ATOM     40  C   UNL     1      -0.035  -0.138  -2.375  0.00  0.00    +0.002 A 
ENDBRANCH  28  35
ENDBRANCH   8  28
TORSDOF 7
