REMARK  Name = ZINC39411949
REMARK  7 active torsions:
REMARK  status: ('A' for Active; 'I' for Inactive)
REMARK    1  A    between atoms: C_4  and  C_7
REMARK    2  A    between atoms: C_7  and  C_9
REMARK    3  A    between atoms: C_14  and  C_19
REMARK    4  A    between atoms: C_22  and  N_25
REMARK    5  A    between atoms: N_25  and  S_26
REMARK    6  A    between atoms: S_26  and  C_29
REMARK    7  A    between atoms: C_32  and  N_35
REMARK                            x       y       z     vdW  Elec       q    Type
REMARK                         _______ _______ _______ _____ _____    ______ ____
ROOT
ATOM      1  C   UNL     1       3.778  -2.156   0.049  0.00  0.00    +0.024 A 
ATOM      2  C   UNL     1       2.546  -2.940   0.043  0.00  0.00    +0.014 A 
ATOM      3  C   UNL     1       2.557  -4.283   0.119  0.00  0.00    +0.028 A 
ATOM      4  C   UNL     1       3.834  -5.003   0.211  0.00  0.00    +0.060 A 
ATOM      5  N   UNL     1       4.120  -6.272   0.295  0.00  0.00    -0.360 N 
ATOM      6  C   UNL     1       5.582  -6.391   0.360  0.00  0.00    +0.206 C 
ATOM      7  N   UNL     1       6.111  -5.023   0.304  0.00  0.00    -0.360 N 
ATOM      8  C   UNL     1       5.095  -4.213   0.217  0.00  0.00    +0.061 A 
ATOM      9  C   UNL     1       5.002  -2.749   0.126  0.00  0.00    +0.039 A 
ATOM     10  H   UNL     1       7.047  -4.768   0.327  0.00  0.00    +0.162 HD
ATOM     11  H   UNL     1       3.484  -7.004   0.311  0.00  0.00    +0.162 HD
ENDROOT
BRANCH   6  12
ATOM     12  C   UNL     1       6.089  -7.191  -0.812  0.00  0.00    -0.005 A 
ATOM     13  C   UNL     1       7.339  -6.926  -1.340  0.00  0.00    +0.009 A 
ATOM     14  C   UNL     1       7.806  -7.657  -2.414  0.00  0.00    +0.027 A 
ATOM     15  C   UNL     1       7.019  -8.661  -2.964  0.00  0.00    +0.074 A 
ATOM     16  C   UNL     1       5.764  -8.925  -2.431  0.00  0.00    +0.027 A 
ATOM     17  C   UNL     1       5.305  -8.194  -1.353  0.00  0.00    +0.009 A 
BRANCH  15  18
ATOM     18  N   UNL     1       7.488  -9.403  -4.050  0.00  0.00    -0.098 NA
BRANCH  18  19
ATOM     19  S   UNL     1       6.548 -10.599  -4.704  0.00  0.00    +0.092 S 
ATOM     20  O   UNL     1       6.430 -11.610  -3.713  0.00  0.00    -0.148 OA
ATOM     21  O   UNL     1       5.417  -9.959  -5.278  0.00  0.00    -0.148 OA
BRANCH  19  22
ATOM     22  C   UNL     1       7.457 -11.306  -6.038  0.00  0.00    +0.110 A 
ATOM     23  C   UNL     1       7.332 -10.785  -7.313  0.00  0.00    +0.031 A 
ATOM     24  C   UNL     1       8.045 -11.339  -8.359  0.00  0.00    +0.034 A 
ATOM     25  C   UNL     1       8.884 -12.414  -8.131  0.00  0.00    +0.126 A 
ATOM     26  C   UNL     1       9.011 -12.934  -6.856  0.00  0.00    +0.034 A 
ATOM     27  C   UNL     1       8.301 -12.377  -5.809  0.00  0.00    +0.031 A 
BRANCH  25  28
ATOM     28  N   UNL     1       9.647 -13.008  -9.252  0.00  0.00    +0.056 N 
ATOM     29  O   UNL     1       9.536 -12.553 -10.367  0.00  0.00    -0.126 OA
ATOM     30  O   UNL     1      10.382 -13.947  -9.052  0.00  0.00    -0.126 OA
ENDBRANCH  25  28
ENDBRANCH  19  22
ENDBRANCH  18  19
ENDBRANCH  15  18
ENDBRANCH   6  12
BRANCH   1  31
ATOM     31  C   UNL     1       3.695  -0.683  -0.038  0.00  0.00    +0.193 C 
ATOM     32  O   UNL     1       4.548  -0.061  -0.641  0.00  0.00    -0.287 OA
BRANCH  31  36
ATOM     33  C   UNL     1       0.479   1.376   1.820  0.00  0.00    +0.000 A 
ATOM     34  C   UNL     1       0.644   0.019   2.035  0.00  0.00    +0.001 A 
ATOM     35  C   UNL     1       1.686  -0.656   1.435  0.00  0.00    +0.012 A 
ATOM     36  C   UNL     1       2.576   0.033   0.608  0.00  0.00    +0.022 A 
ATOM     37  C   UNL     1       2.404   1.403   0.395  0.00  0.00    +0.012 A 
ATOM     38  C   UNL     1       1.358   2.065   1.003  0.00  0.00    +0.001 A 
ENDBRANCH  31  36
ENDBRANCH   1  31
TORSDOF 7
