REMARK  Name = ZINC01830343
REMARK  7 active torsions:
REMARK  status: ('A' for Active; 'I' for Inactive)
REMARK    1  A    between atoms: C_1  and  C_2
REMARK    2  A    between atoms: C_2  and  N_3
REMARK    3  A    between atoms: C_12  and  S_13
REMARK    4  A    between atoms: S_13  and  C_14
REMARK    5  A    between atoms: C_14  and  C_15
REMARK    6  A    between atoms: N_17  and  C_18
REMARK    7  A    between atoms: C_21  and  C_25
REMARK                            x       y       z     vdW  Elec       q    Type
REMARK                         _______ _______ _______ _____ _____    ______ ____
ROOT
ATOM      1  N   UNL     1       3.395   1.790  -3.917  0.00  0.00    -0.288 N 
ATOM      2  C   UNL     1       2.699   1.414  -5.006  0.00  0.00    +0.263 A 
ATOM      3  O   UNL     1       2.175   2.248  -5.724  0.00  0.00    -0.267 OA
ATOM      4  C   UNL     1       2.581   0.020  -5.309  0.00  0.00    +0.076 A 
ATOM      5  C   UNL     1       1.878  -0.609  -6.428  0.00  0.00    -0.023 A 
ATOM      6  C   UNL     1       1.914  -1.955  -6.495  0.00  0.00    -0.004 A 
ATOM      7  S   UNL     1       2.873  -2.460  -5.092  0.00  0.00    -0.073 S 
ATOM      8  C   UNL     1       3.223  -0.856  -4.417  0.00  0.00    +0.117 A 
ATOM      9  N   UNL     1       3.895  -0.420  -3.359  0.00  0.00    -0.216 NA
ATOM     10  C   UNL     1       3.992   0.870  -3.106  0.00  0.00    +0.173 A 
ATOM     11  C   UNL     1       1.278  -2.830  -7.532  0.00  0.00    +0.043 C 
ATOM     12  C   UNL     1       0.257  -1.992  -8.314  0.00  0.00    +0.005 C 
ATOM     13  C   UNL     1       0.916  -0.670  -8.719  0.00  0.00    +0.005 C 
ATOM     14  C   UNL     1       1.131   0.204  -7.482  0.00  0.00    +0.037 C 
ENDROOT
BRANCH   1  16
ATOM     15  C   UNL     1       4.760   3.785  -4.290  0.00  0.00    +0.027 C 
ATOM     16  C   UNL     1       3.518   3.215  -3.601  0.00  0.00    +0.124 C 
ENDBRANCH   1  16
BRANCH  10  17
ATOM     17  S   UNL     1       4.899   1.413  -1.696  0.00  0.00    -0.078 S 
BRANCH  17  18
ATOM     18  C   UNL     1       5.497  -0.123  -0.940  0.00  0.00    +0.173 C 
BRANCH  18  19
ATOM     19  C   UNL     1       6.299   0.203   0.294  0.00  0.00    +0.228 C 
ATOM     20  O   UNL     1       6.452   1.358   0.630  0.00  0.00    -0.275 OA
ATOM     21  N   UNL     1       6.846  -0.789   1.024  0.00  0.00    -0.283 N 
ATOM     22  H   UNL     1       6.664  -1.715   0.798  0.00  0.00    +0.155 HD
BRANCH  21  23
ATOM     23  C   UNL     1       7.678  -0.484   2.108  0.00  0.00    +0.062 A 
ATOM     24  C   UNL     1       7.139  -0.346   3.381  0.00  0.00    +0.040 A 
ATOM     25  C   UNL     1       7.963  -0.045   4.449  0.00  0.00    +0.020 A 
ATOM     26  C   UNL     1       9.322   0.119   4.251  0.00  0.00    -0.048 A 
ATOM     27  C   UNL     1       9.861  -0.018   2.985  0.00  0.00    +0.020 A 
ATOM     28  C   UNL     1       9.044  -0.325   1.914  0.00  0.00    +0.040 A 
ATOM     29 BR   UNL     1       9.784  -0.519   0.184  0.00  0.00    -0.048 Br
ATOM     30  C   UNL     1      10.217   0.447   5.418  0.00  0.00    +0.044 C 
ATOM     31 BR   UNL     1       5.281  -0.569   3.652  0.00  0.00    -0.048 Br
ENDBRANCH  21  23
ENDBRANCH  18  19
ENDBRANCH  17  18
ENDBRANCH  10  17
TORSDOF 5
