REMARK  Name = ZINC42595698
REMARK  4 active torsions:
REMARK  status: ('A' for Active; 'I' for Inactive)
REMARK    1  A    between atoms: C_1  and  C_2
REMARK    2  A    between atoms: C_2  and  C_4
REMARK    3  A    between atoms: C_2  and  N_10
REMARK    4  A    between atoms: N_13  and  N_14
REMARK                            x       y       z     vdW  Elec       q    Type
REMARK                         _______ _______ _______ _____ _____    ______ ____
ROOT
ATOM      1  N   UNL     1       0.711  -0.489   1.189  0.00  0.00    -0.291 N 
ATOM      2  C   UNL     1       2.054  -0.600   1.174  0.00  0.00    +0.314 C 
ATOM      3  O   UNL     1       2.677  -0.297   0.175  0.00  0.00    -0.252 OA
ATOM      4  N   UNL     1       2.706  -1.046   2.266  0.00  0.00    -0.237 N 
ATOM      5  H   UNL     1       0.213  -0.731   1.986  0.00  0.00    +0.151 HD
ATOM      6  H   UNL     1       3.672  -1.126   2.255  0.00  0.00    +0.170 HD
ENDROOT
BRANCH   4   7
ATOM      7  N   UNL     1       2.005  -1.387   3.388  0.00  0.00    -0.253 NA
ATOM      8  H   UNL     1       1.307  -2.085   3.180  0.00  0.00    +0.141 HD
ATOM      9  H   UNL     1       2.624  -1.702   4.119  0.00  0.00    +0.141 HD
ENDBRANCH   4   7
BRANCH   1  11
ATOM     10  C   UNL     1      -0.019   1.526   0.010  0.00  0.00    +0.033 C 
ATOM     11  C   UNL     1       0.002  -0.004   0.002  0.00  0.00    +0.108 C 
BRANCH  11  12
ATOM     12  C   UNL     1      -1.412  -0.526   0.013  0.00  0.00    +0.011 A 
ATOM     13  C   UNL     1      -2.157  -0.992  -1.019  0.00  0.00    +0.014 A 
ATOM     14  C   UNL     1      -3.447  -1.424  -0.772  0.00  0.00    +0.028 A 
ATOM     15  C   UNL     1      -3.928  -1.369   0.495  0.00  0.00    +0.078 A 
ATOM     16  S   UNL     1      -2.536  -0.697   1.389  0.00  0.00    -0.080 S 
ATOM     17 CL   UNL     1      -5.489  -1.836   1.093  0.00  0.00    -0.076 Cl
ENDBRANCH  11  12
ENDBRANCH   1  11
TORSDOF 3
