REMARK  Name = ZINC36266206
REMARK  3 active torsions:
REMARK  status: ('A' for Active; 'I' for Inactive)
REMARK    1  A    between atoms: C_1  and  C_2
REMARK    2  A    between atoms: N_12  and  S_13
REMARK    3  A    between atoms: S_13  and  C_16
REMARK                            x       y       z     vdW  Elec       q    Type
REMARK                         _______ _______ _______ _____ _____    ______ ____
ROOT
ATOM      1  C   UNL     1       0.213   1.747  -0.082  0.00  0.00    +0.026 C 
ATOM      2  C   UNL     1       0.126   0.221  -0.148  0.00  0.00    +0.077 C 
ATOM      3  C   UNL     1      -1.369  -0.234  -0.074  0.00  0.00    +0.023 C 
ATOM      4  C   UNL     1      -1.478  -0.552   1.381  0.00  0.00    -0.010 C 
ATOM      5  C   UNL     1      -2.409  -1.463   2.109  0.00  0.00    -0.078 C 
ATOM      6  N   UNL     1      -1.654  -1.735   3.378  0.00  0.00    +0.380 N 
ATOM      7  C   UNL     1      -0.203  -1.519   3.103  0.00  0.00    -0.062 C 
ATOM      8  C   UNL     1      -0.128  -1.353   1.583  0.00  0.00    +0.065 C 
ATOM      9  N   UNL     1       0.812  -0.382   1.029  0.00  0.00    -0.172 NA
ATOM     10  H   UNL     1      -1.963  -1.102   4.101  0.00  0.00    -0.086 HD
ATOM     11  H   UNL     1      -1.809  -2.688   3.670  0.00  0.00    -0.086 HD
ENDROOT
BRANCH   9  12
ATOM     12  S   UNL     1       2.327  -0.024   1.593  0.00  0.00    +0.063 S 
ATOM     13  O   UNL     1       2.560   1.345   1.291  0.00  0.00    -0.153 OA
ATOM     14  O   UNL     1       2.399  -0.534   2.918  0.00  0.00    -0.153 OA
BRANCH  12  15
ATOM     15  C   UNL     1       3.474  -0.953   0.632  0.00  0.00    +0.124 A 
ATOM     16  C   UNL     1       4.362  -0.303  -0.204  0.00  0.00    +0.031 A 
ATOM     17  C   UNL     1       5.262  -1.031  -0.958  0.00  0.00    +0.017 A 
ATOM     18  C   UNL     1       5.276  -2.413  -0.876  0.00  0.00    +0.019 A 
ATOM     19  C   UNL     1       4.388  -3.064  -0.039  0.00  0.00    +0.037 A 
ATOM     20  C   UNL     1       3.491  -2.334   0.719  0.00  0.00    +0.068 A 
ATOM     21 CL   UNL     1       2.380  -3.150   1.775  0.00  0.00    -0.081 Cl
ATOM     22 BR   UNL     1       6.507  -3.409  -1.909  0.00  0.00    -0.050 Br
ENDBRANCH  12  15
ENDBRANCH   9  12
TORSDOF 2
