REMARK  Name = ZINC03772865
REMARK  11 active torsions:
REMARK  status: ('A' for Active; 'I' for Inactive)
REMARK    1  A    between atoms: C_1  and  N_2
REMARK    2  A    between atoms: N_2  and  C_3
REMARK    3  A    between atoms: N_2  and  C_4
REMARK    4  A    between atoms: C_7  and  N_10
REMARK    5  A    between atoms: C_11  and  C_13
REMARK    6  A    between atoms: C_13  and  C_15
REMARK    7  A    between atoms: C_13  and  N_21
REMARK    8  A    between atoms: N_21  and  C_22
REMARK    9  A    between atoms: C_22  and  C_23
REMARK   10  A    between atoms: C_29  and  C_31
REMARK   11  A    between atoms: C_31  and  N_32
REMARK                            x       y       z     vdW  Elec       q    Type
REMARK                         _______ _______ _______ _____ _____    ______ ____
ROOT
ATOM      1  C   UNL     1      -0.408  -3.305  -8.164  0.00  0.00    +0.193 C 
ENDROOT
BRANCH   1   2
ATOM      2  C   UNL     1      -0.363  -4.453  -9.139  0.00  0.00    -0.018 A 
ATOM      3  C   UNL     1       0.498  -4.408 -10.220  0.00  0.00    +0.006 A 
ATOM      4  C   UNL     1       0.540  -5.461 -11.114  0.00  0.00    +0.000 A 
ATOM      5  C   UNL     1      -0.278  -6.560 -10.927  0.00  0.00    +0.000 A 
ATOM      6  C   UNL     1      -1.138  -6.605  -9.846  0.00  0.00    +0.000 A 
ATOM      7  C   UNL     1      -1.177  -5.554  -8.949  0.00  0.00    +0.006 A 
ENDBRANCH   1   2
BRANCH   1   9
ATOM      8  N   UNL     1       0.587  -4.827  -6.487  0.00  0.00    -0.284 N 
ATOM      9  C   UNL     1       0.521  -3.587  -7.011  0.00  0.00    +0.242 C 
ATOM     10  O   UNL     1       1.210  -2.699  -6.556  0.00  0.00    -0.273 OA
ATOM     11  H   UNL     1       0.086  -5.552  -6.892  0.00  0.00    +0.155 HD
BRANCH   8  15
ATOM     12  C   UNL     1       2.945  -5.545  -3.123  0.00  0.00    +0.029 A 
ATOM     13  C   UNL     1       2.380  -4.292  -3.320  0.00  0.00    +0.025 A 
ATOM     14  C   UNL     1       1.600  -4.054  -4.434  0.00  0.00    +0.025 A 
ATOM     15  C   UNL     1       1.380  -5.068  -5.356  0.00  0.00    +0.034 A 
ATOM     16  C   UNL     1       1.944  -6.321  -5.159  0.00  0.00    +0.025 A 
ATOM     17  C   UNL     1       2.730  -6.558  -4.049  0.00  0.00    +0.025 A 
BRANCH  12  19
ATOM     18  C   UNL     1       4.337  -7.106  -1.789  0.00  0.00    +0.129 C 
ATOM     19  N   UNL     1       3.736  -5.786  -1.994  0.00  0.00    -0.336 N 
ATOM     20  C   UNL     1       3.963  -4.718  -1.017  0.00  0.00    +0.129 C 
ENDBRANCH  12  19
ENDBRANCH   8  15
ENDBRANCH   1   9
BRANCH   1  21
ATOM     21  N   UNL     1       0.010  -2.074  -8.839  0.00  0.00    -0.280 N 
ATOM     22  C   UNL     1      -0.880  -1.085  -9.049  0.00  0.00    +0.238 C 
ATOM     23  O   UNL     1      -2.003  -1.173  -8.599  0.00  0.00    -0.274 OA
BRANCH  21  24
ATOM     24  C   UNL     1       1.397  -1.919  -9.285  0.00  0.00    +0.144 C 
BRANCH  24  25
ATOM     25  C   UNL     1       2.071  -0.848  -8.468  0.00  0.00    -0.030 A 
ATOM     26  C   UNL     1       1.945   0.480  -8.830  0.00  0.00    +0.005 A 
ATOM     27  C   UNL     1       2.564   1.463  -8.080  0.00  0.00    +0.000 A 
ATOM     28  C   UNL     1       3.308   1.118  -6.967  0.00  0.00    +0.000 A 
ATOM     29  C   UNL     1       3.433  -0.210  -6.604  0.00  0.00    +0.000 A 
ATOM     30  C   UNL     1       2.811  -1.193  -7.352  0.00  0.00    +0.005 A 
ENDBRANCH  24  25
ENDBRANCH  21  24
BRANCH  22  31
ATOM     31  C   UNL     1      -0.481   0.132  -9.843  0.00  0.00    +0.241 C 
BRANCH  31  32
ATOM     32  N   UNL     1      -1.666   0.708 -10.484  0.00  0.00    -0.235 N 
ATOM     33  C   UNL     1      -2.164   0.394 -11.726  0.00  0.00    +0.090 A 
ATOM     34  C   UNL     1      -1.774  -0.488 -12.728  0.00  0.00    +0.029 A 
ATOM     35  C   UNL     1      -2.502  -0.569 -13.883  0.00  0.00    +0.002 A 
ATOM     36  C   UNL     1      -3.628   0.223 -14.065  0.00  0.00    +0.002 A 
ATOM     37  C   UNL     1      -4.031   1.095 -13.097  0.00  0.00    +0.032 A 
ATOM     38  C   UNL     1      -3.303   1.197 -11.904  0.00  0.00    +0.113 A 
ATOM     39  N   UNL     1      -3.451   1.949 -10.795  0.00  0.00    -0.129 NA
ATOM     40  N   UNL     1      -2.520   1.684  -9.948  0.00  0.00    -0.064 NA
ENDBRANCH  31  32
ENDBRANCH  22  31
ENDBRANCH   1  21
TORSDOF 9
