REMARK  Name = ZINC38742987
REMARK  3 active torsions:
REMARK  status: ('A' for Active; 'I' for Inactive)
REMARK    1  A    between atoms: C_4  and  C_7
REMARK    2  A    between atoms: C_9  and  C_13
REMARK    3  A    between atoms: C_19  and  C_22
REMARK                            x       y       z     vdW  Elec       q    Type
REMARK                         _______ _______ _______ _____ _____    ______ ____
ROOT
ATOM      1  C   UNL     1       5.775  -3.000   1.163  0.00  0.00    +0.181 A 
ATOM      2  N   UNL     1       5.865  -2.517   2.366  0.00  0.00    -0.129 NA
ATOM      3  N   UNL     1       6.283  -3.425   3.177  0.00  0.00    -0.121 NA
ATOM      4  C   UNL     1       6.493  -4.524   2.522  0.00  0.00    +0.211 A 
ATOM      5  N   UNL     1       6.148  -4.332   1.208  0.00  0.00    -0.222 N 
ATOM      6  N   UNL     1       6.222  -5.381   0.341  0.00  0.00    -0.263 N 
ATOM      7  C   UNL     1       7.123  -6.485   0.766  0.00  0.00    +0.183 C 
ATOM      8  S   UNL     1       7.047  -6.214   2.589  0.00  0.00    -0.056 S 
ATOM      9  H   UNL     1       5.303  -5.730   0.117  0.00  0.00    +0.168 HD
ENDROOT
BRANCH   7  10
ATOM     10  C   UNL     1       6.572  -7.832   0.375  0.00  0.00    -0.008 A 
ATOM     11  C   UNL     1       5.568  -7.921  -0.539  0.00  0.00    +0.007 A 
ATOM     12  C   UNL     1       5.046  -9.158  -0.913  0.00  0.00    +0.001 A 
ATOM     13  C   UNL     1       5.525 -10.313  -0.375  0.00  0.00    +0.008 A 
ATOM     14  C   UNL     1       6.561 -10.260   0.573  0.00  0.00    -0.018 A 
ATOM     15  C   UNL     1       7.097  -9.003   0.949  0.00  0.00    -0.012 A 
ATOM     16  C   UNL     1       8.137  -8.951   1.892  0.00  0.00    +0.009 A 
ATOM     17  C   UNL     1       8.620 -10.106   2.426  0.00  0.00    +0.001 A 
ATOM     18  C   UNL     1       8.098 -11.343   2.051  0.00  0.00    +0.001 A 
ATOM     19  C   UNL     1       7.081 -11.431   1.151  0.00  0.00    +0.008 A 
ENDBRANCH   7  10
BRANCH   1  22
ATOM     20  C   UNL     1       3.699  -0.689  -0.037  0.00  0.00    +0.091 C 
ATOM     21  C   UNL     1       3.832  -2.029  -0.051  0.00  0.00    +0.039 C 
ATOM     22  C   UNL     1       5.335  -2.245  -0.065  0.00  0.00    +0.222 C 
ATOM     23  N   UNL     1       5.871  -0.874  -0.056  0.00  0.00    -0.171 NA
ATOM     24  N   UNL     1       4.919  -0.090  -0.047  0.00  0.00    -0.153 NA
BRANCH  20  28
ATOM     25  C   UNL     1      -0.017   1.379   0.010  0.00  0.00    +0.000 A 
ATOM     26  C   UNL     1       1.169   2.092   0.002  0.00  0.00    +0.001 A 
ATOM     27  C   UNL     1       2.377   1.426  -0.013  0.00  0.00    +0.010 A 
ATOM     28  C   UNL     1       2.402   0.033  -0.021  0.00  0.00    +0.002 A 
ATOM     29  C   UNL     1       1.205  -0.680  -0.013  0.00  0.00    +0.010 A 
ATOM     30  C   UNL     1       0.002  -0.004   0.002  0.00  0.00    +0.001 A 
ENDBRANCH  20  28
ENDBRANCH   1  22
TORSDOF 3
