REMARK  Name = ZINC21080525
REMARK  8 active torsions:
REMARK  status: ('A' for Active; 'I' for Inactive)
REMARK    1  A    between atoms: C_3  and  N_13
REMARK    2  A    between atoms: C_5  and  N_7
REMARK    3  A    between atoms: C_14  and  C_16
REMARK    4  A    between atoms: C_16  and  S_17
REMARK    5  A    between atoms: S_17  and  C_18
REMARK    6  A    between atoms: N_23  and  N_24
REMARK    7  A    between atoms: C_25  and  C_26
REMARK    8  A    between atoms: C_31  and  O_32
REMARK                            x       y       z     vdW  Elec       q    Type
REMARK                         _______ _______ _______ _____ _____    ______ ____
ROOT
ATOM      1  C   UNL     1      -5.166   1.115  -0.114  0.00  0.00    +0.211 A 
ATOM      2  N   UNL     1      -6.476   1.497  -0.174  0.00  0.00    -0.186 NA
ATOM      3  C   UNL     1      -7.249   0.375  -0.063  0.00  0.00    +0.232 A 
ATOM      4  N   UNL     1      -6.450  -0.657   0.061  0.00  0.00    -0.245 N 
ATOM      5  N   UNL     1      -5.130  -0.189   0.024  0.00  0.00    -0.144 NA
ATOM      6  N   UNL     1      -8.636   0.335  -0.078  0.00  0.00    -0.205 N 
ATOM      7  H   UNL     1      -9.212   1.266  -0.188  0.00  0.00    +0.177 HD
ATOM      8  H   UNL     1      -6.870  -1.668   0.169  0.00  0.00    +0.192 HD
ENDROOT
BRANCH   6   9
ATOM      9  N   UNL     1      -9.303  -0.891   0.046  0.00  0.00    -0.187 NA
ATOM     10  C   UNL     1     -10.601  -0.928   0.032  0.00  0.00    +0.142 C 
BRANCH  10  11
ATOM     11  C   UNL     1     -11.303  -2.217   0.162  0.00  0.00    +0.037 A 
ATOM     12  C   UNL     1     -12.699  -2.262   0.147  0.00  0.00    +0.033 A 
ATOM     13  C   UNL     1     -13.349  -3.473   0.269  0.00  0.00    +0.042 A 
ATOM     14  C   UNL     1     -12.623  -4.645   0.406  0.00  0.00    +0.023 A 
ATOM     15  C   UNL     1     -11.241  -4.612   0.422  0.00  0.00    +0.047 A 
ATOM     16  C   UNL     1     -10.573  -3.406   0.296  0.00  0.00    +0.126 A 
ATOM     17 CL   UNL     1     -15.084  -3.528   0.252  0.00  0.00    -0.084 Cl
BRANCH  16  18
ATOM     18  O   UNL     1      -9.214  -3.375   0.306  0.00  0.00    -0.506 OA
ATOM     19  H   UNL     1      -8.644  -4.309   0.411  0.00  0.00    +0.292 HD
ENDBRANCH  16  18
ENDBRANCH  10  11
ENDBRANCH   6   9
BRANCH   1  20
ATOM     20  S   UNL     1      -3.770   2.185  -0.211  0.00  0.00    -0.075 S 
BRANCH  20  21
ATOM     21  C   UNL     1      -2.349   1.067  -0.068  0.00  0.00    +0.173 C 
BRANCH  21  23
ATOM     22  N   UNL     1       0.119   1.240  -0.051  0.00  0.00    -0.285 N 
ATOM     23  C   UNL     1      -1.072   1.865  -0.137  0.00  0.00    +0.227 C 
ATOM     24  O   UNL     1      -1.117   3.070  -0.270  0.00  0.00    -0.275 OA
ATOM     25  H   UNL     1       0.161   0.142  -0.001  0.00  0.00    +0.155 HD
BRANCH  22  28
ATOM     26  C   UNL     1       2.566   3.898  -0.744  0.00  0.00    +0.004 A 
ATOM     27  C   UNL     1       1.400   3.156  -0.771  0.00  0.00    +0.023 A 
ATOM     28  C   UNL     1       1.301   1.988  -0.027  0.00  0.00    +0.035 A 
ATOM     29  C   UNL     1       2.378   1.560   0.736  0.00  0.00    +0.046 A 
ATOM     30  C   UNL     1       3.548   2.304   0.758  0.00  0.00    +0.038 A 
ATOM     31  C   UNL     1       3.639   3.475   0.016  0.00  0.00    +0.023 A 
BRANCH  30  32
ATOM     32  N   UNL     1       4.637   1.875   1.526  0.00  0.00    -0.271 N 
ATOM     33  C   UNL     1       5.875   2.643   1.709  0.00  0.00    +0.114 C 
ATOM     34  C   UNL     1       6.914   1.628   2.235  0.00  0.00    +0.029 C 
ATOM     35  C   UNL     1       6.010   0.568   2.905  0.00  0.00    +0.098 C 
ATOM     36  C   UNL     1       4.681   0.711   2.196  0.00  0.00    +0.220 C 
ATOM     37  O   UNL     1       3.786  -0.107   2.226  0.00  0.00    -0.275 OA
ENDBRANCH  30  32
ENDBRANCH  22  28
ENDBRANCH  21  23
ENDBRANCH  20  21
ENDBRANCH   1  20
TORSDOF 8
