REMARK  Name = ZINC14092646
REMARK  7 active torsions:
REMARK  status: ('A' for Active; 'I' for Inactive)
REMARK    1  A    between atoms: C_1  and  O_2
REMARK    2  A    between atoms: O_2  and  C_3
REMARK    3  A    between atoms: C_6  and  C_9
REMARK    4  A    between atoms: C_9  and  C_32
REMARK    5  A    between atoms: N_17  and  C_18
REMARK    6  A    between atoms: C_23  and  O_24
REMARK    7  A    between atoms: O_24  and  C_25
REMARK                            x       y       z     vdW  Elec       q    Type
REMARK                         _______ _______ _______ _____ _____    ______ ____
ROOT
ATOM      1  C   UNL     1       1.756  -2.505  -4.314  0.00  0.00    +0.232 C 
ATOM      2  N   UNL     1       1.090  -1.825  -5.438  0.00  0.00    -0.265 N 
ATOM      3  C   UNL     1      -0.032  -2.383  -5.938  0.00  0.00    +0.327 C 
ATOM      4  O   UNL     1      -0.599  -1.837  -6.868  0.00  0.00    -0.251 OA
ATOM      5  N   UNL     1      -0.539  -3.512  -5.444  0.00  0.00    -0.147 NA
ATOM      6  C   UNL     1      -0.011  -4.186  -4.442  0.00  0.00    +0.131 C 
ATOM      7  N   UNL     1       1.134  -3.747  -3.826  0.00  0.00    -0.237 N 
ATOM      8  C   UNL     1       1.492  -4.613  -2.812  0.00  0.00    +0.137 C 
ATOM      9  N   UNL     1       2.534  -4.488  -2.027  0.00  0.00    -0.228 NA
ATOM     10  C   UNL     1       0.501  -5.702  -2.765  0.00  0.00    +0.026 A 
ATOM     11  C   UNL     1      -0.438  -5.434  -3.782  0.00  0.00    +0.023 A 
ATOM     12  C   UNL     1      -1.506  -6.303  -3.981  0.00  0.00    +0.012 A 
ATOM     13  C   UNL     1      -1.639  -7.420  -3.178  0.00  0.00    +0.001 A 
ATOM     14  C   UNL     1      -0.718  -7.682  -2.178  0.00  0.00    +0.001 A 
ATOM     15  C   UNL     1       0.351  -6.831  -1.967  0.00  0.00    +0.012 A 
ATOM     16  H   UNL     1       1.447  -1.002  -5.808  0.00  0.00    +0.153 HD
ENDROOT
BRANCH   1  20
ATOM     17  C   UNL     1       1.958   0.240  -1.045  0.00  0.00    +0.120 A 
ATOM     18  C   UNL     1       1.747  -1.110  -0.806  0.00  0.00    +0.046 A 
ATOM     19  C   UNL     1       1.682  -1.995  -1.865  0.00  0.00    +0.011 A 
ATOM     20  C   UNL     1       1.827  -1.537  -3.161  0.00  0.00    +0.003 A 
ATOM     21  C   UNL     1       2.038  -0.191  -3.401  0.00  0.00    +0.011 A 
ATOM     22  C   UNL     1       2.097   0.699  -2.347  0.00  0.00    +0.046 A 
BRANCH  17  24
ATOM     23  C   UNL     1       1.870   0.571   1.308  0.00  0.00    +0.277 C 
ATOM     24  O   UNL     1       2.022   1.113  -0.005  0.00  0.00    -0.495 OA
ENDBRANCH  17  24
ENDBRANCH   1  20
BRANCH   9  25
ATOM     25  C   UNL     1       3.024  -3.248  -1.736  0.00  0.00    +0.107 A 
ATOM     26  C   UNL     1       3.072  -2.261  -2.725  0.00  0.00    +0.031 A 
ATOM     27  C   UNL     1       3.568  -1.011  -2.425  0.00  0.00    +0.002 A 
ATOM     28  C   UNL     1       4.020  -0.727  -1.146  0.00  0.00    +0.004 A 
ATOM     29  C   UNL     1       3.978  -1.694  -0.159  0.00  0.00    +0.048 A 
ATOM     30  C   UNL     1       3.477  -2.954  -0.441  0.00  0.00    +0.145 A 
BRANCH  30  31
ATOM     31  O   UNL     1       3.430  -3.903   0.530  0.00  0.00    -0.493 OA
ATOM     32  C   UNL     1       3.909  -3.531   1.824  0.00  0.00    +0.277 C 
ENDBRANCH  30  31
ENDBRANCH   9  25
BRANCH   1  33
ATOM     33  C   UNL     1       3.189  -2.830  -4.741  0.00  0.00    +0.432 C 
ATOM     34  F   UNL     1       3.750  -3.739  -3.837  0.00  0.00    -0.166 F 
ATOM     35  F   UNL     1       3.177  -3.393  -6.022  0.00  0.00    -0.166 F 
ATOM     36  F   UNL     1       3.950  -1.656  -4.755  0.00  0.00    -0.166 F 
ENDBRANCH   1  33
TORSDOF 5
