REMARK  Name = ZINC01569389
REMARK  8 active torsions:
REMARK  status: ('A' for Active; 'I' for Inactive)
REMARK    1  A    between atoms: C_4  and  C_7
REMARK    2  A    between atoms: C_7  and  C_9
REMARK    3  A    between atoms: C_7  and  N_59
REMARK    4  A    between atoms: C_9  and  C_10
REMARK    5  A    between atoms: C_10  and  O_12
REMARK    6  A    between atoms: O_12  and  C_13
REMARK    7  A    between atoms: C_13  and  C_15
REMARK    8  A    between atoms: C_13  and  C_21
REMARK                            x       y       z     vdW  Elec       q    Type
REMARK                         _______ _______ _______ _____ _____    ______ ____
ROOT
ATOM      1  C   UNL     1       1.444   3.533   0.265  0.00  0.00    +0.307 C 
ATOM      2  O   UNL     1       0.394   4.127   0.191  0.00  0.00    -0.251 OA
ENDROOT
BRANCH   1   3
ATOM      3  C   UNL     1       1.459   2.026   0.259  0.00  0.00    +0.110 C 
BRANCH   3   4
ATOM      4  C   UNL     1       0.023   1.501   0.322  0.00  0.00    -0.027 C 
BRANCH   4  10
ATOM      5  C   UNL     1       0.609  -0.346  -1.130  0.00  0.00    -0.078 C 
ATOM      6  C   UNL     1       0.731  -1.870  -1.200  0.00  0.00    -0.019 C 
ATOM      7  C   UNL     1      -0.656  -2.497  -1.035  0.00  0.00    -0.004 C 
ATOM      8  C   UNL     1      -1.258  -2.040   0.297  0.00  0.00    -0.019 C 
ATOM      9  C   UNL     1      -1.323  -0.511   0.324  0.00  0.00    -0.078 C 
ATOM     10  N   UNL     1       0.045   0.030   0.185  0.00  0.00    +0.385 N 
ATOM     11  H   UNL     1       0.637  -0.365   0.925  0.00  0.00    -0.081 HD
ENDBRANCH   4  10
BRANCH   4  15
ATOM     12  C   UNL     1      -1.701   2.515   4.096  0.00  0.00    +0.000 A 
ATOM     13  C   UNL     1      -1.990   3.275   2.978  0.00  0.00    +0.000 A 
ATOM     14  C   UNL     1      -1.432   2.946   1.756  0.00  0.00    +0.002 A 
ATOM     15  C   UNL     1      -0.585   1.859   1.653  0.00  0.00    -0.060 A 
ATOM     16  C   UNL     1      -0.300   1.097   2.771  0.00  0.00    +0.002 A 
ATOM     17  C   UNL     1      -0.854   1.427   3.993  0.00  0.00    +0.000 A 
ENDBRANCH   4  15
ENDBRANCH   3   4
ENDBRANCH   1   3
BRANCH   1  18
ATOM     18  O   UNL     1       2.597   4.215   0.352  0.00  0.00    -0.452 OA
BRANCH  18  19
ATOM     19  C   UNL     1       2.506   5.664   0.352  0.00  0.00    +0.237 C 
BRANCH  19  20
ATOM     20  C   UNL     1       3.648   6.239   1.150  0.00  0.00    -0.003 A 
ATOM     21  C   UNL     1       4.908   5.678   1.056  0.00  0.00    +0.008 A 
ATOM     22  C   UNL     1       5.957   6.208   1.784  0.00  0.00    +0.015 A 
ATOM     23  C   UNL     1       5.742   7.293   2.616  0.00  0.00    +0.018 A 
ATOM     24  C   UNL     1       4.480   7.850   2.713  0.00  0.00    +0.015 A 
ATOM     25  C   UNL     1       3.434   7.323   1.981  0.00  0.00    +0.008 A 
ATOM     26 BR   UNL     1       7.175   8.013   3.618  0.00  0.00    -0.050 Br
ENDBRANCH  19  20
BRANCH  19  27
ATOM     27  C   UNL     1       2.579   6.172  -1.065  0.00  0.00    -0.003 A 
ATOM     28  C   UNL     1       3.381   5.529  -1.990  0.00  0.00    +0.007 A 
ATOM     29  C   UNL     1       3.444   5.992  -3.291  0.00  0.00    +0.000 A 
ATOM     30  C   UNL     1       2.712   7.103  -3.665  0.00  0.00    +0.000 A 
ATOM     31  C   UNL     1       1.913   7.749  -2.740  0.00  0.00    +0.000 A 
ATOM     32  C   UNL     1       1.847   7.283  -1.440  0.00  0.00    +0.007 A 
ENDBRANCH  19  27
ENDBRANCH  18  19
ENDBRANCH   1  18
TORSDOF 8
