REMARK  Name = ZINC36001506
REMARK  11 active torsions:
REMARK  status: ('A' for Active; 'I' for Inactive)
REMARK    1  A    between atoms: C_1  and  C_2
REMARK    2  A    between atoms: C_2  and  N_3
REMARK    3  A    between atoms: C_4  and  C_22
REMARK    4  A    between atoms: C_5  and  C_17
REMARK    5  A    between atoms: C_6  and  C_11
REMARK    6  A    between atoms: C_17  and  O_19
REMARK    7  A    between atoms: O_19  and  C_20
REMARK    8  A    between atoms: C_20  and  C_21
REMARK    9  A    between atoms: C_22  and  N_23
REMARK   10  A    between atoms: C_27  and  C_30
REMARK   11  A    between atoms: C_31  and  C_33
REMARK                            x       y       z     vdW  Elec       q    Type
REMARK                         _______ _______ _______ _____ _____    ______ ____
ROOT
ATOM      1  N   UNL     1      -0.380   0.354  -3.196  0.00  0.00    -0.258 N 
ATOM      2  C   UNL     1      -1.358   0.216  -4.139  0.00  0.00    +0.041 C 
ATOM      3  C   UNL     1      -1.052  -0.034  -5.430  0.00  0.00    +0.080 C 
ATOM      4  C   UNL     1       0.413  -0.156  -5.796  0.00  0.00    +0.144 C 
ATOM      5  N   UNL     1       1.389   0.009  -4.706  0.00  0.00    -0.288 N 
ATOM      6  C   UNL     1       0.928   0.260  -3.465  0.00  0.00    +0.307 C 
ATOM      7  O   UNL     1       1.726   0.402  -2.559  0.00  0.00    -0.252 OA
ATOM      8  H   UNL     1       2.342  -0.058  -4.878  0.00  0.00    +0.151 HD
ENDROOT
BRANCH   4   9
ATOM      9  C   UNL     1       0.627  -1.516  -6.408  0.00  0.00    -0.022 A 
ATOM     10  C   UNL     1       0.748  -2.628  -5.596  0.00  0.00    +0.006 A 
ATOM     11  C   UNL     1       0.944  -3.876  -6.158  0.00  0.00    +0.000 A 
ATOM     12  C   UNL     1       1.019  -4.012  -7.531  0.00  0.00    +0.000 A 
ATOM     13  C   UNL     1       0.898  -2.900  -8.344  0.00  0.00    +0.000 A 
ATOM     14  C   UNL     1       0.697  -1.653  -7.782  0.00  0.00    +0.006 A 
ENDBRANCH   4   9
BRANCH   1  16
ATOM     15  C   UNL     1      -0.878   2.136  -1.597  0.00  0.00    +0.025 C 
ATOM     16  C   UNL     1      -0.784   0.624  -1.814  0.00  0.00    +0.111 C 
ENDBRANCH   1  16
BRANCH   3  17
ATOM     17  C   UNL     1      -2.064  -0.177  -6.407  0.00  0.00    +0.339 C 
ATOM     18  O   UNL     1      -2.434  -1.287  -6.742  0.00  0.00    -0.245 OA
BRANCH  17  19
ATOM     19  O   UNL     1      -2.621   0.917  -6.968  0.00  0.00    -0.462 OA
BRANCH  19  20
ATOM     20  C   UNL     1      -3.638   0.698  -7.948  0.00  0.00    +0.229 C 
ATOM     21  C   UNL     1      -4.145   2.045  -8.466  0.00  0.00    +0.048 C 
ENDBRANCH  19  20
ENDBRANCH  17  19
ENDBRANCH   3  17
BRANCH   2  22
ATOM     22  C   UNL     1      -2.804   0.346  -3.732  0.00  0.00    +0.136 C 
BRANCH  22  23
ATOM     23  N   UNL     1      -3.166  -0.774  -2.852  0.00  0.00    -0.294 NA
ATOM     24  C   UNL     1      -3.113  -2.051  -3.576  0.00  0.00    +0.104 C 
ATOM     25  C   UNL     1      -3.318  -3.204  -2.588  0.00  0.00    +0.124 C 
ATOM     26  N   UNL     1      -4.563  -2.963  -1.843  0.00  0.00    -0.292 N 
ATOM     27  C   UNL     1      -4.749  -1.652  -1.203  0.00  0.00    +0.087 C 
ATOM     28  C   UNL     1      -4.487  -0.560  -2.246  0.00  0.00    +0.107 C 
ATOM     29  C   UNL     1      -6.182  -1.534  -0.679  0.00  0.00    +0.029 C 
ATOM     30  C   UNL     1      -5.508  -3.920  -1.748  0.00  0.00    +0.248 C 
ATOM     31  O   UNL     1      -6.565  -3.678  -1.197  0.00  0.00    -0.270 OA
BRANCH  30  32
ATOM     32  C   UNL     1      -5.261  -5.262  -2.313  0.00  0.00    +0.055 A 
ATOM     33  C   UNL     1      -3.961  -5.768  -2.374  0.00  0.00    +0.014 A 
ATOM     34  C   UNL     1      -3.736  -7.022  -2.903  0.00  0.00    +0.001 A 
ATOM     35  C   UNL     1      -4.796  -7.779  -3.373  0.00  0.00    +0.001 A 
ATOM     36  C   UNL     1      -6.086  -7.285  -3.316  0.00  0.00    +0.021 A 
ATOM     37  C   UNL     1      -6.326  -6.033  -2.784  0.00  0.00    +0.053 A 
ATOM     38 CL   UNL     1      -7.947  -5.417  -2.706  0.00  0.00    -0.083 Cl
ENDBRANCH  30  32
ENDBRANCH  22  23
ENDBRANCH   2  22
TORSDOF 8
