REMARK  Name = ZINC02134785
REMARK  9 active torsions:
REMARK  status: ('A' for Active; 'I' for Inactive)
REMARK    1  A    between atoms: C_1  and  C_2
REMARK    2  A    between atoms: C_2  and  O_3
REMARK    3  A    between atoms: O_3  and  C_4
REMARK    4  A    between atoms: C_5  and  C_12
REMARK    5  A    between atoms: C_9  and  O_10
REMARK    6  A    between atoms: O_10  and  C_11
REMARK    7  A    between atoms: N_19  and  C_34
REMARK    8  A    between atoms: C_22  and  C_33
REMARK    9  A    between atoms: C_34  and  C_35
REMARK                            x       y       z     vdW  Elec       q    Type
REMARK                         _______ _______ _______ _____ _____    ______ ____
ROOT
ATOM      1  C   UNL     1       1.153   2.030   2.507  0.00  0.00    +0.072 C 
ATOM      2  C   UNL     1       0.904   3.309   3.315  0.00  0.00    +0.122 C 
ATOM      3  N   UNL     1       0.605   2.939   4.711  0.00  0.00    -0.280 N 
ATOM      4  C   UNL     1      -0.601   3.209   5.217  0.00  0.00    +0.234 C 
ATOM      5  O   UNL     1      -1.360   3.877   4.548  0.00  0.00    -0.274 OA
ATOM      6  C   UNL     1      -1.076   2.740   6.554  0.00  0.00    +0.204 C 
ATOM      7  N   UNL     1      -0.091   1.907   7.225  0.00  0.00    -0.286 N 
ATOM      8  C   UNL     1       1.138   1.693   6.755  0.00  0.00    +0.246 C 
ATOM      9  O   UNL     1       1.877   0.975   7.395  0.00  0.00    -0.273 OA
ATOM     10  C   UNL     1       1.659   2.286   5.488  0.00  0.00    +0.151 C 
ATOM     11  C   UNL     1       2.288   1.221   4.623  0.00  0.00    +0.054 A 
ATOM     12  C   UNL     1       2.058   1.117   3.295  0.00  0.00    -0.008 A 
ATOM     13  C   UNL     1       2.832  -0.012   2.820  0.00  0.00    +0.004 A 
ATOM     14  C   UNL     1       2.989  -0.588   1.555  0.00  0.00    +0.010 A 
ATOM     15  C   UNL     1       3.819  -1.678   1.469  0.00  0.00    +0.001 A 
ATOM     16  C   UNL     1       4.477  -2.192   2.575  0.00  0.00    +0.002 A 
ATOM     17  C   UNL     1       4.340  -1.641   3.837  0.00  0.00    +0.026 A 
ATOM     18  C   UNL     1       3.503  -0.533   3.955  0.00  0.00    +0.047 A 
ATOM     19  N   UNL     1       3.151   0.238   5.025  0.00  0.00    -0.356 N 
ATOM     20  H   UNL     1       3.466   0.109   5.934  0.00  0.00    +0.166 HD
ATOM     21  C   UNL     1       2.724   3.325   5.847  0.00  0.00    +0.048 C 
ENDROOT
BRANCH   1  23
ATOM     22  C   UNL     1       1.186   2.059   0.002  0.00  0.00    +0.166 A 
ATOM     23  C   UNL     1       1.809   2.381   1.197  0.00  0.00    +0.007 A 
ATOM     24  C   UNL     1       3.034   3.020   1.187  0.00  0.00    +0.008 A 
ATOM     25  C   UNL     1       3.636   3.349  -0.014  0.00  0.00    +0.004 A 
ATOM     26  C   UNL     1       3.017   3.036  -1.209  0.00  0.00    +0.049 A 
ATOM     27  C   UNL     1       1.791   2.390  -1.206  0.00  0.00    +0.162 A 
BRANCH  27  28
ATOM     28  O   UNL     1       1.181   2.081  -2.382  0.00  0.00    -0.491 OA
ATOM     29  C   UNL     1       1.861   2.452  -3.583  0.00  0.00    +0.277 C 
ENDBRANCH  27  28
BRANCH  22  30
ATOM     30  O   UNL     1      -0.017   1.425   0.010  0.00  0.00    -0.488 OA
BRANCH  30  32
ATOM     31  C   UNL     1      -1.433  -0.534   0.013  0.00  0.00    +0.048 C 
ATOM     32  C   UNL     1       0.002  -0.004   0.002  0.00  0.00    +0.226 C 
ENDBRANCH  30  32
ENDBRANCH  22  30
ENDBRANCH   1  23
BRANCH   7  33
ATOM     33  C   UNL     1      -0.471   1.266   8.486  0.00  0.00    +0.143 C 
BRANCH  33  34
ATOM     34  C   UNL     1      -0.131   2.179   9.636  0.00  0.00    -0.030 A 
ATOM     35  C   UNL     1       1.109   2.095  10.241  0.00  0.00    +0.005 A 
ATOM     36  C   UNL     1       1.423   2.936  11.293  0.00  0.00    +0.000 A 
ATOM     37  C   UNL     1       0.494   3.853  11.745  0.00  0.00    +0.000 A 
ATOM     38  C   UNL     1      -0.748   3.933  11.144  0.00  0.00    +0.000 A 
ATOM     39  C   UNL     1      -1.060   3.096  10.089  0.00  0.00    +0.005 A 
ENDBRANCH  33  34
ENDBRANCH   7  33
TORSDOF 6
