REMARK  Name = ZINC23321207
REMARK  13 active torsions:
REMARK  status: ('A' for Active; 'I' for Inactive)
REMARK    1  A    between atoms: C_1  and  C_2
REMARK    2  A    between atoms: C_4  and  C_37
REMARK    3  A    between atoms: C_6  and  C_8
REMARK    4  A    between atoms: C_8  and  O_9
REMARK    5  A    between atoms: O_9  and  C_10
REMARK    6  A    between atoms: C_13  and  C_17
REMARK    7  A    between atoms: C_17  and  N_18
REMARK    8  A    between atoms: N_21  and  S_24
REMARK    9  A    between atoms: S_24  and  C_27
REMARK   10  A    between atoms: C_28  and  C_36
REMARK   11  A    between atoms: C_29  and  C_35
REMARK   12  A    between atoms: C_31  and  C_34
REMARK   13  A    between atoms: C_32  and  C_33
REMARK                            x       y       z     vdW  Elec       q    Type
REMARK                         _______ _______ _______ _____ _____    ______ ____
ROOT
ATOM      1  N   UNL     1      -0.137   2.629   0.968  0.00  0.00    -0.293 NA
ATOM      2  C   UNL     1      -1.457   2.224   0.467  0.00  0.00    +0.102 C 
ATOM      3  C   UNL     1      -2.398   1.987   1.652  0.00  0.00    +0.125 C 
ATOM      4  N   UNL     1      -2.396   3.189   2.499  0.00  0.00    -0.174 NA
ATOM      5  C   UNL     1      -1.100   3.735   2.928  0.00  0.00    +0.125 C 
ATOM      6  C   UNL     1      -0.210   3.904   1.693  0.00  0.00    +0.102 C 
ENDROOT
BRANCH   4   7
ATOM      7  S   UNL     1      -3.816   3.909   2.957  0.00  0.00    +0.061 S 
ATOM      8  O   UNL     1      -4.793   2.879   3.016  0.00  0.00    -0.153 OA
ATOM      9  O   UNL     1      -3.511   4.735   4.072  0.00  0.00    -0.153 OA
BRANCH   7  10
ATOM     10  C   UNL     1      -4.299   4.986   1.649  0.00  0.00    +0.112 A 
ATOM     11  C   UNL     1      -5.285   4.598   0.762  0.00  0.00    -0.021 A 
ATOM     12  C   UNL     1      -5.668   5.444  -0.262  0.00  0.00    -0.045 A 
ATOM     13  C   UNL     1      -5.056   6.676  -0.404  0.00  0.00    +0.007 A 
ATOM     14  C   UNL     1      -4.066   7.063   0.479  0.00  0.00    -0.045 A 
ATOM     15  C   UNL     1      -3.687   6.218   1.506  0.00  0.00    -0.021 A 
ATOM     16  C   UNL     1      -2.607   6.639   2.469  0.00  0.00    +0.046 C 
ATOM     17  C   UNL     1      -3.399   8.405   0.324  0.00  0.00    +0.044 C 
ATOM     18  C   UNL     1      -6.747   5.023  -1.225  0.00  0.00    +0.044 C 
ATOM     19  C   UNL     1      -5.948   3.253   0.914  0.00  0.00    +0.046 C 
ENDBRANCH   7  10
ENDBRANCH   4   7
BRANCH   1  20
ATOM     20  C   UNL     1       0.842   2.700  -0.126  0.00  0.00    +0.159 C 
BRANCH  20  24
ATOM     21  C   UNL     1       1.558  -1.205  -1.641  0.00  0.00    +0.202 A 
ATOM     22  C   UNL     1       2.282  -0.685  -0.626  0.00  0.00    +0.244 A 
ATOM     23  O   UNL     1       2.034   0.550  -0.168  0.00  0.00    -0.463 OA
ATOM     24  C   UNL     1       1.071   1.320  -0.686  0.00  0.00    +0.123 A 
ATOM     25  C   UNL     1       0.296   0.878  -1.698  0.00  0.00    +0.097 A 
ATOM     26  C   UNL     1       0.523  -0.420  -2.220  0.00  0.00    +0.227 A 
ATOM     27  O   UNL     1      -0.155  -0.854  -3.140  0.00  0.00    -0.284 OA
BRANCH  21  28
ATOM     28  O   UNL     1       1.814  -2.460  -2.102  0.00  0.00    -0.481 OA
BRANCH  28  29
ATOM     29  C   UNL     1       2.871  -3.181  -1.466  0.00  0.00    +0.265 C 
BRANCH  29  35
ATOM     30  C   UNL     1       1.632  -8.026  -1.655  0.00  0.00    +0.044 C 
ATOM     31  C   UNL     1       2.415  -6.857  -2.194  0.00  0.00    -0.050 A 
ATOM     32  C   UNL     1       3.259  -7.031  -3.276  0.00  0.00    +0.006 A 
ATOM     33  C   UNL     1       3.977  -5.959  -3.771  0.00  0.00    -0.050 A 
ATOM     34  C   UNL     1       3.852  -4.713  -3.185  0.00  0.00    +0.010 A 
ATOM     35  C   UNL     1       3.007  -4.539  -2.104  0.00  0.00    -0.010 A 
ATOM     36  C   UNL     1       2.293  -5.613  -1.606  0.00  0.00    +0.010 A 
ATOM     37  C   UNL     1       4.897  -6.148  -4.949  0.00  0.00    +0.044 C 
ENDBRANCH  29  35
ENDBRANCH  28  29
ENDBRANCH  21  28
ENDBRANCH  20  24
ENDBRANCH   1  20
TORSDOF 7
