REMARK  Name = ZINC42029123
REMARK  5 active torsions:
REMARK  status: ('A' for Active; 'I' for Inactive)
REMARK    1  A    between atoms: C_1  and  C_2
REMARK    2  A    between atoms: C_7  and  C_8
REMARK    3  A    between atoms: C_8  and  N_9
REMARK    4  A    between atoms: C_10  and  C_14
REMARK    5  A    between atoms: C_16  and  N_21
REMARK                            x       y       z     vdW  Elec       q    Type
REMARK                         _______ _______ _______ _____ _____    ______ ____
ROOT
ATOM      1  N   UNL     1      -1.157   0.470   2.720  0.00  0.00    -0.221 N 
ATOM      2  C   UNL     1      -1.814   1.436   2.030  0.00  0.00    +0.185 A 
ATOM      3  N   UNL     1      -3.085   1.353   2.365  0.00  0.00    -0.108 NA
ATOM      4  N   UNL     1      -3.265   0.405   3.213  0.00  0.00    -0.023 NA
ATOM      5  N   UNL     1      -2.148  -0.182   3.475  0.00  0.00    -0.043 NA
ENDROOT
BRANCH   2   6
ATOM      6  C   UNL     1      -1.216   2.401   1.081  0.00  0.00    +0.058 A 
ATOM      7  C   UNL     1      -0.354   1.954   0.080  0.00  0.00    +0.037 A 
ATOM      8  C   UNL     1       0.203   2.864  -0.806  0.00  0.00    +0.025 A 
ATOM      9  C   UNL     1      -0.099   4.216  -0.696  0.00  0.00    +0.025 A 
ATOM     10  C   UNL     1      -0.953   4.660   0.295  0.00  0.00    +0.041 A 
ATOM     11  C   UNL     1      -1.518   3.761   1.181  0.00  0.00    +0.134 A 
ATOM     12  F   UNL     1      -2.357   4.198   2.145  0.00  0.00    -0.205 F 
BRANCH   8  13
ATOM     13  N   UNL     1       1.068   2.420  -1.810  0.00  0.00    -0.358 N 
ATOM     14  H   UNL     1       1.279   1.476  -1.887  0.00  0.00    +0.142 HD
ATOM     15  H   UNL     1       1.458   3.056  -2.431  0.00  0.00    +0.142 HD
ENDBRANCH   8  13
ENDBRANCH   2   6
BRANCH   1  16
ATOM     16  C   UNL     1       0.275   0.168   2.681  0.00  0.00    +0.183 C 
BRANCH  16  23
ATOM     17  C   UNL     1       0.424  -1.085   5.280  0.00  0.00    +0.044 C 
ATOM     18  C   UNL     1       1.040   0.273   5.062  0.00  0.00    -0.046 A 
ATOM     19  C   UNL     1       1.681   0.917   6.104  0.00  0.00    +0.004 A 
ATOM     20  C   UNL     1       2.246   2.163   5.904  0.00  0.00    +0.000 A 
ATOM     21  C   UNL     1       2.170   2.764   4.661  0.00  0.00    +0.000 A 
ATOM     22  C   UNL     1       1.530   2.120   3.619  0.00  0.00    +0.006 A 
ATOM     23  C   UNL     1       0.969   0.873   3.818  0.00  0.00    -0.023 A 
ENDBRANCH  16  23
ENDBRANCH   1  16
TORSDOF 4
