REMARK  Name = ZINC08734765
REMARK  8 active torsions:
REMARK  status: ('A' for Active; 'I' for Inactive)
REMARK    1  A    between atoms: C_1  and  C_2
REMARK    2  A    between atoms: C_2  and  C_3
REMARK    3  A    between atoms: C_2  and  C_4
REMARK    4  A    between atoms: C_4  and  C_6
REMARK    5  A    between atoms: C_4  and  N_57
REMARK    6  A    between atoms: C_17  and  C_18
REMARK    7  A    between atoms: C_17  and  N_57
REMARK    8  A    between atoms: N_20  and  C_21
REMARK                            x       y       z     vdW  Elec       q    Type
REMARK                         _______ _______ _______ _____ _____    ______ ____
ROOT
ATOM      1  N   UNL     1       3.586  10.029   0.329  0.00  0.00    +0.389 N 
ATOM      2  H   UNL     1       4.042   9.619   1.153  0.00  0.00    -0.084 HD
ATOM      3  H   UNL     1       4.098   9.754  -0.518  0.00  0.00    -0.084 HD
ENDROOT
BRANCH   1   4
ATOM      4  C   UNL     1       3.596  11.499   0.448  0.00  0.00    -0.038 C 
BRANCH   4   5
ATOM      5  C   UNL     1       4.869  11.932   1.128  0.00  0.00    -0.057 A 
ATOM      6  C   UNL     1       6.062  11.303   0.822  0.00  0.00    +0.006 A 
ATOM      7  C   UNL     1       7.235  11.695   1.442  0.00  0.00    +0.049 A 
ATOM      8  C   UNL     1       7.210  12.719   2.373  0.00  0.00    +0.162 A 
ATOM      9  C   UNL     1       6.013  13.350   2.680  0.00  0.00    +0.162 A 
ATOM     10  C   UNL     1       4.842  12.960   2.053  0.00  0.00    +0.051 A 
ATOM     11  O   UNL     1       5.999  14.359   3.599  0.00  0.00    -0.488 OA
ATOM     12  C   UNL     1       6.657  15.567   3.212  0.00  0.00    +0.232 C 
ATOM     13  C   UNL     1       8.149  15.482   3.493  0.00  0.00    +0.082 C 
ATOM     14  C   UNL     1       8.837  14.417   2.652  0.00  0.00    +0.232 C 
ATOM     15  O   UNL     1       8.359  13.114   2.994  0.00  0.00    -0.488 OA
ENDBRANCH   4   5
BRANCH   4  17
ATOM     16  C   UNL     1       3.543  13.650  -0.822  0.00  0.00    +0.006 C 
ATOM     17  C   UNL     1       3.524  12.125  -0.946  0.00  0.00    -0.027 C 
ATOM     18  C   UNL     1       4.726  11.665  -1.774  0.00  0.00    +0.006 C 
ENDBRANCH   4  17
ENDBRANCH   1   4
BRANCH   1  19
ATOM     19  C   UNL     1       2.200   9.531   0.243  0.00  0.00    +0.016 C 
BRANCH  19  20
ATOM     20  C   UNL     1       2.221   8.029   0.122  0.00  0.00    +0.200 C 
ATOM     21  O   UNL     1       3.279   7.437   0.109  0.00  0.00    -0.278 OA
ATOM     22  N   UNL     1       1.064   7.345   0.028  0.00  0.00    -0.287 N 
ATOM     23  H   UNL     1       0.221   7.822  -0.029  0.00  0.00    +0.155 HD
BRANCH  22  24
ATOM     24  C   UNL     1       1.078   5.946   0.012  0.00  0.00    +0.034 A 
ATOM     25  C   UNL     1       2.129   5.271  -0.622  0.00  0.00    +0.024 A 
ATOM     26  C   UNL     1       2.168   3.913  -0.653  0.00  0.00    +0.010 A 
ATOM     27  C   UNL     1       1.144   3.168  -0.043  0.00  0.00    -0.018 A 
ATOM     28  C   UNL     1       1.159   1.763  -0.059  0.00  0.00    +0.008 A 
ATOM     29  C   UNL     1       0.152   1.071   0.540  0.00  0.00    +0.001 A 
ATOM     30  C   UNL     1      -0.900   1.734   1.169  0.00  0.00    +0.001 A 
ATOM     31  C   UNL     1      -0.945   3.094   1.210  0.00  0.00    +0.008 A 
ATOM     32  C   UNL     1       0.077   3.843   0.601  0.00  0.00    -0.016 A 
ATOM     33  C   UNL     1       0.059   5.247   0.620  0.00  0.00    +0.031 A 
ENDBRANCH  22  24
ENDBRANCH  19  20
ENDBRANCH   1  19
TORSDOF 6
