REMARK  Name = ZINC63385729
REMARK  2 active torsions:
REMARK  status: ('A' for Active; 'I' for Inactive)
REMARK    1  A    between atoms: C_2  and  C_3
REMARK    2  A    between atoms: C_3  and  N_4
REMARK                            x       y       z     vdW  Elec       q    Type
REMARK                         _______ _______ _______ _____ _____    ______ ____
ROOT
ATOM      1  N   UNL     1       1.367  -1.676   1.111  0.00  0.00    -0.265 N 
ATOM      2  C   UNL     1       1.854  -1.351   2.366  0.00  0.00    +0.042 A 
ATOM      3  C   UNL     1       2.378  -0.143   2.828  0.00  0.00    +0.025 A 
ATOM      4  C   UNL     1       2.795  -0.096   4.149  0.00  0.00    +0.017 A 
ATOM      5  C   UNL     1       2.701  -1.192   4.985  0.00  0.00    +0.018 A 
ATOM      6  C   UNL     1       2.182  -2.402   4.536  0.00  0.00    +0.023 A 
ATOM      7  C   UNL     1       1.766  -2.456   3.223  0.00  0.00    +0.006 A 
ATOM      8  C   UNL     1       1.171  -3.565   2.415  0.00  0.00    +0.148 C 
ATOM      9  C   UNL     1       0.940  -2.954   1.050  0.00  0.00    +0.247 C 
ATOM     10  O   UNL     1       0.462  -3.509   0.083  0.00  0.00    -0.273 OA
ATOM     11  C   UNL     1      -0.154  -4.030   3.011  0.00  0.00    +0.140 C 
ATOM     12  C   UNL     1       0.194  -4.758   4.305  0.00  0.00    -0.035 C 
ATOM     13  C   UNL     1      -0.533  -4.194   5.259  0.00  0.00    -0.001 A 
ATOM     14  C   UNL     1      -0.703  -4.516   6.685  0.00  0.00    +0.010 A 
ATOM     15  C   UNL     1      -1.536  -3.704   7.388  0.00  0.00    +0.001 A 
ATOM     16  C   UNL     1      -2.208  -2.615   6.824  0.00  0.00    +0.002 A 
ATOM     17  C   UNL     1      -2.113  -2.248   5.521  0.00  0.00    +0.026 A 
ATOM     18  C   UNL     1      -1.273  -3.032   4.678  0.00  0.00    +0.043 A 
ATOM     19  N   UNL     1      -1.028  -2.921   3.388  0.00  0.00    -0.375 N 
ATOM     20  C   UNL     1       1.259  -5.827   4.347  0.00  0.00    +0.048 C 
ATOM     21  C   UNL     1       2.485  -5.249   3.618  0.00  0.00    +0.086 C 
ATOM     22  N   UNL     1       2.090  -4.703   2.316  0.00  0.00    -0.297 NA
ATOM     23 BR   UNL     1       3.291  -1.044   6.775  0.00  0.00    -0.050 Br
ATOM     24  H   UNL     1       1.710  -5.424   1.721  0.00  0.00    +0.123 HD
ATOM     25  H   UNL     1      -1.359  -2.231   2.792  0.00  0.00    +0.160 HD
ENDROOT
BRANCH   1  26
ATOM     26  C   UNL     1       1.317  -0.740  -0.015  0.00  0.00    +0.140 C 
BRANCH  26  28
ATOM     27  C   UNL     1      -0.016   1.306   0.009  0.00  0.00    +0.005 C 
ATOM     28  C   UNL     1       0.002  -0.004   0.002  0.00  0.00    -0.015 C 
ENDBRANCH  26  28
ENDBRANCH   1  26
TORSDOF 2
