REMARK  Name = ZINC40093379
REMARK  14 active torsions:
REMARK  status: ('A' for Active; 'I' for Inactive)
REMARK    1  A    between atoms: C_1  and  C_2
REMARK    2  A    between atoms: C_4  and  C_12
REMARK    3  A    between atoms: C_7  and  O_8
REMARK    4  A    between atoms: O_8  and  C_9
REMARK    5  A    between atoms: C_9  and  C_10
REMARK    6  A    between atoms: C_9  and  C_11
REMARK    7  A    between atoms: C_12  and  C_14
REMARK    8  A    between atoms: N_18  and  C_31
REMARK    9  A    between atoms: C_19  and  C_21
REMARK   10  A    between atoms: C_23  and  O_29
REMARK   11  A    between atoms: C_24  and  O_28
REMARK   12  A    between atoms: O_29  and  C_30
REMARK   13  A    between atoms: C_31  and  C_32
REMARK   14  A    between atoms: C_32  and  O_33
REMARK                            x       y       z     vdW  Elec       q    Type
REMARK                         _______ _______ _______ _____ _____    ______ ____
ROOT
ATOM      1  C   UNL     1       2.730  -2.973  -1.790  0.00  0.00    +0.076 C 
ATOM      2  C   UNL     1       3.576  -3.476  -2.718  0.00  0.00    +0.249 C 
ATOM      3  C   UNL     1       4.695  -4.159  -2.035  0.00  0.00    +0.288 C 
ATOM      4  O   UNL     1       5.620  -4.713  -2.596  0.00  0.00    -0.266 OA
ATOM      5  N   UNL     1       4.537  -4.078  -0.702  0.00  0.00    -0.281 N 
ATOM      6  C   UNL     1       3.304  -3.327  -0.438  0.00  0.00    +0.145 C 
ATOM      7  O   UNL     1       3.423  -3.369  -4.058  0.00  0.00    -0.282 OA
ENDROOT
BRANCH   6   8
ATOM      8  C   UNL     1       3.614  -2.072   0.338  0.00  0.00    -0.018 A 
ATOM      9  C   UNL     1       2.986  -1.837   1.547  0.00  0.00    +0.055 A 
ATOM     10  C   UNL     1       3.269  -0.684   2.262  0.00  0.00    +0.163 A 
ATOM     11  C   UNL     1       4.186   0.234   1.761  0.00  0.00    +0.173 A 
ATOM     12  C   UNL     1       4.812  -0.007   0.548  0.00  0.00    +0.063 A 
ATOM     13  C   UNL     1       4.529  -1.163  -0.158  0.00  0.00    +0.025 A 
ATOM     14 BR   UNL     1       6.059   1.238  -0.137  0.00  0.00    -0.046 Br
BRANCH  11  15
ATOM     15  O   UNL     1       4.467   1.368   2.459  0.00  0.00    -0.503 OA
ATOM     16  H   UNL     1       5.200   1.274   3.082  0.00  0.00    +0.292 HD
ENDBRANCH  11  15
BRANCH  10  17
ATOM     17  O   UNL     1       2.651  -0.451   3.451  0.00  0.00    -0.491 OA
ATOM     18  C   UNL     1       1.807  -1.487   3.958  0.00  0.00    +0.277 C 
ENDBRANCH  10  17
ENDBRANCH   6   8
BRANCH   1  19
ATOM     19  C   UNL     1       1.495  -2.224  -2.046  0.00  0.00    +0.195 C 
ATOM     20  O   UNL     1       1.548  -1.125  -2.567  0.00  0.00    -0.287 OA
BRANCH  19  24
ATOM     21  C   UNL     1      -3.444  -1.751  -1.548  0.00  0.00    +0.047 C 
ATOM     22  C   UNL     1      -2.190  -2.578  -1.432  0.00  0.00    -0.008 A 
ATOM     23  C   UNL     1      -0.974  -2.034  -1.781  0.00  0.00    +0.018 A 
ATOM     24  C   UNL     1       0.190  -2.802  -1.673  0.00  0.00    +0.023 A 
ATOM     25  C   UNL     1       0.113  -4.120  -1.211  0.00  0.00    +0.015 A 
ATOM     26  C   UNL     1      -1.107  -4.655  -0.865  0.00  0.00    +0.046 A 
ATOM     27  C   UNL     1      -2.261  -3.886  -0.968  0.00  0.00    +0.124 A 
BRANCH  27  28
ATOM     28  O   UNL     1      -3.461  -4.417  -0.620  0.00  0.00    -0.489 OA
BRANCH  28  29
ATOM     29  C   UNL     1      -3.474  -5.791  -0.229  0.00  0.00    +0.167 C 
ATOM     30  C   UNL     1      -3.078  -5.906   1.244  0.00  0.00    +0.051 C 
ATOM     31  C   UNL     1      -4.879  -6.364  -0.426  0.00  0.00    +0.051 C 
ENDBRANCH  28  29
ENDBRANCH  27  28
ENDBRANCH  19  24
ENDBRANCH   1  19
BRANCH   5  32
ATOM     32  C   UNL     1       5.440  -4.635   0.308  0.00  0.00    +0.137 C 
BRANCH  32  33
ATOM     33  C   UNL     1       6.596  -3.663   0.551  0.00  0.00    +0.175 C 
BRANCH  33  34
ATOM     34  O   UNL     1       6.104  -2.491   1.204  0.00  0.00    -0.393 OA
ATOM     35  H   UNL     1       6.784  -1.829   1.389  0.00  0.00    +0.209 HD
ENDBRANCH  33  34
ENDBRANCH  32  33
ENDBRANCH   5  32
TORSDOF 10
