REMARK  Name = ZINC42401886
REMARK  4 active torsions:
REMARK  status: ('A' for Active; 'I' for Inactive)
REMARK    1  A    between atoms: C_3  and  N_18
REMARK    2  A    between atoms: C_4  and  C_8
REMARK    3  A    between atoms: C_8  and  C_9
REMARK    4  A    between atoms: C_15  and  N_17
REMARK                            x       y       z     vdW  Elec       q    Type
REMARK                         _______ _______ _______ _____ _____    ______ ____
ROOT
ATOM      1  C   UNL     1       3.771  -0.501  -0.059  0.00  0.00    +0.039 C 
ENDROOT
BRANCH   1   5
ATOM      2  C   UNL     1      -0.228   0.990   0.150  0.00  0.00    +0.040 A 
ATOM      3  C   UNL     1       0.013  -0.365   0.277  0.00  0.00    +0.036 A 
ATOM      4  C   UNL     1       1.307  -0.847   0.209  0.00  0.00    +0.130 A 
ATOM      5  C   UNL     1       2.361   0.026   0.014  0.00  0.00    -0.014 A 
ATOM      6  C   UNL     1       2.123   1.381  -0.115  0.00  0.00    +0.044 A 
ATOM      7  C   UNL     1       0.827   1.865  -0.047  0.00  0.00    +0.124 A 
ATOM      8  F   UNL     1       0.593   3.189  -0.172  0.00  0.00    -0.205 F 
BRANCH   4   9
ATOM      9  N   UNL     1       1.564  -2.298   0.347  0.00  0.00    +0.057 N 
ATOM     10  O   UNL     1       0.657  -3.049   0.620  0.00  0.00    -0.126 OA
ATOM     11  O   UNL     1       2.680  -2.732   0.186  0.00  0.00    -0.126 OA
ENDBRANCH   4   9
ENDBRANCH   1   5
BRANCH   1  12
ATOM     12  C   UNL     1       4.272  -0.815   1.352  0.00  0.00    -0.021 C 
ATOM     13  C   UNL     1       4.351   0.479   2.165  0.00  0.00    +0.002 C 
ATOM     14  C   UNL     1       5.317   1.450   1.486  0.00  0.00    +0.000 C 
ATOM     15  C   UNL     1       6.707   0.814   1.404  0.00  0.00    -0.002 C 
ATOM     16  C   UNL     1       6.628  -0.480   0.591  0.00  0.00    -0.016 C 
ATOM     17  C   UNL     1       5.661  -1.451   1.271  0.00  0.00    -0.072 C 
BRANCH  17  18
ATOM     18  N   UNL     1       5.586  -2.693   0.490  0.00  0.00    +0.380 N 
ATOM     19  H   UNL     1       5.255  -2.486  -0.440  0.00  0.00    -0.090 HD
ATOM     20  H   UNL     1       6.502  -3.113   0.437  0.00  0.00    -0.090 HD
ATOM     21  H   UNL     1       4.948  -3.334   0.939  0.00  0.00    -0.090 HD
ENDBRANCH  17  18
ENDBRANCH   1  12
TORSDOF 4
