REMARK  Name = ZINC67172556
REMARK  2 active torsions:
REMARK  status: ('A' for Active; 'I' for Inactive)
REMARK    1  A    between atoms: N_12  and  C_16
REMARK    2  A    between atoms: C_16  and  C_17
REMARK                            x       y       z     vdW  Elec       q    Type
REMARK                         _______ _______ _______ _____ _____    ______ ____
ROOT
ATOM      1  C   UNL     1      -0.017   1.374   0.010  0.00  0.00    +0.001 A 
ATOM      2  C   UNL     1       1.173   2.087   0.002  0.00  0.00    +0.004 A 
ATOM      3  C   UNL     1       2.385   1.431  -0.013  0.00  0.00    +0.047 A 
ATOM      4  C   UNL     1       2.426   0.041  -0.021  0.00  0.00    +0.138 A 
ATOM      5  C   UNL     1       1.221  -0.678  -0.013  0.00  0.00    +0.046 A 
ATOM      6  C   UNL     1       0.002  -0.004   0.002  0.00  0.00    +0.014 A 
ATOM      7  C   UNL     1       1.601  -2.100  -0.025  0.00  0.00    +0.125 A 
ATOM      8  C   UNL     1       3.008  -2.114  -0.039  0.00  0.00    +0.219 A 
ATOM      9  O   UNL     1       3.452  -0.837  -0.036  0.00  0.00    -0.448 OA
ATOM     10  C   UNL     1       3.653  -3.341  -0.052  0.00  0.00    +0.298 A 
ATOM     11  O   UNL     1       5.002  -3.408  -0.065  0.00  0.00    -0.264 OA
ATOM     12  N   UNL     1       2.901  -4.479  -0.052  0.00  0.00    -0.273 N 
ATOM     13  C   UNL     1       1.558  -4.410  -0.039  0.00  0.00    +0.184 A 
ATOM     14  S   UNL     1       0.645  -5.859  -0.039  0.00  0.00    -0.011 S 
ATOM     15  N   UNL     1       0.923  -3.243  -0.025  0.00  0.00    -0.219 NA
ENDROOT
BRANCH  12  16
ATOM     16  C   UNL     1       3.562  -5.787  -0.066  0.00  0.00    +0.252 C 
BRANCH  16  17
ATOM     17  C   UNL     1       3.802  -6.244   1.350  0.00  0.00    +0.375 C 
ATOM     18  O   UNL     1       3.454  -5.542   2.284  0.00  0.00    -0.244 OA
ATOM     19  O   UNL     1       4.344  -7.315   1.561  0.00  0.00    -0.244 OA
ENDBRANCH  16  17
ENDBRANCH  12  16
TORSDOF 2
