REMARK  Name = ZINC35658927
REMARK  8 active torsions:
REMARK  status: ('A' for Active; 'I' for Inactive)
REMARK    1  A    between atoms: C_1  and  C_2
REMARK    2  A    between atoms: C_4  and  N_7
REMARK    3  A    between atoms: N_7  and  S_8
REMARK    4  A    between atoms: S_8  and  C_11
REMARK    5  A    between atoms: C_12  and  C_21
REMARK    6  A    between atoms: N_14  and  C_17
REMARK    7  A    between atoms: C_15  and  C_16
REMARK    8  A    between atoms: C_17  and  C_18
REMARK                            x       y       z     vdW  Elec       q    Type
REMARK                         _______ _______ _______ _____ _____    ______ ____
ROOT
ATOM      1  C   UNL     1       0.073  -5.897  -2.216  0.00  0.00    +0.153 A 
ATOM      2  C   UNL     1      -1.053  -6.447  -2.837  0.00  0.00    +0.087 A 
ATOM      3  N   UNL     1      -0.646  -7.257  -3.780  0.00  0.00    -0.174 NA
ATOM      4  N   UNL     1       0.755  -7.249  -3.790  0.00  0.00    -0.255 N 
ATOM      5  C   UNL     1       1.172  -6.403  -2.825  0.00  0.00    +0.064 A 
ATOM      6  C   UNL     1       2.604  -6.081  -2.483  0.00  0.00    +0.067 C 
ATOM      7  C   UNL     1      -2.488  -6.156  -2.481  0.00  0.00    +0.069 C 
ENDROOT
BRANCH   1   8
ATOM      8  S   UNL     1       0.064  -4.745  -0.884  0.00  0.00    +0.098 S 
ATOM      9  O   UNL     1       1.315  -4.879  -0.223  0.00  0.00    -0.148 OA
ATOM     10  O   UNL     1      -1.175  -4.913  -0.210  0.00  0.00    -0.148 OA
BRANCH   8  11
ATOM     11  N   UNL     1       0.040  -3.228  -1.548  0.00  0.00    -0.057 NA
BRANCH  11  15
ATOM     12  C   UNL     1      -0.018   1.503   0.010  0.00  0.00    +0.069 C 
ATOM     13  C   UNL     1       0.002  -0.004   0.002  0.00  0.00    +0.083 A 
ATOM     14  C   UNL     1       0.008  -0.819  -1.138  0.00  0.00    +0.095 A 
ATOM     15  C   UNL     1       0.028  -2.115  -0.728  0.00  0.00    +0.259 A 
ATOM     16  O   UNL     1       0.035  -2.121   0.616  0.00  0.00    -0.336 OA
ATOM     17  N   UNL     1       0.023  -0.774   1.055  0.00  0.00    -0.081 NA
ENDBRANCH  11  15
ENDBRANCH   8  11
ENDBRANCH   1   8
BRANCH   4  18
ATOM     18  C   UNL     1       1.615  -8.018  -4.692  0.00  0.00    +0.268 C 
BRANCH  18  19
ATOM     19  C   UNL     1       1.898  -7.207  -5.930  0.00  0.00    +0.377 C 
ATOM     20  O   UNL     1       1.425  -6.089  -6.048  0.00  0.00    -0.244 OA
ATOM     21  O   UNL     1       2.600  -7.668  -6.814  0.00  0.00    -0.244 OA
ENDBRANCH  18  19
ENDBRANCH   4  18
TORSDOF 5
