REMARK  Name = ZINC39670266
REMARK  9 active torsions:
REMARK  status: ('A' for Active; 'I' for Inactive)
REMARK    1  A    between atoms: C_1  and  C_2
REMARK    2  A    between atoms: C_2  and  C_3
REMARK    3  A    between atoms: C_3  and  C_5
REMARK    4  A    between atoms: C_3  and  C_6
REMARK    5  A    between atoms: C_6  and  C_7
REMARK    6  A    between atoms: C_11  and  C_20
REMARK    7  A    between atoms: N_22  and  C_23
REMARK    8  A    between atoms: C_23  and  C_24
REMARK    9  A    between atoms: C_29  and  C_33
REMARK                            x       y       z     vdW  Elec       q    Type
REMARK                         _______ _______ _______ _____ _____    ______ ____
ROOT
ATOM      1  C   UNL     1      -2.530  -2.590  -0.335  0.00  0.00    +0.216 C 
ATOM      2  O   UNL     1      -3.392  -1.737  -0.336  0.00  0.00    -0.276 OA
ATOM      3  N   UNL     1      -2.870  -3.891  -0.426  0.00  0.00    -0.300 N 
ATOM      4  C   UNL     1      -1.969  -5.067  -0.435  0.00  0.00    +0.121 C 
ATOM      5  C   UNL     1      -2.705  -6.129   0.413  0.00  0.00    +0.100 C 
ATOM      6  C   UNL     1      -4.189  -5.732   0.338  0.00  0.00    -0.004 C 
ATOM      7  C   UNL     1      -4.232  -4.469  -0.535  0.00  0.00    +0.115 C 
ATOM      8  C   UNL     1      -5.002  -6.849  -0.308  0.00  0.00    -0.010 C 
ATOM      9  C   UNL     1      -6.482  -6.456  -0.319  0.00  0.00    -0.082 C 
ATOM     10  N   UNL     1      -6.939  -6.223   1.057  0.00  0.00    +0.379 N 
ATOM     11  C   UNL     1      -6.215  -5.086   1.639  0.00  0.00    -0.082 C 
ATOM     12  C   UNL     1      -4.724  -5.422   1.732  0.00  0.00    -0.010 C 
ATOM     13  H   UNL     1      -7.928  -6.023   1.052  0.00  0.00    -0.086 HD
ATOM     14  H   UNL     1      -6.767  -7.048   1.611  0.00  0.00    -0.086 HD
ENDROOT
BRANCH   5  15
ATOM     15  C   UNL     1      -2.220  -6.089   1.840  0.00  0.00    +0.219 C 
ATOM     16  O   UNL     1      -1.828  -5.046   2.318  0.00  0.00    -0.275 OA
ATOM     17  N   UNL     1      -2.223  -7.213   2.584  0.00  0.00    -0.309 N 
ATOM     18  H   UNL     1      -2.536  -8.048   2.201  0.00  0.00    +0.149 HD
BRANCH  17  19
ATOM     19  C   UNL     1      -1.752  -7.175   3.970  0.00  0.00    +0.159 C 
BRANCH  19  20
ATOM     20  C   UNL     1      -1.857  -8.551   4.575  0.00  0.00    +0.051 A 
ATOM     21  C   UNL     1      -2.894  -9.013   5.307  0.00  0.00    +0.115 A 
ATOM     22  N   UNL     1      -2.596 -10.300   5.663  0.00  0.00    -0.308 N 
ATOM     23  C   UNL     1      -3.271 -11.237   6.391  0.00  0.00    +0.093 A 
ATOM     24  C   UNL     1      -2.740 -12.460   6.598  0.00  0.00    +0.021 A 
ATOM     25  C   UNL     1      -1.482 -12.786   6.064  0.00  0.00    -0.046 A 
ATOM     26  C   UNL     1      -0.799 -11.863   5.336  0.00  0.00    +0.048 A 
ATOM     27  C   UNL     1      -1.367 -10.589   5.128  0.00  0.00    +0.116 A 
ATOM     28  N   UNL     1      -0.943  -9.519   4.472  0.00  0.00    -0.342 N 
ATOM     29  C   UNL     1      -0.892 -14.153   6.297  0.00  0.00    +0.044 C 
ATOM     30  H   UNL     1      -0.102  -9.449   3.994  0.00  0.00    +0.167 HD
ENDBRANCH  19  20
ENDBRANCH  17  19
ENDBRANCH   5  15
BRANCH   1  31
ATOM     31  C   UNL     1      -1.079  -2.196  -0.232  0.00  0.00    +0.099 C 
BRANCH  31  32
ATOM     32  C   UNL     1      -0.970  -0.673  -0.141  0.00  0.00    -0.006 C 
ATOM     33  C   UNL     1      -1.613  -0.192   1.161  0.00  0.00    +0.008 C 
BRANCH  32  35
ATOM     34  C   UNL     1       0.612   1.260  -0.196  0.00  0.00    +0.004 C 
ATOM     35  C   UNL     1       0.505  -0.266  -0.161  0.00  0.00    +0.000 C 
ENDBRANCH  32  35
ENDBRANCH  31  32
ENDBRANCH   1  31
TORSDOF 6
