REMARK  Name = ZINC03114124
REMARK  7 active torsions:
REMARK  status: ('A' for Active; 'I' for Inactive)
REMARK    1  A    between atoms: C_1  and  C_2
REMARK    2  A    between atoms: C_9  and  C_11
REMARK    3  A    between atoms: C_15  and  N_17
REMARK    4  A    between atoms: C_18  and  C_19
REMARK    5  A    between atoms: C_20  and  C_29
REMARK    6  A    between atoms: C_22  and  C_27
REMARK    7  A    between atoms: C_24  and  O_25
REMARK                            x       y       z     vdW  Elec       q    Type
REMARK                         _______ _______ _______ _____ _____    ______ ____
ROOT
ATOM      1  C   UNL     1       8.202   2.569   0.787  0.00  0.00    +0.039 A 
ATOM      2  C   UNL     1       8.345   3.663  -0.069  0.00  0.00    +0.013 A 
ATOM      3  C   UNL     1       7.307   4.035  -0.900  0.00  0.00    +0.003 A 
ATOM      4  C   UNL     1       6.123   3.324  -0.896  0.00  0.00    +0.028 A 
ATOM      5  C   UNL     1       5.964   2.230  -0.041  0.00  0.00    +0.065 A 
ATOM      6  C   UNL     1       7.009   1.850   0.801  0.00  0.00    +0.041 A 
ENDROOT
BRANCH   1  15
ATOM      7  C   UNL     1      14.458   1.725   4.613  0.00  0.00    +0.044 C 
ATOM      8  C   UNL     1      13.057   1.508   4.100  0.00  0.00    -0.048 A 
ATOM      9  C   UNL     1      12.294   0.464   4.603  0.00  0.00    +0.007 A 
ATOM     10  C   UNL     1      11.010   0.252   4.144  0.00  0.00    +0.049 A 
ATOM     11  C   UNL     1      10.476   1.086   3.173  0.00  0.00    +0.156 A 
ATOM     12  C   UNL     1      11.246   2.143   2.662  0.00  0.00    +0.110 A 
ATOM     13  C   UNL     1      12.544   2.346   3.137  0.00  0.00    +0.035 A 
ATOM     14  N   UNL     1      10.476   2.774   1.738  0.00  0.00    -0.209 NA
ATOM     15  C   UNL     1       9.316   2.173   1.676  0.00  0.00    +0.228 A 
ATOM     16  O   UNL     1       9.286   1.137   2.536  0.00  0.00    -0.435 OA
ENDBRANCH   1  15
BRANCH   5  17
ATOM     17  N   UNL     1       4.788   1.530  -0.034  0.00  0.00    -0.255 NA
ATOM     18  C   UNL     1       3.651   2.167  -0.021  0.00  0.00    +0.123 C 
BRANCH  18  19
ATOM     19  C   UNL     1       2.387   1.415  -0.013  0.00  0.00    +0.040 A 
ATOM     20  C   UNL     1       1.164   2.094   0.002  0.00  0.00    -0.020 A 
ATOM     21  C   UNL     1      -0.017   1.382   0.010  0.00  0.00    +0.049 A 
ATOM     22  C   UNL     1       0.002  -0.004   0.002  0.00  0.00    -0.014 A 
ATOM     23  C   UNL     1       1.203  -0.687  -0.013  0.00  0.00    +0.064 A 
ATOM     24  C   UNL     1       2.401   0.012  -0.020  0.00  0.00    +0.140 A 
ATOM     25 BR   UNL     1       1.214  -2.578  -0.023  0.00  0.00    -0.046 Br
ATOM     26  C   UNL     1      -1.295  -0.771   0.010  0.00  0.00    +0.046 C 
ATOM     27 CL   UNL     1      -1.534   2.226   0.021  0.00  0.00    -0.083 Cl
ATOM     28  C   UNL     1       1.138   3.600   0.010  0.00  0.00    +0.046 C 
BRANCH  24  29
ATOM     29  O   UNL     1       3.582  -0.658  -0.035  0.00  0.00    -0.505 OA
ATOM     30  H   UNL     1       3.915  -0.848  -0.923  0.00  0.00    +0.292 HD
ENDBRANCH  24  29
ENDBRANCH  18  19
ENDBRANCH   5  17
TORSDOF 4
