REMARK  Name = ZINC13232934
REMARK  12 active torsions:
REMARK  status: ('A' for Active; 'I' for Inactive)
REMARK    1  A    between atoms: C_1  and  C_2
REMARK    2  A    between atoms: C_4  and  S_29
REMARK    3  A    between atoms: C_6  and  N_9
REMARK    4  A    between atoms: C_7  and  C_8
REMARK    5  A    between atoms: C_10  and  C_12
REMARK    6  A    between atoms: C_12  and  S_13
REMARK    7  A    between atoms: S_13  and  C_14
REMARK    8  A    between atoms: C_17  and  C_24
REMARK    9  A    between atoms: N_18  and  C_19
REMARK   10  A    between atoms: C_19  and  C_21
REMARK   11  A    between atoms: C_19  and  C_22
REMARK   12  A    between atoms: S_29  and  N_32
REMARK                            x       y       z     vdW  Elec       q    Type
REMARK                         _______ _______ _______ _____ _____    ______ ____
ROOT
ATOM      1  N   UNL     1      -3.492   0.539   3.694  0.00  0.00    -0.285 N 
ATOM      2  C   UNL     1      -3.768  -0.635   3.092  0.00  0.00    +0.227 C 
ATOM      3  O   UNL     1      -3.146  -0.973   2.108  0.00  0.00    -0.275 OA
ATOM      4  H   UNL     1      -3.945   0.780   4.518  0.00  0.00    +0.155 HD
ENDROOT
BRANCH   1  10
ATOM      5  C   UNL     1      -1.998   5.132   2.777  0.00  0.00    +0.044 C 
ATOM      6  C   UNL     1      -1.804   3.641   2.671  0.00  0.00    -0.044 A 
ATOM      7  C   UNL     1      -0.694   3.133   2.021  0.00  0.00    +0.032 A 
ATOM      8  C   UNL     1      -0.516   1.766   1.917  0.00  0.00    +0.107 A 
ATOM      9  C   UNL     1      -1.441   0.903   2.473  0.00  0.00    +0.052 A 
ATOM     10  C   UNL     1      -2.554   1.410   3.131  0.00  0.00    +0.038 A 
ATOM     11  C   UNL     1      -2.733   2.784   3.229  0.00  0.00    -0.026 A 
ATOM     12  C   UNL     1      -3.939   3.339   3.942  0.00  0.00    +0.046 C 
BRANCH   8  13
ATOM     13  S   UNL     1       0.896   1.123   1.082  0.00  0.00    +0.056 S 
ATOM     14  O   UNL     1       1.116  -0.181   1.601  0.00  0.00    -0.153 OA
ATOM     15  O   UNL     1       1.890   2.138   1.126  0.00  0.00    -0.153 OA
BRANCH  13  16
ATOM     16  N   UNL     1       0.480   0.936  -0.510  0.00  0.00    -0.204 NA
ATOM     17  H   UNL     1       0.517   0.058  -0.921  0.00  0.00    +0.144 HD
ATOM     18  H   UNL     1       0.199   1.704  -1.031  0.00  0.00    +0.144 HD
ENDBRANCH  13  16
ENDBRANCH   8  13
ENDBRANCH   1  10
BRANCH   2  19
ATOM     19  C   UNL     1      -4.851  -1.527   3.642  0.00  0.00    +0.173 C 
BRANCH  19  20
ATOM     20  S   UNL     1      -4.981  -3.017   2.623  0.00  0.00    -0.077 S 
BRANCH  20  21
ATOM     21  C   UNL     1      -6.281  -3.854   3.467  0.00  0.00    +0.193 A 
ATOM     22  N   UNL     1      -6.917  -3.428   4.535  0.00  0.00    -0.122 NA
ATOM     23  N   UNL     1      -7.807  -4.284   4.891  0.00  0.00    -0.128 NA
ATOM     24  C   UNL     1      -7.795  -5.312   4.071  0.00  0.00    +0.172 A 
ATOM     25  N   UNL     1      -6.820  -5.065   3.130  0.00  0.00    -0.288 N 
BRANCH  24  26
ATOM     26  C   UNL     1      -8.662  -6.498   4.142  0.00  0.00    +0.056 A 
ATOM     27  C   UNL     1      -9.816  -6.685   4.862  0.00  0.00    +0.019 A 
ATOM     28  C   UNL     1     -10.466  -7.894   4.765  0.00  0.00    +0.008 A 
ATOM     29  C   UNL     1      -9.944  -8.866   3.973  0.00  0.00    +0.046 A 
ATOM     30  S   UNL     1      -8.485  -8.073   3.319  0.00  0.00    -0.094 S 
ENDBRANCH  24  26
BRANCH  25  31
ATOM     31  C   UNL     1      -6.438  -5.921   2.005  0.00  0.00    +0.201 C 
ATOM     32  C   UNL     1      -6.645  -5.163   0.693  0.00  0.00    +0.043 C 
BRANCH  31  33
ATOM     33  C   UNL     1      -4.987  -6.308   2.138  0.00  0.00    +0.378 C 
ATOM     34  O   UNL     1      -4.200  -6.008   1.272  0.00  0.00    -0.244 OA
ATOM     35  O   UNL     1      -4.570  -6.987   3.219  0.00  0.00    -0.244 OA
ENDBRANCH  31  33
ENDBRANCH  25  31
ENDBRANCH  20  21
ENDBRANCH  19  20
ENDBRANCH   2  19
TORSDOF 9
