REMARK  Name = ZINC20709044
REMARK  5 active torsions:
REMARK  status: ('A' for Active; 'I' for Inactive)
REMARK    1  A    between atoms: C_1  and  C_2
REMARK    2  A    between atoms: C_5  and  C_28
REMARK    3  A    between atoms: C_15  and  C_18
REMARK    4  A    between atoms: C_20  and  N_25
REMARK    5  A    between atoms: C_23  and  O_24
REMARK                            x       y       z     vdW  Elec       q    Type
REMARK                         _______ _______ _______ _____ _____    ______ ____
ROOT
ATOM      1  C   UNL     1       1.814   0.041  -1.897  0.00  0.00    +0.044 C 
ATOM      2  C   UNL     1       2.277   1.113  -0.946  0.00  0.00    -0.045 A 
ATOM      3  C   UNL     1       3.573   1.581  -1.021  0.00  0.00    +0.004 A 
ATOM      4  C   UNL     1       4.006   2.565  -0.152  0.00  0.00    +0.005 A 
ATOM      5  C   UNL     1       3.139   3.075   0.791  0.00  0.00    -0.029 A 
ATOM      6  C   UNL     1       1.829   2.604   0.872  0.00  0.00    +0.035 A 
ATOM      7  C   UNL     1       1.396   1.621  -0.000  0.00  0.00    -0.016 A 
ATOM      8  C   UNL     1       0.000   1.072   0.027  0.00  0.00    +0.049 C 
ATOM      9  C   UNL     1      -0.788   1.560  -1.167  0.00  0.00    -0.023 C 
ATOM     10  C   UNL     1      -2.034   1.824  -0.798  0.00  0.00    -0.030 C 
ATOM     11  C   UNL     1      -2.230   1.542   0.679  0.00  0.00    +0.033 C 
ATOM     12  C   UNL     1      -0.786   1.585   1.253  0.00  0.00    +0.029 C 
ATOM     13  C   UNL     1      -0.417   3.064   1.481  0.00  0.00    +0.108 C 
ATOM     14  N   UNL     1       0.997   3.151   1.848  0.00  0.00    -0.336 N 
ATOM     15  C   UNL     1       3.610   4.148   1.739  0.00  0.00    +0.045 C 
ATOM     16  H   UNL     1       1.289   3.611   2.803  0.00  0.00    +0.147 HD
ENDROOT
BRANCH  13  17
ATOM     17  C   UNL     1      -1.262   3.623   2.597  0.00  0.00    +0.017 A 
ATOM     18  C   UNL     1      -2.291   4.500   2.312  0.00  0.00    +0.041 A 
ATOM     19  C   UNL     1      -3.069   5.010   3.335  0.00  0.00    +0.127 A 
ATOM     20  C   UNL     1      -2.813   4.652   4.646  0.00  0.00    +0.036 A 
ATOM     21  C   UNL     1      -1.782   3.780   4.936  0.00  0.00    +0.048 A 
ATOM     22  C   UNL     1      -1.003   3.263   3.911  0.00  0.00    +0.122 A 
BRANCH  19  23
ATOM     23  N   UNL     1      -4.175   5.944   3.026  0.00  0.00    +0.056 N 
ATOM     24  O   UNL     1      -4.859   6.396   3.927  0.00  0.00    -0.126 OA
ATOM     25  O   UNL     1      -4.402   6.259   1.872  0.00  0.00    -0.126 OA
ENDBRANCH  19  23
BRANCH  22  26
ATOM     26  O   UNL     1       0.012   2.405   4.194  0.00  0.00    -0.506 OA
ATOM     27  H   UNL     1       0.217   2.119   5.236  0.00  0.00    +0.292 HD
ENDBRANCH  22  26
ENDBRANCH  13  17
TORSDOF 3
