REMARK  Name = ZINC03565349
REMARK  10 active torsions:
REMARK  status: ('A' for Active; 'I' for Inactive)
REMARK    1  A    between atoms: C_1  and  C_2
REMARK    2  A    between atoms: C_2  and  C_4
REMARK    3  A    between atoms: C_2  and  S_17
REMARK    4  A    between atoms: N_6  and  C_7
REMARK    5  A    between atoms: C_9  and  N_14
REMARK    6  A    between atoms: S_17  and  C_18
REMARK    7  A    between atoms: C_21  and  C_24
REMARK    8  A    between atoms: N_22  and  N_23
REMARK    9  A    between atoms: C_27  and  O_30
REMARK   10  A    between atoms: O_30  and  C_31
REMARK                            x       y       z     vdW  Elec       q    Type
REMARK                         _______ _______ _______ _____ _____    ______ ____
ROOT
ATOM      1  C   UNL     1      -5.070   0.619   0.999  0.00  0.00    +0.209 A 
ATOM      2  N   UNL     1      -5.001  -0.631   0.600  0.00  0.00    -0.121 NA
ATOM      3  N   UNL     1      -6.130  -1.216   0.787  0.00  0.00    -0.127 NA
ATOM      4  C   UNL     1      -6.991  -0.374   1.309  0.00  0.00    +0.182 A 
ATOM      5  N   UNL     1      -6.338   0.828   1.460  0.00  0.00    -0.224 N 
ENDROOT
BRANCH   4   6
ATOM      6  C   UNL     1      -8.396  -0.662   1.665  0.00  0.00    +0.021 A 
ATOM      7  C   UNL     1      -8.832  -1.983   1.784  0.00  0.00    +0.015 A 
ATOM      8  C   UNL     1     -10.142  -2.248   2.121  0.00  0.00    +0.046 A 
ATOM      9  C   UNL     1     -11.031  -1.202   2.333  0.00  0.00    +0.127 A 
ATOM     10  C   UNL     1     -10.603   0.113   2.211  0.00  0.00    +0.046 A 
ATOM     11  C   UNL     1      -9.293   0.386   1.879  0.00  0.00    +0.015 A 
BRANCH   9  12
ATOM     12  O   UNL     1     -12.322  -1.467   2.660  0.00  0.00    -0.434 OA
BRANCH  12  13
ATOM     13  C   UNL     1     -12.695  -2.842   2.769  0.00  0.00    +0.541 C 
ATOM     14  F   UNL     1     -12.479  -3.482   1.544  0.00  0.00    -0.166 F 
ATOM     15  F   UNL     1     -11.923  -3.458   3.760  0.00  0.00    -0.166 F 
ENDBRANCH  12  13
ENDBRANCH   9  12
ENDBRANCH   4   6
BRANCH   5  16
ATOM     16  N   UNL     1      -6.852   1.988   1.967  0.00  0.00    -0.295 N 
ATOM     17  H   UNL     1      -7.898   2.024   2.308  0.00  0.00    +0.163 HD
ATOM     18  H   UNL     1      -6.220   2.885   2.035  0.00  0.00    +0.163 HD
ENDBRANCH   5  16
BRANCH   1  19
ATOM     19  S   UNL     1      -3.770   1.807   0.941  0.00  0.00    -0.072 S 
BRANCH  19  21
ATOM     20  C   UNL     1      -2.836   0.389  -1.198  0.00  0.00    +0.029 C 
ATOM     21  C   UNL     1      -2.451   0.795   0.225  0.00  0.00    +0.137 C 
BRANCH  21  22
ATOM     22  C   UNL     1      -1.170   1.590   0.192  0.00  0.00    +0.230 C 
ATOM     23  O   UNL     1      -1.206   2.800   0.258  0.00  0.00    -0.274 OA
ATOM     24  N   UNL     1       0.014   0.955   0.089  0.00  0.00    -0.283 N 
ATOM     25  H   UNL     1       0.043  -0.135  -0.058  0.00  0.00    +0.155 HD
BRANCH  24  26
ATOM     26  C   UNL     1       1.207   1.682   0.171  0.00  0.00    +0.054 A 
ATOM     27  C   UNL     1       1.236   2.899   0.838  0.00  0.00    +0.057 A 
ATOM     28  C   UNL     1       2.416   3.614   0.916  0.00  0.00    +0.128 A 
ATOM     29  C   UNL     1       3.567   3.119   0.331  0.00  0.00    +0.034 A 
ATOM     30  C   UNL     1       3.542   1.908  -0.335  0.00  0.00    +0.024 A 
ATOM     31  C   UNL     1       2.367   1.184  -0.412  0.00  0.00    +0.062 A 
ATOM     32 CL   UNL     1       2.338  -0.341  -1.241  0.00  0.00    -0.082 Cl
BRANCH  28  33
ATOM     33  N   UNL     1       2.447   4.912   1.628  0.00  0.00    +0.056 N 
ATOM     34  O   UNL     1       1.434   5.348   2.144  0.00  0.00    -0.126 OA
ATOM     35  O   UNL     1       3.486   5.543   1.697  0.00  0.00    -0.126 OA
ENDBRANCH  28  33
ENDBRANCH  24  26
ENDBRANCH  21  22
ENDBRANCH  19  21
ENDBRANCH   1  19
TORSDOF 9
