REMARK  Name = ZINC28730144
REMARK  11 active torsions:
REMARK  status: ('A' for Active; 'I' for Inactive)
REMARK    1  A    between atoms: C_1  and  C_2
REMARK    2  A    between atoms: C_3  and  C_16
REMARK    3  A    between atoms: C_4  and  C_15
REMARK    4  A    between atoms: N_5  and  C_7
REMARK    5  A    between atoms: C_7  and  C_8
REMARK    6  A    between atoms: C_16  and  N_17
REMARK    7  A    between atoms: N_17  and  C_18
REMARK    8  A    between atoms: N_17  and  C_19
REMARK    9  A    between atoms: C_19  and  C_20
REMARK   10  A    between atoms: N_22  and  C_23
REMARK   11  A    between atoms: C_24  and  C_30
REMARK                            x       y       z     vdW  Elec       q    Type
REMARK                         _______ _______ _______ _____ _____    ______ ____
ROOT
ATOM      1  N   UNL     1      -2.823   6.620   5.505  0.00  0.00    +0.386 N 
ATOM      2  C   UNL     1      -4.091   6.881   6.199  0.00  0.00    -0.095 C 
ATOM      3  H   UNL     1      -2.826   7.196   4.568  0.00  0.00    -0.081 HD
ENDROOT
BRANCH   1   4
ATOM      4  C   UNL     1      -2.696   5.198   5.160  0.00  0.00    -0.039 C 
BRANCH   4   7
ATOM      5  C   UNL     1      -2.368   5.350   2.012  0.00  0.00    +0.068 C 
ATOM      6  C   UNL     1      -3.600   4.899   2.751  0.00  0.00    +0.062 A 
ATOM      7  C   UNL     1      -3.745   4.832   4.141  0.00  0.00    -0.021 A 
ATOM      8  C   UNL     1      -4.994   4.387   4.409  0.00  0.00    +0.038 A 
ATOM      9  N   UNL     1      -5.615   4.171   3.231  0.00  0.00    -0.264 N 
ATOM     10  N   UNL     1      -4.721   4.503   2.205  0.00  0.00    -0.176 NA
ATOM     11  C   UNL     1      -5.585   4.169   5.778  0.00  0.00    +0.065 C 
BRANCH   9  12
ATOM     12  C   UNL     1      -6.985   3.681   3.056  0.00  0.00    +0.180 C 
BRANCH  12  13
ATOM     13  C   UNL     1      -6.975   2.176   2.982  0.00  0.00    -0.008 A 
ATOM     14  C   UNL     1      -7.306   1.427   4.096  0.00  0.00    +0.007 A 
ATOM     15  C   UNL     1      -7.297   0.046   4.028  0.00  0.00    +0.000 A 
ATOM     16  C   UNL     1      -6.957  -0.586   2.847  0.00  0.00    +0.001 A 
ATOM     17  C   UNL     1      -6.627   0.161   1.732  0.00  0.00    +0.020 A 
ATOM     18  C   UNL     1      -6.635   1.544   1.800  0.00  0.00    +0.046 A 
ATOM     19 CL   UNL     1      -6.220   2.483   0.400  0.00  0.00    -0.083 Cl
ENDBRANCH  12  13
ENDBRANCH   9  12
ENDBRANCH   4   7
ENDBRANCH   1   4
BRANCH   1  20
ATOM     20  C   UNL     1      -1.680   7.071   6.310  0.00  0.00    +0.019 C 
BRANCH  20  21
ATOM     21  C   UNL     1      -1.716   8.572   6.437  0.00  0.00    +0.201 C 
ATOM     22  O   UNL     1      -2.607   9.204   5.909  0.00  0.00    -0.278 OA
ATOM     23  N   UNL     1      -0.758   9.212   7.137  0.00  0.00    -0.285 N 
ATOM     24  H   UNL     1       0.002   8.635   7.684  0.00  0.00    +0.155 HD
BRANCH  23  25
ATOM     25  C   UNL     1      -0.732  10.611   7.168  0.00  0.00    +0.064 A 
ATOM     26  C   UNL     1      -1.309  11.295   8.230  0.00  0.00    +0.077 A 
ATOM     27  C   UNL     1      -1.276  12.675   8.260  0.00  0.00    +0.014 A 
ATOM     28  C   UNL     1      -0.679  13.378   7.229  0.00  0.00    +0.002 A 
ATOM     29  C   UNL     1      -0.108  12.701   6.167  0.00  0.00    +0.022 A 
ATOM     30  C   UNL     1      -0.132  11.319   6.133  0.00  0.00    +0.063 A 
ATOM     31 CL   UNL     1       0.586  10.470   4.800  0.00  0.00    -0.082 Cl
BRANCH  26  32
ATOM     32  C   UNL     1      -1.965  10.531   9.351  0.00  0.00    +0.419 C 
ATOM     33  F   UNL     1      -2.470  11.431  10.296  0.00  0.00    -0.166 F 
ATOM     34  F   UNL     1      -3.012   9.758   8.838  0.00  0.00    -0.166 F 
ATOM     35  F   UNL     1      -1.023   9.695   9.960  0.00  0.00    -0.166 F 
ENDBRANCH  26  32
ENDBRANCH  23  25
ENDBRANCH  20  21
ENDBRANCH   1  20
TORSDOF 8
