REMARK  Name = ZINC09601872
REMARK  11 active torsions:
REMARK  status: ('A' for Active; 'I' for Inactive)
REMARK    1  A    between atoms: C_1  and  C_2
REMARK    2  A    between atoms: C_5  and  C_8
REMARK    3  A    between atoms: C_8  and  S_9
REMARK    4  A    between atoms: S_9  and  C_10
REMARK    5  A    between atoms: C_23  and  C_26
REMARK    6  A    between atoms: C_28  and  O_36
REMARK    7  A    between atoms: C_29  and  O_34
REMARK    8  A    between atoms: C_30  and  O_32
REMARK    9  A    between atoms: O_32  and  C_33
REMARK   10  A    between atoms: O_34  and  C_35
REMARK   11  A    between atoms: O_36  and  C_37
REMARK                            x       y       z     vdW  Elec       q    Type
REMARK                         _______ _______ _______ _____ _____    ______ ____
ROOT
ATOM      1  C   UNL     1      -4.755   5.251   0.138  0.00  0.00    +0.213 A 
ATOM      2  N   UNL     1      -3.837   5.609  -0.756  0.00  0.00    -0.184 NA
ATOM      3  C   UNL     1      -2.693   4.949  -0.807  0.00  0.00    +0.248 A 
ATOM      4  C   UNL     1      -2.482   3.884   0.098  0.00  0.00    +0.156 A 
ATOM      5  N   UNL     1      -3.438   3.576   0.961  0.00  0.00    -0.141 NA
ATOM      6  N   UNL     1      -4.539   4.244   0.975  0.00  0.00    -0.122 NA
ATOM      7  C   UNL     1      -1.204   3.143   0.067  0.00  0.00    +0.028 A 
ATOM      8  C   UNL     1      -1.168   1.754   0.070  0.00  0.00    +0.012 A 
ATOM      9  C   UNL     1       0.049   1.099   0.069  0.00  0.00    +0.001 A 
ATOM     10  C   UNL     1       1.231   1.818   0.051  0.00  0.00    +0.002 A 
ATOM     11  C   UNL     1       1.210   3.200   0.034  0.00  0.00    +0.024 A 
ATOM     12  C   UNL     1       0.001   3.870   0.039  0.00  0.00    +0.039 A 
ATOM     13  N   UNL     1      -0.058   5.267  -0.000  0.00  0.00    -0.305 N 
ATOM     14  C   UNL     1      -0.562   5.915  -1.207  0.00  0.00    +0.294 C 
ATOM     15  O   UNL     1      -1.731   5.272  -1.704  0.00  0.00    -0.449 OA
ATOM     16  H   UNL     1       0.230   5.795   0.761  0.00  0.00    +0.150 HD
ENDROOT
BRANCH  14  17
ATOM     17  C   UNL     1       0.507   5.875  -2.268  0.00  0.00    +0.018 A 
ATOM     18  C   UNL     1       1.830   6.078  -1.922  0.00  0.00    +0.058 A 
ATOM     19  C   UNL     1       2.817   6.036  -2.895  0.00  0.00    +0.166 A 
ATOM     20  C   UNL     1       2.474   5.801  -4.221  0.00  0.00    +0.204 A 
ATOM     21  C   UNL     1       1.142   5.603  -4.566  0.00  0.00    +0.166 A 
ATOM     22  C   UNL     1       0.161   5.641  -3.586  0.00  0.00    +0.058 A 
BRANCH  21  23
ATOM     23  O   UNL     1       0.801   5.372  -5.862  0.00  0.00    -0.491 OA
ATOM     24  C   UNL     1      -0.586   5.177  -6.143  0.00  0.00    +0.277 C 
ENDBRANCH  21  23
BRANCH  20  25
ATOM     25  O   UNL     1       3.439   5.765  -5.180  0.00  0.00    -0.488 OA
ATOM     26  C   UNL     1       3.762   7.000  -5.823  0.00  0.00    +0.277 C 
ENDBRANCH  20  25
BRANCH  19  27
ATOM     27  O   UNL     1       4.119   6.230  -2.553  0.00  0.00    -0.491 OA
ATOM     28  C   UNL     1       4.398   6.466  -1.172  0.00  0.00    +0.277 C 
ENDBRANCH  19  27
ENDBRANCH  14  17
BRANCH   1  29
ATOM     29  S   UNL     1      -6.282   6.127   0.211  0.00  0.00    -0.080 S 
BRANCH  29  30
ATOM     30  C   UNL     1      -7.094   5.231   1.558  0.00  0.00    +0.112 C 
BRANCH  30  35
ATOM     31  C   UNL     1     -12.321   7.505   2.506  0.00  0.00    +0.044 C 
ATOM     32  C   UNL     1     -10.958   6.912   2.259  0.00  0.00    -0.050 A 
ATOM     33  C   UNL     1     -10.808   5.879   1.353  0.00  0.00    +0.003 A 
ATOM     34  C   UNL     1      -9.557   5.335   1.126  0.00  0.00    +0.005 A 
ATOM     35  C   UNL     1      -8.457   5.824   1.805  0.00  0.00    -0.037 A 
ATOM     36  C   UNL     1      -8.608   6.854   2.716  0.00  0.00    +0.005 A 
ATOM     37  C   UNL     1      -9.858   7.400   2.940  0.00  0.00    +0.003 A 
ENDBRANCH  30  35
ENDBRANCH  29  30
ENDBRANCH   1  29
TORSDOF 7
