REMARK  Name = ZINC33048158
REMARK  7 active torsions:
REMARK  status: ('A' for Active; 'I' for Inactive)
REMARK    1  A    between atoms: C_1  and  C_2
REMARK    2  A    between atoms: C_2  and  C_3
REMARK    3  A    between atoms: C_6  and  N_9
REMARK    4  A    between atoms: C_10  and  C_18
REMARK    5  A    between atoms: C_18  and  N_19
REMARK    6  A    between atoms: N_22  and  S_25
REMARK    7  A    between atoms: S_25  and  C_28
REMARK                            x       y       z     vdW  Elec       q    Type
REMARK                         _______ _______ _______ _____ _____    ______ ____
ROOT
ATOM      1  C   UNL     1      -1.262   2.144   0.020  0.00  0.00    +0.157 C 
ENDROOT
BRANCH   1   3
ATOM      2  N   UNL     1       1.259   1.782  -0.000  0.00  0.00    -0.281 N 
ATOM      3  C   UNL     1      -0.016   1.297   0.009  0.00  0.00    +0.108 A 
ATOM      4  N   UNL     1       0.002  -0.004   0.002  0.00  0.00    -0.341 N 
ATOM      5  C   UNL     1       1.287  -0.441  -0.013  0.00  0.00    +0.084 A 
ATOM      6  C   UNL     1       2.113   0.698  -0.014  0.00  0.00    +0.163 A 
ATOM      7  N   UNL     1       3.429   0.569  -0.028  0.00  0.00    -0.236 NA
ATOM      8  C   UNL     1       4.007  -0.615  -0.040  0.00  0.00    +0.113 A 
ATOM      9  C   UNL     1       3.259  -1.782  -0.039  0.00  0.00    +0.022 A 
ATOM     10  C   UNL     1       1.879  -1.707  -0.025  0.00  0.00    +0.031 A 
ATOM     11  H   UNL     1      -0.943  -0.567   0.008  0.00  0.00    +0.167 HD
BRANCH   2  15
ATOM     12  C   UNL     1       2.371   5.799   0.009  0.00  0.00    -0.047 A 
ATOM     13  C   UNL     1       2.685   4.994   1.088  0.00  0.00    +0.005 A 
ATOM     14  C   UNL     1       2.317   3.662   1.088  0.00  0.00    +0.026 A 
ATOM     15  C   UNL     1       1.632   3.133   0.003  0.00  0.00    +0.050 A 
ATOM     16  C   UNL     1       1.323   3.943  -1.082  0.00  0.00    +0.026 A 
ATOM     17  C   UNL     1       1.688   5.275  -1.073  0.00  0.00    +0.005 A 
BRANCH  12  19
ATOM     18  C   UNL     1       4.164   7.397  -0.610  0.00  0.00    +0.009 C 
ATOM     19  C   UNL     1       2.773   7.252   0.012  0.00  0.00    +0.032 C 
ENDBRANCH  12  19
ENDBRANCH   2  15
ENDBRANCH   1   3
BRANCH   1  20
ATOM     20  N   UNL     1      -1.660   2.412   1.408  0.00  0.00    -0.293 NA
ATOM     21  C   UNL     1      -2.064   1.174   2.089  0.00  0.00    +0.102 C 
ATOM     22  C   UNL     1      -2.296   1.464   3.575  0.00  0.00    +0.125 C 
ATOM     23  N   UNL     1      -3.251   2.577   3.690  0.00  0.00    -0.174 NA
ATOM     24  C   UNL     1      -2.983   3.805   2.926  0.00  0.00    +0.125 C 
ATOM     25  C   UNL     1      -2.724   3.423   1.465  0.00  0.00    +0.102 C 
BRANCH  23  26
ATOM     26  S   UNL     1      -4.590   2.451   4.655  0.00  0.00    +0.061 S 
ATOM     27  O   UNL     1      -4.293   1.468   5.637  0.00  0.00    -0.153 OA
ATOM     28  O   UNL     1      -4.971   3.777   4.997  0.00  0.00    -0.153 OA
BRANCH  26  29
ATOM     29  C   UNL     1      -5.888   1.795   3.661  0.00  0.00    +0.106 A 
ATOM     30  C   UNL     1      -6.072   0.427   3.578  0.00  0.00    +0.029 A 
ATOM     31  C   UNL     1      -7.091  -0.085   2.799  0.00  0.00    +0.006 A 
ATOM     32  C   UNL     1      -7.929   0.766   2.099  0.00  0.00    -0.044 A 
ATOM     33  C   UNL     1      -7.745   2.134   2.182  0.00  0.00    -0.042 A 
ATOM     34  C   UNL     1      -6.727   2.646   2.969  0.00  0.00    +0.032 A 
ATOM     35  C   UNL     1      -8.780   2.842   1.334  0.00  0.00    +0.036 C 
ATOM     36  C   UNL     1      -9.880   1.789   1.077  0.00  0.00    +0.009 C 
ATOM     37  C   UNL     1      -9.100   0.462   1.190  0.00  0.00    +0.036 C 
ENDBRANCH  26  29
ENDBRANCH  23  26
ENDBRANCH   1  20
TORSDOF 6
