REMARK  Name = ZINC02411197
REMARK  11 active torsions:
REMARK  status: ('A' for Active; 'I' for Inactive)
REMARK    1  A    between atoms: C_1  and  C_2
REMARK    2  A    between atoms: C_2  and  C_3
REMARK    3  A    between atoms: C_2  and  C_4
REMARK    4  A    between atoms: C_10  and  S_16
REMARK    5  A    between atoms: C_12  and  S_14
REMARK    6  A    between atoms: S_14  and  C_15
REMARK    7  A    between atoms: S_16  and  C_17
REMARK    8  A    between atoms: C_17  and  C_18
REMARK    9  A    between atoms: N_20  and  C_21
REMARK   10  A    between atoms: C_26  and  O_27
REMARK   11  A    between atoms: O_27  and  C_28
REMARK                            x       y       z     vdW  Elec       q    Type
REMARK                         _______ _______ _______ _____ _____    ______ ____
ROOT
ATOM      1  C   UNL     1      -0.054  -0.006  -0.027  0.00  0.00    +0.049 A 
ATOM      2  C   UNL     1      -0.639  -0.709   1.018  0.00  0.00    -0.022 A 
ATOM      3  C   UNL     1      -0.623  -2.085   1.011  0.00  0.00    -0.031 A 
ATOM      4  C   UNL     1       0.001  -2.765  -0.058  0.00  0.00    +0.037 A 
ATOM      5  C   UNL     1       0.130  -4.222  -0.248  0.00  0.00    +0.093 A 
ATOM      6  C   UNL     1       0.799  -4.631  -1.406  0.00  0.00    +0.072 A 
ATOM      7  C   UNL     1       0.980  -5.979  -1.691  0.00  0.00    +0.116 A 
ATOM      8  N   UNL     1       0.499  -6.879  -0.833  0.00  0.00    -0.214 NA
ATOM      9  C   UNL     1      -0.133  -6.478   0.263  0.00  0.00    +0.190 A 
ATOM     10  N   UNL     1      -0.320  -5.209   0.561  0.00  0.00    -0.221 NA
ATOM     11  S   UNL     1       1.247  -3.123  -2.221  0.00  0.00    -0.064 S 
ATOM     12  C   UNL     1       0.568  -1.961  -1.063  0.00  0.00    +0.111 A 
ATOM     13  N   UNL     1       0.527  -0.646  -1.022  0.00  0.00    -0.244 NA
ATOM     14  C   UNL     1      -1.322  -2.621   2.238  0.00  0.00    +0.036 C 
ATOM     15  C   UNL     1      -2.151  -1.435   2.776  0.00  0.00    +0.009 C 
ATOM     16  C   UNL     1      -1.363  -0.215   2.253  0.00  0.00    +0.037 C 
ENDROOT
BRANCH   1  18
ATOM     17  C   UNL     1       1.356   2.034  -0.020  0.00  0.00    +0.014 C 
ATOM     18  C   UNL     1      -0.078   1.501  -0.020  0.00  0.00    +0.032 C 
ATOM     19  C   UNL     1      -0.809   2.005  -1.266  0.00  0.00    +0.014 C 
ENDBRANCH   1  18
BRANCH   9  20
ATOM     20  S   UNL     1      -0.752  -7.701   1.370  0.00  0.00    -0.089 S 
ATOM     21  C   UNL     1      -0.235  -9.202   0.501  0.00  0.00    +0.093 C 
ENDBRANCH   9  20
BRANCH   7  22
ATOM     22  S   UNL     1       1.823  -6.487  -3.152  0.00  0.00    -0.095 S 
BRANCH  22  23
ATOM     23  C   UNL     1       1.734  -8.284  -2.958  0.00  0.00    +0.172 C 
BRANCH  23  24
ATOM     24  C   UNL     1       2.411  -8.950  -4.128  0.00  0.00    +0.228 C 
ATOM     25  O   UNL     1       2.906  -8.276  -5.006  0.00  0.00    -0.275 OA
ATOM     26  N   UNL     1       2.468 -10.295  -4.198  0.00  0.00    -0.282 N 
ATOM     27  H   UNL     1       2.144 -10.833  -3.458  0.00  0.00    +0.155 HD
BRANCH  26  28
ATOM     28  C   UNL     1       2.994 -10.916  -5.338  0.00  0.00    +0.076 A 
ATOM     29  C   UNL     1       2.979 -10.256  -6.559  0.00  0.00    +0.027 A 
ATOM     30  C   UNL     1       3.503 -10.868  -7.681  0.00  0.00    +0.002 A 
ATOM     31  C   UNL     1       4.033 -12.142  -7.594  0.00  0.00    +0.004 A 
ATOM     32  C   UNL     1       4.046 -12.808  -6.383  0.00  0.00    +0.047 A 
ATOM     33  C   UNL     1       3.528 -12.199  -5.252  0.00  0.00    +0.141 A 
BRANCH  33  34
ATOM     34  O   UNL     1       3.539 -12.854  -4.059  0.00  0.00    -0.493 OA
ATOM     35  C   UNL     1       4.102 -14.167  -4.046  0.00  0.00    +0.277 C 
ENDBRANCH  33  34
ENDBRANCH  26  28
ENDBRANCH  23  24
ENDBRANCH  22  23
ENDBRANCH   7  22
TORSDOF 7
