REMARK  Name = ZINC63295973
REMARK  7 active torsions:
REMARK  status: ('A' for Active; 'I' for Inactive)
REMARK    1  A    between atoms: C_1  and  C_2
REMARK    2  A    between atoms: C_2  and  N_3
REMARK    3  A    between atoms: C_5  and  C_15
REMARK    4  A    between atoms: C_11  and  C_14
REMARK    5  A    between atoms: N_17  and  C_18
REMARK    6  A    between atoms: C_18  and  C_19
REMARK    7  A    between atoms: C_19  and  C_20
REMARK                            x       y       z     vdW  Elec       q    Type
REMARK                         _______ _______ _______ _____ _____    ______ ____
ROOT
ATOM      1  C   UNL     1      -0.534  -2.776  -3.831  0.00  0.00    +0.245 C 
ATOM      2  O   UNL     1      -0.185  -3.832  -4.328  0.00  0.00    -0.270 OA
ATOM      3  N   UNL     1      -1.789  -2.323  -4.023  0.00  0.00    -0.311 N 
ATOM      4  H   UNL     1      -2.067  -1.482  -3.627  0.00  0.00    +0.149 HD
ENDROOT
BRANCH   1   7
ATOM      5  N   UNL     1       0.688  -0.476  -1.203  0.00  0.00    -0.312 N 
ATOM      6  C   UNL     1      -0.061  -0.723  -2.441  0.00  0.00    +0.150 C 
ATOM      7  C   UNL     1       0.374  -2.029  -3.054  0.00  0.00    +0.079 C 
ATOM      8  C   UNL     1       1.643  -2.491  -2.861  0.00  0.00    +0.199 C 
ATOM      9  O   UNL     1       2.043  -3.652  -3.429  0.00  0.00    -0.287 OA
ATOM     10  C   UNL     1       2.571  -1.710  -2.029  0.00  0.00    +0.060 A 
ATOM     11  C   UNL     1       2.057  -0.693  -1.197  0.00  0.00    +0.110 A 
ATOM     12  N   UNL     1       2.865   0.023  -0.438  0.00  0.00    -0.346 N 
ATOM     13  C   UNL     1       4.170  -0.180  -0.436  0.00  0.00    +0.014 A 
ATOM     14  C   UNL     1       4.750  -1.153  -1.229  0.00  0.00    +0.021 A 
ATOM     15  C   UNL     1       3.945  -1.948  -2.043  0.00  0.00    +0.017 A 
ATOM     16  C   UNL     1       5.047   0.667   0.450  0.00  0.00    +0.063 C 
ATOM     17  H   UNL     1       2.492   0.715   0.132  0.00  0.00    +0.167 HD
BRANCH   5  19
ATOM     18  C   UNL     1      -0.019   1.526   0.010  0.00  0.00    +0.024 C 
ATOM     19  C   UNL     1       0.002  -0.004   0.002  0.00  0.00    +0.103 C 
ENDBRANCH   5  19
ENDBRANCH   1   7
BRANCH   3  20
ATOM     20  C   UNL     1      -2.733  -3.100  -4.830  0.00  0.00    +0.109 C 
BRANCH  20  21
ATOM     21  C   UNL     1      -4.075  -2.368  -4.889  0.00  0.00    +0.052 C 
BRANCH  21  22
ATOM     22  C   UNL     1      -5.047  -3.167  -5.719  0.00  0.00    -0.040 C 
ATOM     23  C   UNL     1      -5.965  -4.052  -5.269  0.00  0.00    +0.000 A 
ATOM     24  C   UNL     1      -6.320  -4.518  -3.923  0.00  0.00    +0.030 A 
ATOM     25  C   UNL     1      -7.307  -5.434  -3.785  0.00  0.00    +0.042 A 
ATOM     26  C   UNL     1      -7.997  -5.947  -4.893  0.00  0.00    +0.022 A 
ATOM     27  C   UNL     1      -7.726  -5.568  -6.160  0.00  0.00    +0.027 A 
ATOM     28  C   UNL     1      -6.708  -4.610  -6.422  0.00  0.00    +0.043 A 
ATOM     29  N   UNL     1      -6.266  -4.090  -7.541  0.00  0.00    -0.380 N 
ATOM     30  C   UNL     1      -5.196  -3.137  -7.224  0.00  0.00    +0.144 C 
ATOM     31 CL   UNL     1      -7.730  -5.987  -2.195  0.00  0.00    -0.084 Cl
ATOM     32  H   UNL     1      -6.595  -4.297  -8.430  0.00  0.00    +0.160 HD
ENDBRANCH  21  22
ENDBRANCH  20  21
ENDBRANCH   3  20
TORSDOF 5
