REMARK  Name = ZINC40813554
REMARK  5 active torsions:
REMARK  status: ('A' for Active; 'I' for Inactive)
REMARK    1  A    between atoms: C_1  and  C_2
REMARK    2  A    between atoms: C_6  and  C_7
REMARK    3  A    between atoms: C_17  and  C_19
REMARK    4  A    between atoms: N_24  and  N_25
REMARK    5  A    between atoms: C_26  and  C_28
REMARK                            x       y       z     vdW  Elec       q    Type
REMARK                         _______ _______ _______ _____ _____    ______ ____
ROOT
ATOM      1  C   UNL     1       0.068   1.291  -0.317  0.00  0.00    +0.048 C 
ATOM      2  C   UNL     1      -0.190  -0.189  -0.200  0.00  0.00    +0.009 A 
ATOM      3  C   UNL     1      -0.366  -1.097  -1.252  0.00  0.00    +0.042 A 
ATOM      4  C   UNL     1      -0.576  -2.337  -0.695  0.00  0.00    +0.115 A 
ATOM      5  O   UNL     1      -0.529  -2.207   0.628  0.00  0.00    -0.454 OA
ATOM      6  C   UNL     1      -0.293  -0.915   0.954  0.00  0.00    +0.193 A 
ATOM      7  C   UNL     1      -0.812  -3.576  -1.520  0.00  0.00    +0.075 C 
ATOM      8  C   UNL     1      -1.284  -3.174  -2.920  0.00  0.00    +0.014 C 
ATOM      9  C   UNL     1      -0.316  -2.165  -3.547  0.00  0.00    +0.058 C 
ATOM     10  C   UNL     1      -0.350  -0.891  -2.717  0.00  0.00    +0.070 C 
ATOM     11  N   UNL     1      -0.365   0.290  -3.254  0.00  0.00    -0.184 NA
ENDROOT
BRANCH   6  12
ATOM     12  C   UNL     1      -0.171  -0.383   2.315  0.00  0.00    +0.287 C 
ATOM     13  O   UNL     1      -0.084   0.818   2.493  0.00  0.00    -0.266 OA
ATOM     14  N   UNL     1      -0.157  -1.224   3.368  0.00  0.00    -0.262 N 
ATOM     15  C   UNL     1      -0.153  -0.828   4.709  0.00  0.00    +0.040 A 
ATOM     16  C   UNL     1      -0.163   0.458   5.252  0.00  0.00    +0.024 A 
ATOM     17  C   UNL     1      -0.158   0.635   6.619  0.00  0.00    +0.002 A 
ATOM     18  C   UNL     1      -0.142  -0.460   7.463  0.00  0.00    +0.000 A 
ATOM     19  C   UNL     1      -0.132  -1.737   6.933  0.00  0.00    +0.005 A 
ATOM     20  C   UNL     1      -0.138  -1.919   5.563  0.00  0.00    -0.024 A 
ATOM     21  C   UNL     1      -0.130  -3.182   4.731  0.00  0.00    +0.059 C 
ATOM     22  C   UNL     1      -0.148  -2.686   3.276  0.00  0.00    +0.083 C 
ATOM     23  C   UNL     1       1.105  -3.164   2.539  0.00  0.00    +0.029 C 
ENDBRANCH   6  12
BRANCH  11  24
ATOM     24  N   UNL     1      -0.349   0.426  -4.648  0.00  0.00    -0.203 N 
ATOM     25  C   UNL     1      -0.365   1.652  -5.207  0.00  0.00    +0.264 C 
ATOM     26  O   UNL     1      -0.393   2.642  -4.500  0.00  0.00    -0.268 OA
ATOM     27  H   UNL     1      -0.327  -0.363  -5.212  0.00  0.00    +0.178 HD
BRANCH  25  28
ATOM     28  C   UNL     1      -0.348   1.795  -6.673  0.00  0.00    +0.046 A 
ATOM     29  C   UNL     1      -0.178   0.685  -7.492  0.00  0.00    +0.014 A 
ATOM     30  C   UNL     1      -0.163   0.823  -8.873  0.00  0.00    +0.001 A 
ATOM     31  C   UNL     1      -0.312   2.034  -9.476  0.00  0.00    +0.008 A 
ATOM     32  C   UNL     1      -0.488   3.199  -8.711  0.00  0.00    -0.017 A 
ATOM     33  C   UNL     1      -0.516   3.105  -7.298  0.00  0.00    -0.006 A 
ATOM     34  C   UNL     1      -0.696   4.263  -6.531  0.00  0.00    +0.009 A 
ATOM     35  C   UNL     1      -0.848   5.466  -7.154  0.00  0.00    +0.001 A 
ATOM     36  C   UNL     1      -0.828   5.560  -8.543  0.00  0.00    +0.001 A 
ATOM     37  C   UNL     1      -0.641   4.457  -9.319  0.00  0.00    +0.008 A 
ENDBRANCH  25  28
ENDBRANCH  11  24
TORSDOF 3
