REMARK  Name = ZINC08763174
REMARK  12 active torsions:
REMARK  status: ('A' for Active; 'I' for Inactive)
REMARK    1  A    between atoms: C_1  and  C_2
REMARK    2  A    between atoms: C_6  and  C_8
REMARK    3  A    between atoms: C_8  and  C_10
REMARK    4  A    between atoms: C_8  and  C_11
REMARK    5  A    between atoms: C_13  and  O_40
REMARK    6  A    between atoms: C_18  and  C_39
REMARK    7  A    between atoms: C_28  and  C_38
REMARK    8  A    between atoms: C_31  and  O_34
REMARK    9  A    between atoms: O_34  and  C_35
REMARK   10  A    between atoms: C_35  and  C_37
REMARK   11  A    between atoms: O_40  and  C_41
REMARK   12  A    between atoms: C_41  and  C_43
REMARK                            x       y       z     vdW  Elec       q    Type
REMARK                         _______ _______ _______ _____ _____    ______ ____
ROOT
ATOM      1  C   UNL     1       0.868   1.667  -4.318  0.00  0.00    +0.044 C 
ATOM      2  C   UNL     1       1.525   0.355  -3.812  0.00  0.00    +0.181 C 
ATOM      3  C   UNL     1       0.756  -0.057  -2.527  0.00  0.00    +0.049 C 
ATOM      4  C   UNL     1      -0.479   0.857  -2.535  0.00  0.00    +0.003 C 
ATOM      5  C   UNL     1       0.100   2.177  -3.082  0.00  0.00    -0.022 C 
ATOM      6  C   UNL     1      -0.966   3.206  -3.334  0.00  0.00    +0.007 C 
ATOM      7  C   UNL     1      -2.118   3.076  -2.322  0.00  0.00    +0.005 C 
ATOM      8  C   UNL     1      -1.616   2.480  -1.014  0.00  0.00    +0.003 C 
ATOM      9  C   UNL     1      -1.213   1.018  -1.242  0.00  0.00    +0.000 C 
ATOM     10  C   UNL     1      -0.452   0.547  -0.004  0.00  0.00    +0.031 C 
ATOM     11  C   UNL     1      -1.365   0.726   1.181  0.00  0.00    -0.027 C 
ATOM     12  C   UNL     1      -2.335   1.587   1.211  0.00  0.00    -0.064 C 
ATOM     13  C   UNL     1      -2.665   2.543   0.090  0.00  0.00    -0.008 C 
ATOM     14  C   UNL     1      -4.065   2.229  -0.424  0.00  0.00    +0.015 C 
ATOM     15  C   UNL     1      -4.750   1.212   0.487  0.00  0.00    +0.046 C 
ATOM     16  C   UNL     1      -4.684   1.622   1.954  0.00  0.00    +0.180 C 
ATOM     17  C   UNL     1      -3.230   1.649   2.437  0.00  0.00    +0.075 C 
ATOM     18  C   UNL     1      -2.658   3.969   0.655  0.00  0.00    +0.016 C 
ATOM     19  C   UNL     1       1.172   2.753  -2.140  0.00  0.00    +0.012 C 
ENDROOT
BRANCH   1  20
ATOM     20  C   UNL     1      -0.058   1.370  -5.490  0.00  0.00    +0.035 C 
ATOM     21  C   UNL     1      -1.281   0.597  -4.992  0.00  0.00    +0.014 C 
BRANCH  20  26
ATOM     22  C   UNL     1      -1.581   6.386  -7.862  0.00  0.00    +0.009 C 
ATOM     23  C   UNL     1      -0.973   5.034  -7.485  0.00  0.00    +0.005 C 
ATOM     24  C   UNL     1      -2.041   3.938  -7.595  0.00  0.00    +0.011 C 
ATOM     25  C   UNL     1      -1.365   2.587  -7.346  0.00  0.00    +0.049 C 
ATOM     26  C   UNL     1      -0.504   2.665  -6.119  0.00  0.00    -0.008 C 
ATOM     27  C   UNL     1      -0.475   5.078  -6.039  0.00  0.00    +0.115 C 
ATOM     28  N   UNL     1      -0.072   3.729  -5.489  0.00  0.00    -0.390 N 
ATOM     29  H   UNL     1       0.518   3.650  -4.653  0.00  0.00    +0.159 HD
ENDBRANCH  20  26
ENDBRANCH   1  20
BRANCH  16  30
ATOM     30  O   UNL     1      -5.285   2.933   2.127  0.00  0.00    -0.461 OA
BRANCH  30  31
ATOM     31  C   UNL     1      -5.867   3.186   3.309  0.00  0.00    +0.304 C 
ATOM     32  O   UNL     1      -5.874   2.340   4.172  0.00  0.00    -0.251 OA
ATOM     33  C   UNL     1      -6.511   4.525   3.561  0.00  0.00    +0.136 C 
ENDBRANCH  30  31
ENDBRANCH  16  30
BRANCH   2  34
ATOM     34  O   UNL     1       1.398  -0.681  -4.822  0.00  0.00    -0.461 OA
BRANCH  34  35
ATOM     35  C   UNL     1       2.365  -1.611  -4.866  0.00  0.00    +0.304 C 
ATOM     36  O   UNL     1       3.287  -1.561  -4.086  0.00  0.00    -0.251 OA
ATOM     37  C   UNL     1       2.301  -2.716  -5.888  0.00  0.00    +0.136 C 
ENDBRANCH  34  35
ENDBRANCH   2  34
TORSDOF 6
