REMARK  Name = ZINC38971551
REMARK  7 active torsions:
REMARK  status: ('A' for Active; 'I' for Inactive)
REMARK    1  A    between atoms: C_4  and  C_7
REMARK    2  A    between atoms: C_9  and  C_13
REMARK    3  A    between atoms: C_17  and  S_35
REMARK    4  A    between atoms: N_19  and  N_20
REMARK    5  A    between atoms: C_21  and  C_22
REMARK    6  A    between atoms: C_26  and  O_28
REMARK    7  A    between atoms: O_28  and  C_29
REMARK                            x       y       z     vdW  Elec       q    Type
REMARK                         _______ _______ _______ _____ _____    ______ ____
ROOT
ATOM      1  C   UNL     1       6.016  -3.684   2.578  0.00  0.00    +0.206 C 
ATOM      2  N   UNL     1       5.547  -4.910   3.261  0.00  0.00    -0.231 NA
ATOM      3  N   UNL     1       6.650  -5.270   4.166  0.00  0.00    -0.225 NA
ATOM      4  C   UNL     1       7.859  -4.935   3.368  0.00  0.00    +0.231 C 
ATOM      5  N   UNL     1       7.488  -3.700   2.646  0.00  0.00    -0.207 N 
ATOM      6  H   UNL     1       4.698  -4.734   3.778  0.00  0.00    +0.143 HD
ATOM      7  H   UNL     1       6.627  -6.253   4.392  0.00  0.00    +0.143 HD
ENDROOT
BRANCH   1  10
ATOM      8  C   UNL     1       3.758  -2.545   0.382  0.00  0.00    +0.091 C 
ATOM      9  C   UNL     1       4.044  -3.690   1.030  0.00  0.00    +0.034 C 
ATOM     10  C   UNL     1       5.560  -3.690   1.117  0.00  0.00    +0.190 C 
ATOM     11  N   UNL     1       5.934  -2.434   0.447  0.00  0.00    -0.176 NA
ATOM     12  N   UNL     1       4.900  -1.877   0.073  0.00  0.00    -0.154 NA
BRANCH   8  16
ATOM     13  C   UNL     1      -0.166  -1.216  -0.579  0.00  0.00    +0.000 A 
ATOM     14  C   UNL     1       0.928  -0.453  -0.943  0.00  0.00    +0.001 A 
ATOM     15  C   UNL     1       2.204  -0.879  -0.633  0.00  0.00    +0.010 A 
ATOM     16  C   UNL     1       2.389  -2.081   0.047  0.00  0.00    +0.002 A 
ATOM     17  C   UNL     1       1.282  -2.846   0.411  0.00  0.00    +0.010 A 
ATOM     18  C   UNL     1       0.011  -2.411   0.096  0.00  0.00    +0.001 A 
ENDBRANCH   8  16
ENDBRANCH   1  10
BRANCH   5  19
ATOM     19  N   UNL     1       8.363  -2.735   2.129  0.00  0.00    -0.188 NA
ATOM     20  C   UNL     1       9.644  -2.936   2.163  0.00  0.00    +0.138 C 
BRANCH  20  21
ATOM     21  C   UNL     1      10.570  -1.855   1.778  0.00  0.00    -0.002 A 
ATOM     22  C   UNL     1      10.071  -0.612   1.381  0.00  0.00    +0.010 A 
ATOM     23  C   UNL     1      10.941   0.397   1.021  0.00  0.00    +0.004 A 
ATOM     24  C   UNL     1      12.307   0.182   1.052  0.00  0.00    +0.046 A 
ATOM     25  C   UNL     1      12.813  -1.050   1.445  0.00  0.00    +0.129 A 
ATOM     26  C   UNL     1      11.949  -2.068   1.813  0.00  0.00    +0.055 A 
BRANCH  25  27
ATOM     27  O   UNL     1      14.156  -1.255   1.473  0.00  0.00    -0.456 OA
BRANCH  27  28
ATOM     28  C   UNL     1      14.758  -1.693   0.336  0.00  0.00    +0.128 A 
ATOM     29  C   UNL     1      14.013  -1.871  -0.821  0.00  0.00    +0.046 A 
ATOM     30  C   UNL     1      14.628  -2.316  -1.975  0.00  0.00    +0.004 A 
ATOM     31  C   UNL     1      15.985  -2.584  -1.978  0.00  0.00    +0.000 A 
ATOM     32  C   UNL     1      16.729  -2.408  -0.827  0.00  0.00    +0.004 A 
ATOM     33  C   UNL     1      16.120  -1.958   0.329  0.00  0.00    +0.046 A 
ENDBRANCH  27  28
ENDBRANCH  25  27
ENDBRANCH  20  21
ENDBRANCH   5  19
BRANCH   4  34
ATOM     34  S   UNL     1       9.277  -4.635   4.459  0.00  0.00    -0.138 S 
ATOM     35  H   UNL     1       9.446  -5.804   5.102  0.00  0.00    +0.105 HD
ENDBRANCH   4  34
TORSDOF 7
