REMARK  Name = ZINC15911816
REMARK  13 active torsions:
REMARK  status: ('A' for Active; 'I' for Inactive)
REMARK    1  A    between atoms: C_1  and  C_2
REMARK    2  A    between atoms: C_2  and  O_3
REMARK    3  A    between atoms: O_3  and  C_4
REMARK    4  A    between atoms: C_9  and  N_10
REMARK    5  A    between atoms: N_12  and  C_32
REMARK    6  A    between atoms: C_15  and  C_18
REMARK    7  A    between atoms: C_18  and  C_19
REMARK    8  A    between atoms: N_21  and  C_22
REMARK    9  A    between atoms: C_24  and  N_29
REMARK   10  A    between atoms: C_32  and  C_34
REMARK   11  A    between atoms: C_32  and  C_35
REMARK   12  A    between atoms: C_35  and  C_36
REMARK   13  A    between atoms: C_35  and  C_37
REMARK                            x       y       z     vdW  Elec       q    Type
REMARK                         _______ _______ _______ _____ _____    ______ ____
ROOT
ATOM      1  N   UNL     1       0.104   5.060  -0.001  0.00  0.00    -0.222 NA
ATOM      2  C   UNL     1      -1.043   5.696  -0.013  0.00  0.00    +0.164 C 
ATOM      3  N   UNL     1      -1.262   7.058  -0.014  0.00  0.00    -0.247 N 
ATOM      4  C   UNL     1      -2.477   7.579  -0.029  0.00  0.00    +0.235 C 
ATOM      5  O   UNL     1      -2.665   8.777  -0.030  0.00  0.00    -0.274 OA
ATOM      6  C   UNL     1      -3.625   6.581  -0.045  0.00  0.00    +0.149 C 
ATOM      7  S   UNL     1      -2.689   5.001  -0.042  0.00  0.00    -0.077 S 
ENDROOT
BRANCH   1  13
ATOM      8  C   UNL     1       1.019   2.929   0.624  0.00  0.00    +0.146 A 
ATOM      9  C   UNL     1       1.042   1.553   0.473  0.00  0.00    +0.048 A 
ATOM     10  C   UNL     1       0.194   0.940  -0.431  0.00  0.00    +0.004 A 
ATOM     11  C   UNL     1      -0.678   1.696  -1.194  0.00  0.00    +0.002 A 
ATOM     12  C   UNL     1      -0.717   3.068  -1.052  0.00  0.00    +0.031 A 
ATOM     13  C   UNL     1       0.134   3.697  -0.142  0.00  0.00    +0.108 A 
BRANCH   8  14
ATOM     14  O   UNL     1       1.853   3.532   1.512  0.00  0.00    -0.490 OA
BRANCH  14  16
ATOM     15  C   UNL     1       3.583   3.537   3.199  0.00  0.00    +0.048 C 
ATOM     16  C   UNL     1       2.728   2.685   2.259  0.00  0.00    +0.226 C 
ENDBRANCH  14  16
ENDBRANCH   8  14
ENDBRANCH   1  13
BRANCH   3  17
ATOM     17  C   UNL     1      -0.107   7.959   0.001  0.00  0.00    +0.083 C 
ATOM     18  C   UNL     1       1.181   7.138  -0.076  0.00  0.00    +0.029 C 
BRANCH  17  19
ATOM     19  C   UNL     1      -0.115   8.776   1.295  0.00  0.00    +0.004 C 
ATOM     20  C   UNL     1      -0.019   7.831   2.495  0.00  0.00    +0.009 C 
ATOM     21  C   UNL     1       1.079   9.732   1.302  0.00  0.00    +0.009 C 
ENDBRANCH  17  19
ENDBRANCH   3  17
BRANCH   6  22
ATOM     22  C   UNL     1      -4.495   6.719   1.206  0.00  0.00    +0.120 C 
BRANCH  22  23
ATOM     23  C   UNL     1      -5.686   5.801   1.093  0.00  0.00    +0.219 C 
ATOM     24  O   UNL     1      -5.824   5.106   0.109  0.00  0.00    -0.275 OA
ATOM     25  N   UNL     1      -6.596   5.754   2.085  0.00  0.00    -0.284 N 
ATOM     26  H   UNL     1      -6.523   6.359   2.840  0.00  0.00    +0.155 HD
BRANCH  25  27
ATOM     27  C   UNL     1      -7.648   4.832   2.026  0.00  0.00    +0.054 A 
ATOM     28  C   UNL     1      -7.455   3.593   1.428  0.00  0.00    +0.057 A 
ATOM     29  C   UNL     1      -8.494   2.685   1.372  0.00  0.00    +0.128 A 
ATOM     30  C   UNL     1      -9.726   3.008   1.910  0.00  0.00    +0.034 A 
ATOM     31  C   UNL     1      -9.923   4.240   2.506  0.00  0.00    +0.024 A 
ATOM     32  C   UNL     1      -8.885   5.151   2.571  0.00  0.00    +0.062 A 
ATOM     33 CL   UNL     1      -9.130   6.695   3.326  0.00  0.00    -0.082 Cl
BRANCH  29  34
ATOM     34  N   UNL     1      -8.288   1.365   0.735  0.00  0.00    +0.056 N 
ATOM     35  O   UNL     1      -7.203   1.080   0.261  0.00  0.00    -0.126 OA
ATOM     36  O   UNL     1      -9.204   0.564   0.684  0.00  0.00    -0.126 OA
ENDBRANCH  29  34
ENDBRANCH  25  27
ENDBRANCH  22  23
ENDBRANCH   6  22
TORSDOF 9
