REMARK  Name = ZINC12642219
REMARK  9 active torsions:
REMARK  status: ('A' for Active; 'I' for Inactive)
REMARK    1  A    between atoms: C_4  and  C_7
REMARK    2  A    between atoms: C_7  and  N_61
REMARK    3  A    between atoms: C_10  and  N_13
REMARK    4  A    between atoms: C_14  and  C_16
REMARK    5  A    between atoms: C_16  and  S_17
REMARK    6  A    between atoms: S_17  and  C_18
REMARK    7  A    between atoms: C_21  and  C_29
REMARK    8  A    between atoms: N_22  and  C_23
REMARK    9  A    between atoms: C_29  and  C_30
REMARK                            x       y       z     vdW  Elec       q    Type
REMARK                         _______ _______ _______ _____ _____    ______ ____
ROOT
ATOM      1  C   UNL     1       0.155  -2.922   0.415  0.00  0.00    +0.173 C 
ENDROOT
BRANCH   1   3
ATOM      2  N   UNL     1      -0.702  -5.227   0.686  0.00  0.00    -0.314 N 
ATOM      3  C   UNL     1       0.362  -4.405   0.587  0.00  0.00    +0.223 C 
ATOM      4  O   UNL     1       1.485  -4.859   0.637  0.00  0.00    -0.275 OA
ATOM      5  H   UNL     1      -1.601  -4.863   0.646  0.00  0.00    +0.149 HD
BRANCH   2   8
ATOM      6  C   UNL     1      -1.805  -7.474   2.727  0.00  0.00    -0.077 C 
ATOM      7  C   UNL     1      -0.369  -7.021   2.352  0.00  0.00    +0.002 C 
ATOM      8  C   UNL     1      -0.502  -6.668   0.853  0.00  0.00    +0.055 C 
ATOM      9  C   UNL     1      -1.741  -7.441   0.364  0.00  0.00    -0.056 C 
ATOM     10  N   UNL     1      -2.233  -8.194   1.522  0.00  0.00    +0.384 N 
ATOM     11  H   UNL     1      -1.828  -9.138   1.521  0.00  0.00    -0.081 HD
BRANCH  10  12
ATOM     12  C   UNL     1      -3.723  -8.301   1.475  0.00  0.00    -0.043 C 
BRANCH  12  16
ATOM     13  C   UNL     1      -5.156  -9.909   5.164  0.00  0.00    +0.000 A 
ATOM     14  C   UNL     1      -5.006  -8.543   5.017  0.00  0.00    +0.000 A 
ATOM     15  C   UNL     1      -4.543  -8.022   3.824  0.00  0.00    +0.002 A 
ATOM     16  C   UNL     1      -4.228  -8.868   2.777  0.00  0.00    -0.064 A 
ATOM     17  C   UNL     1      -4.382 -10.234   2.922  0.00  0.00    +0.002 A 
ATOM     18  C   UNL     1      -4.841 -10.755   4.117  0.00  0.00    +0.000 A 
ENDBRANCH  12  16
ENDBRANCH  10  12
ENDBRANCH   2   8
ENDBRANCH   1   3
BRANCH   1  19
ATOM     19  S   UNL     1       1.763  -2.097   0.315  0.00  0.00    -0.076 S 
BRANCH  19  20
ATOM     20  C   UNL     1       1.238  -0.426   0.122  0.00  0.00    +0.197 A 
ATOM     21  N   UNL     1      -0.002   0.002   0.076  0.00  0.00    -0.122 NA
ATOM     22  N   UNL     1      -0.019   1.278  -0.073  0.00  0.00    -0.133 NA
ATOM     23  C   UNL     1       1.198   1.740  -0.131  0.00  0.00    +0.143 A 
ATOM     24  N   UNL     1       2.045   0.670  -0.009  0.00  0.00    -0.274 N 
BRANCH  24  25
ATOM     25  C   UNL     1       3.448   0.695  -0.016  0.00  0.00    +0.050 A 
ATOM     26  C   UNL     1       4.138   1.308   1.020  0.00  0.00    +0.026 A 
ATOM     27  C   UNL     1       5.519   1.327   1.013  0.00  0.00    +0.002 A 
ATOM     28  C   UNL     1       6.214   0.743  -0.031  0.00  0.00    +0.000 A 
ATOM     29  C   UNL     1       5.529   0.136  -1.067  0.00  0.00    +0.002 A 
ATOM     30  C   UNL     1       4.148   0.110  -1.062  0.00  0.00    +0.026 A 
ENDBRANCH  24  25
BRANCH  23  31
ATOM     31  C   UNL     1       1.600   3.183  -0.300  0.00  0.00    +0.119 C 
BRANCH  31  32
ATOM     32  C   UNL     1       1.603   3.534  -1.765  0.00  0.00    -0.003 A 
ATOM     33  C   UNL     1       0.622   4.101  -2.510  0.00  0.00    +0.011 A 
ATOM     34  C   UNL     1       0.851   4.338  -3.852  0.00  0.00    +0.008 A 
ATOM     35  C   UNL     1       2.046   3.988  -4.387  0.00  0.00    +0.045 A 
ATOM     36  S   UNL     1       2.898   3.306  -2.973  0.00  0.00    -0.101 S 
ENDBRANCH  31  32
ENDBRANCH  23  31
ENDBRANCH  19  20
ENDBRANCH   1  19
TORSDOF 9
