REMARK  Name = ZINC34990184
REMARK  3 active torsions:
REMARK  status: ('A' for Active; 'I' for Inactive)
REMARK    1  A    between atoms: C_3  and  N_11
REMARK    2  A    between atoms: C_4  and  N_8
REMARK    3  A    between atoms: N_11  and  C_12
REMARK                            x       y       z     vdW  Elec       q    Type
REMARK                         _______ _______ _______ _____ _____    ______ ____
ROOT
ATOM      1  N   UNL     1       3.627   2.041  -0.130  0.00  0.00    -0.339 N 
ATOM      2  H   UNL     1       4.457   1.543  -0.069  0.00  0.00    +0.146 HD
ENDROOT
BRANCH   1   3
ATOM      3  C   UNL     1       3.655   3.497  -0.288  0.00  0.00    +0.077 C 
ATOM      4  C   UNL     1       3.551   3.851  -1.773  0.00  0.00    +0.010 C 
ATOM      5  C   UNL     1       3.580   5.372  -1.937  0.00  0.00    +0.009 C 
ATOM      6  C   UNL     1       4.892   5.921  -1.373  0.00  0.00    -0.010 C 
ATOM      7  C   UNL     1       6.071   5.303  -2.128  0.00  0.00    +0.007 C 
ATOM      8  C   UNL     1       6.041   3.782  -1.963  0.00  0.00    -0.010 C 
ATOM      9  C   UNL     1       4.729   3.233  -2.528  0.00  0.00    +0.009 C 
ATOM     10  C   UNL     1       6.145   3.428  -0.479  0.00  0.00    +0.009 C 
ATOM     11  C   UNL     1       4.967   4.046   0.277  0.00  0.00    +0.010 C 
ATOM     12  C   UNL     1       4.996   5.567   0.112  0.00  0.00    +0.009 C 
ENDBRANCH   1   3
BRANCH   1  15
ATOM     13  C   UNL     1       0.010   1.393  -0.215  0.00  0.00    +0.022 A 
ATOM     14  C   UNL     1       1.218   2.060  -0.278  0.00  0.00    +0.026 A 
ATOM     15  C   UNL     1       2.403   1.368  -0.067  0.00  0.00    +0.058 A 
ATOM     16  C   UNL     1       2.371   0.007   0.205  0.00  0.00    +0.148 A 
ATOM     17  C   UNL     1       1.160  -0.655   0.266  0.00  0.00    +0.054 A 
ATOM     18  C   UNL     1      -0.020   0.037   0.056  0.00  0.00    +0.043 A 
ATOM     19 CL   UNL     1      -1.540  -0.799   0.134  0.00  0.00    -0.083 Cl
BRANCH  16  20
ATOM     20  N   UNL     1       3.632  -0.734   0.429  0.00  0.00    +0.058 N 
ATOM     21  O   UNL     1       3.753  -1.863   0.012  0.00  0.00    -0.126 OA
ATOM     22  O   UNL     1       4.542  -0.211   1.029  0.00  0.00    -0.126 OA
ENDBRANCH  16  20
ENDBRANCH   1  15
TORSDOF 3
