REMARK  Name = ZINC39467406
REMARK  5 active torsions:
REMARK  status: ('A' for Active; 'I' for Inactive)
REMARK    1  A    between atoms: C_4  and  O_7
REMARK    2  A    between atoms: O_7  and  S_8
REMARK    3  A    between atoms: S_8  and  C_11
REMARK    4  A    between atoms: P_27  and  C_30
REMARK    5  A    between atoms: C_35  and  O_36
REMARK                            x       y       z     vdW  Elec       q    Type
REMARK                         _______ _______ _______ _____ _____    ______ ____
ROOT
ATOM      1  C   UNL     1       3.192  -2.273   2.002  0.00  0.00    +0.142 C 
ATOM      2  C   UNL     1       3.740  -3.477   2.150  0.00  0.00    +0.007 C 
ATOM      3  C   UNL     1       2.912  -4.606   2.701  0.00  0.00    +0.006 C 
ATOM      4  C   UNL     1       3.486  -5.951   2.276  0.00  0.00    -0.046 C 
ATOM      5  N   UNL     1       3.467  -6.099   0.812  0.00  0.00    +0.398 N 
ATOM      6  C   UNL     1       2.092  -6.026   0.312  0.00  0.00    -0.020 C 
ATOM      7  C   UNL     1       1.467  -4.676   0.680  0.00  0.00    -0.003 C 
ATOM      8  C   UNL     1       1.477  -4.492   2.179  0.00  0.00    +0.017 C 
ATOM      9  C   UNL     1       0.961  -3.104   2.474  0.00  0.00    -0.001 C 
ATOM     10  C   UNL     1       1.788  -2.062   2.397  0.00  0.00    +0.065 C 
ATOM     11 CL   UNL     1       1.215  -0.463   2.752  0.00  0.00    -0.082 Cl
ATOM     12  C   UNL     1       2.042  -6.138  -1.218  0.00  0.00    +0.157 C 
ATOM     13  O   UNL     1       2.573  -7.412  -1.624  0.00  0.00    -0.316 OA
ATOM     14  P   UNL     1       4.020  -7.852  -1.024  0.00  0.00    +0.291 P 
ATOM     15  O   UNL     1       5.110  -7.193  -1.778  0.00  0.00    -0.269 OA
ATOM     16  N   UNL     1       4.012  -7.338   0.549  0.00  0.00    -0.288 NA
ATOM     17  H   UNL     1       4.381  -7.884   1.261  0.00  0.00    +0.111 HD
ATOM     18  H   UNL     1       4.035  -5.380   0.389  0.00  0.00    -0.055 HD
ENDROOT
BRANCH  14  19
ATOM     19  C   UNL     1       4.209  -9.655  -1.095  0.00  0.00    +0.091 A 
ATOM     20  C   UNL     1       3.795 -10.436  -0.033  0.00  0.00    +0.018 A 
ATOM     21  C   UNL     1       3.938 -11.810  -0.086  0.00  0.00    +0.001 A 
ATOM     22  C   UNL     1       4.497 -12.406  -1.202  0.00  0.00    +0.004 A 
ATOM     23  C   UNL     1       4.912 -11.630  -2.267  0.00  0.00    +0.046 A 
ATOM     24  C   UNL     1       4.763 -10.251  -2.218  0.00  0.00    +0.131 A 
BRANCH  24  25
ATOM     25  O   UNL     1       5.166  -9.486  -3.266  0.00  0.00    -0.506 OA
ATOM     26  H   UNL     1       6.086  -9.194  -3.210  0.00  0.00    +0.292 HD
ENDBRANCH  24  25
ENDBRANCH  14  19
BRANCH   1  27
ATOM     27  S   UNL     1       4.140  -0.941   1.346  0.00  0.00    +0.152 S 
ATOM     28  O   UNL     1       5.458  -1.436   1.154  0.00  0.00    -0.131 OA
ATOM     29  O   UNL     1       3.863   0.192   2.158  0.00  0.00    -0.131 OA
BRANCH  27  30
ATOM     30  O   UNL     1       3.586  -0.632  -0.037  0.00  0.00    -0.342 OA
BRANCH  30  34
ATOM     31  C   UNL     1      -0.017   1.378   0.010  0.00  0.00    +0.000 A 
ATOM     32  C   UNL     1       1.170   2.088   0.002  0.00  0.00    +0.004 A 
ATOM     33  C   UNL     1       2.377   1.417  -0.013  0.00  0.00    +0.048 A 
ATOM     34  C   UNL     1       2.399   0.030  -0.021  0.00  0.00    +0.157 A 
ATOM     35  C   UNL     1       1.207  -0.680  -0.013  0.00  0.00    +0.048 A 
ATOM     36  C   UNL     1       0.002  -0.004   0.002  0.00  0.00    +0.004 A 
ENDBRANCH  30  34
ENDBRANCH  27  30
ENDBRANCH   1  27
TORSDOF 5
