REMARK  Name = ZINC14470770
REMARK  8 active torsions:
REMARK  status: ('A' for Active; 'I' for Inactive)
REMARK    1  A    between atoms: C_1  and  C_2
REMARK    2  A    between atoms: C_2  and  N_3
REMARK    3  A    between atoms: N_3  and  C_4
REMARK    4  A    between atoms: N_3  and  S_6
REMARK    5  A    between atoms: C_4  and  C_5
REMARK    6  A    between atoms: S_6  and  C_9
REMARK    7  A    between atoms: C_22  and  C_25
REMARK    8  A    between atoms: C_29  and  N_31
REMARK                            x       y       z     vdW  Elec       q    Type
REMARK                         _______ _______ _______ _____ _____    ______ ____
ROOT
ATOM      1  C   UNL     1       0.002  -0.004   0.002  0.00  0.00    +0.106 A 
ATOM      2  C   UNL     1       1.206  -0.685  -0.014  0.00  0.00    +0.030 A 
ATOM      3  C   UNL     1       2.392   0.021  -0.024  0.00  0.00    +0.025 A 
ATOM      4  C   UNL     1       2.372   1.411  -0.017  0.00  0.00    +0.031 A 
ATOM      5  C   UNL     1       1.171   2.096   0.002  0.00  0.00    -0.018 A 
ATOM      6  C   UNL     1      -0.017   1.376   0.010  0.00  0.00    +0.034 A 
ATOM      7  C   UNL     1       1.086   3.599   0.021  0.00  0.00    +0.049 C 
ATOM      8  C   UNL     1       0.340   3.998   1.288  0.00  0.00    -0.023 C 
ATOM      9  C   UNL     1       1.187   4.303   2.239  0.00  0.00    -0.030 C 
ATOM     10  C   UNL     1       2.615   4.155   1.747  0.00  0.00    +0.033 C 
ATOM     11  C   UNL     1       2.463   4.261   0.211  0.00  0.00    +0.029 C 
ATOM     12  C   UNL     1       3.566   3.501  -0.500  0.00  0.00    +0.105 C 
ATOM     13  N   UNL     1       3.585   2.110  -0.033  0.00  0.00    -0.336 N 
ATOM     14  H   UNL     1       4.409   1.689   0.257  0.00  0.00    +0.147 HD
ENDROOT
BRANCH  12  15
ATOM     15  C   UNL     1       3.317   3.527  -1.986  0.00  0.00    -0.025 A 
ATOM     16  C   UNL     1       2.407   2.652  -2.550  0.00  0.00    +0.007 A 
ATOM     17  C   UNL     1       2.174   2.679  -3.912  0.00  0.00    +0.022 A 
ATOM     18  C   UNL     1       2.860   3.575  -4.713  0.00  0.00    +0.071 A 
ATOM     19  C   UNL     1       3.774   4.447  -4.149  0.00  0.00    +0.145 A 
ATOM     20  C   UNL     1       4.002   4.422  -2.786  0.00  0.00    +0.039 A 
ATOM     21 CL   UNL     1       2.573   3.605  -6.425  0.00  0.00    -0.081 Cl
BRANCH  19  22
ATOM     22  N   UNL     1       4.508   5.406  -5.005  0.00  0.00    +0.058 N 
ATOM     23  O   UNL     1       5.312   6.173  -4.509  0.00  0.00    -0.126 OA
ATOM     24  O   UNL     1       4.306   5.427  -6.207  0.00  0.00    -0.126 OA
ENDBRANCH  19  22
ENDBRANCH  12  15
BRANCH   1  25
ATOM     25  S   UNL     1      -1.514  -0.902   0.012  0.00  0.00    +0.061 S 
ATOM     26  O   UNL     1      -1.224  -2.183   0.553  0.00  0.00    -0.153 OA
ATOM     27  O   UNL     1      -2.493  -0.041   0.577  0.00  0.00    -0.153 OA
BRANCH  25  28
ATOM     28  N   UNL     1      -1.950  -1.143  -1.567  0.00  0.00    -0.177 NA
BRANCH  28  30
ATOM     29  C   UNL     1      -2.577  -3.422  -2.196  0.00  0.00    +0.022 C 
ATOM     30  C   UNL     1      -1.497  -2.341  -2.278  0.00  0.00    +0.106 C 
ENDBRANCH  28  30
BRANCH  28  31
ATOM     31  C   UNL     1      -2.790  -0.158  -2.254  0.00  0.00    +0.106 C 
ATOM     32  C   UNL     1      -1.902   0.817  -3.030  0.00  0.00    +0.022 C 
ENDBRANCH  28  31
ENDBRANCH  25  28
ENDBRANCH   1  25
TORSDOF 6
