REMARK  Name = ZINC27992019
REMARK  7 active torsions:
REMARK  status: ('A' for Active; 'I' for Inactive)
REMARK    1  A    between atoms: C_10  and  C_11
REMARK    2  A    between atoms: C_13  and  C_31
REMARK    3  A    between atoms: C_14  and  N_16
REMARK    4  A    between atoms: N_16  and  C_17
REMARK    5  A    between atoms: C_17  and  C_18
REMARK    6  A    between atoms: C_18  and  C_20
REMARK    7  A    between atoms: C_18  and  N_25
REMARK                            x       y       z     vdW  Elec       q    Type
REMARK                         _______ _______ _______ _____ _____    ______ ____
ROOT
ATOM      1  C   UNL     1       0.046  -0.296  -1.187  0.00  0.00    +0.231 A 
ATOM      2  N   UNL     1       1.097  -1.077  -1.202  0.00  0.00    -0.196 NA
ATOM      3  C   UNL     1       0.708  -2.334  -0.866  0.00  0.00    +0.201 A 
ATOM      4  C   UNL     1      -0.660  -2.287  -0.638  0.00  0.00    +0.225 A 
ATOM      5  O   UNL     1      -1.041  -1.012  -0.839  0.00  0.00    -0.421 OA
ENDROOT
BRANCH   1  15
ATOM      6  C   UNL     1      -2.871   2.840  -3.973  0.00  0.00    +0.001 A 
ATOM      7  C   UNL     1      -2.897   1.476  -3.694  0.00  0.00    +0.001 A 
ATOM      8  C   UNL     1      -1.955   0.906  -2.892  0.00  0.00    +0.009 A 
ATOM      9  C   UNL     1      -0.944   1.702  -2.336  0.00  0.00    -0.006 A 
ATOM     10  C   UNL     1      -0.916   3.090  -2.617  0.00  0.00    -0.017 A 
ATOM     11  C   UNL     1      -1.904   3.643  -3.450  0.00  0.00    +0.008 A 
ATOM     12  C   UNL     1       0.098   3.889  -2.061  0.00  0.00    +0.008 A 
ATOM     13  C   UNL     1       1.046   3.330  -1.257  0.00  0.00    +0.001 A 
ATOM     14  C   UNL     1       1.031   1.972  -0.964  0.00  0.00    +0.014 A 
ATOM     15  C   UNL     1       0.052   1.145  -1.496  0.00  0.00    +0.045 A 
ENDBRANCH   1  15
BRANCH   4  16
ATOM     16  N   UNL     1      -1.469  -3.339  -0.272  0.00  0.00    -0.314 N 
ATOM     17  H   UNL     1      -1.038  -4.341  -0.132  0.00  0.00    +0.149 HD
BRANCH  16  18
ATOM     18  C   UNL     1      -2.904  -3.123  -0.069  0.00  0.00    +0.097 C 
BRANCH  18  19
ATOM     19  C   UNL     1      -3.567  -4.443   0.330  0.00  0.00    +0.016 C 
BRANCH  19  20
ATOM     20  N   UNL     1      -3.265  -5.467  -0.680  0.00  0.00    +0.387 N 
ATOM     21  C   UNL     1      -3.721  -5.044  -2.010  0.00  0.00    -0.078 C 
ATOM     22  C   UNL     1      -3.263  -6.063  -3.056  0.00  0.00    -0.019 C 
ATOM     23  C   UNL     1      -3.844  -7.437  -2.710  0.00  0.00    -0.004 C 
ATOM     24  C   UNL     1      -3.394  -7.833  -1.301  0.00  0.00    -0.019 C 
ATOM     25  C   UNL     1      -3.848  -6.762  -0.306  0.00  0.00    -0.078 C 
ATOM     26  H   UNL     1      -2.173  -5.590  -0.723  0.00  0.00    -0.081 HD
ENDBRANCH  19  20
BRANCH  19  27
ATOM     27  C   UNL     1      -5.059  -4.250   0.419  0.00  0.00    +0.093 A 
ATOM     28  C   UNL     1      -5.782  -4.223   1.553  0.00  0.00    +0.043 A 
ATOM     29  C   UNL     1      -7.129  -4.020   1.175  0.00  0.00    +0.041 A 
ATOM     30  C   UNL     1      -7.148  -3.934  -0.168  0.00  0.00    +0.195 A 
ATOM     31  O   UNL     1      -5.891  -4.068  -0.620  0.00  0.00    -0.469 OA
ENDBRANCH  19  27
ENDBRANCH  18  19
ENDBRANCH  16  18
ENDBRANCH   4  16
BRANCH   3  32
ATOM     32  C   UNL     1       1.550  -3.488  -0.765  0.00  0.00    +0.124 C 
ATOM     33  N   UNL     1       2.217  -4.404  -0.685  0.00  0.00    -0.189 NA
ENDBRANCH   3  32
TORSDOF 7
