REMARK  Name = ZINC38491779
REMARK  12 active torsions:
REMARK  status: ('A' for Active; 'I' for Inactive)
REMARK    1  A    between atoms: C_1  and  C_2
REMARK    2  A    between atoms: C_5  and  N_9
REMARK    3  A    between atoms: C_10  and  C_28
REMARK    4  A    between atoms: C_11  and  C_14
REMARK    5  A    between atoms: N_16  and  C_17
REMARK    6  A    between atoms: C_20  and  C_27
REMARK    7  A    between atoms: C_23  and  C_25
REMARK    8  A    between atoms: C_23  and  C_26
REMARK    9  A    between atoms: C_28  and  S_29
REMARK   10  A    between atoms: S_29  and  C_30
REMARK   11  A    between atoms: C_32  and  C_37
REMARK   12  A    between atoms: C_34  and  C_36
REMARK                            x       y       z     vdW  Elec       q    Type
REMARK                         _______ _______ _______ _____ _____    ______ ____
ROOT
ATOM      1  N   UNL     1       0.058  -4.173  -0.022  0.00  0.00    -0.215 N 
ATOM      2  C   UNL     1       0.691  -4.976   0.861  0.00  0.00    +0.087 A 
ATOM      3  C   UNL     1       0.442  -6.263   0.474  0.00  0.00    +0.171 A 
ATOM      4  N   UNL     1      -0.329  -6.234  -0.627  0.00  0.00    -0.124 NA
ATOM      5  N   UNL     1      -0.581  -5.013  -0.946  0.00  0.00    -0.060 NA
ENDROOT
BRANCH   1  10
ATOM      6  C   UNL     1      -0.018   1.503   0.010  0.00  0.00    +0.045 C 
ATOM      7  C   UNL     1       0.002  -0.004   0.002  0.00  0.00    -0.032 A 
ATOM      8  C   UNL     1       0.006  -0.688  -1.200  0.00  0.00    +0.007 A 
ATOM      9  C   UNL     1       0.024  -2.068  -1.211  0.00  0.00    +0.028 A 
ATOM     10  C   UNL     1       0.040  -2.771  -0.013  0.00  0.00    +0.069 A 
ATOM     11  C   UNL     1       0.036  -2.084   1.192  0.00  0.00    +0.048 A 
ATOM     12  C   UNL     1       0.023  -0.701   1.197  0.00  0.00    +0.046 A 
ATOM     13 CL   UNL     1       0.025   0.161   2.704  0.00  0.00    -0.083 Cl
ENDBRANCH   1  10
BRANCH   3  14
ATOM     14  C   UNL     1       0.936  -7.477   1.149  0.00  0.00    +0.266 C 
ATOM     15  O   UNL     1       1.630  -7.381   2.143  0.00  0.00    -0.268 OA
ATOM     16  N   UNL     1       0.619  -8.694   0.665  0.00  0.00    -0.307 N 
ATOM     17  H   UNL     1       0.065  -8.771  -0.128  0.00  0.00    +0.149 HD
BRANCH  16  18
ATOM     18  C   UNL     1       1.109  -9.900   1.335  0.00  0.00    +0.074 C 
ATOM     19  C   UNL     1       2.516 -10.229   0.830  0.00  0.00    +0.025 C 
ATOM     20  C   UNL     1       3.028 -11.488   1.531  0.00  0.00    -0.012 C 
ATOM     21  C   UNL     1       2.091 -12.659   1.226  0.00  0.00    +0.009 C 
ATOM     22  C   UNL     1       0.685 -12.331   1.731  0.00  0.00    -0.033 C 
ATOM     23  C   UNL     1       0.172 -11.071   1.031  0.00  0.00    +0.028 C 
ATOM     24  C   UNL     1      -0.253 -13.501   1.426  0.00  0.00    +0.011 C 
ATOM     25  C   UNL     1       0.728 -12.092   3.242  0.00  0.00    +0.011 C 
ATOM     26  C   UNL     1       4.435 -11.816   1.026  0.00  0.00    +0.007 C 
ENDBRANCH  16  18
ENDBRANCH   3  14
BRANCH   2  27
ATOM     27  C   UNL     1       1.513  -4.537   2.046  0.00  0.00    +0.135 C 
BRANCH  27  28
ATOM     28  S   UNL     1       0.442  -4.386   3.502  0.00  0.00    -0.080 S 
BRANCH  28  29
ATOM     29  C   UNL     1       1.536  -3.873   4.784  0.00  0.00    +0.189 A 
ATOM     30  N   UNL     1       2.820  -3.695   4.506  0.00  0.00    -0.227 NA
ATOM     31  C   UNL     1       3.668  -3.310   5.446  0.00  0.00    +0.043 A 
ATOM     32  C   UNL     1       3.199  -3.092   6.732  0.00  0.00    +0.046 A 
ATOM     33  C   UNL     1       1.851  -3.287   6.988  0.00  0.00    +0.043 A 
ATOM     34  N   UNL     1       1.055  -3.668   6.002  0.00  0.00    -0.227 NA
ATOM     35  C   UNL     1       1.297  -3.063   8.371  0.00  0.00    +0.066 C 
ATOM     36  C   UNL     1       5.126  -3.110   5.122  0.00  0.00    +0.066 C 
ENDBRANCH  28  29
ENDBRANCH  27  28
ENDBRANCH   2  27
TORSDOF 6
