REMARK  Name = ZINC20155231
REMARK  6 active torsions:
REMARK  status: ('A' for Active; 'I' for Inactive)
REMARK    1  A    between atoms: C_1  and  C_2
REMARK    2  A    between atoms: C_2  and  C_4
REMARK    3  A    between atoms: C_2  and  N_29
REMARK    4  A    between atoms: C_18  and  O_21
REMARK    5  A    between atoms: O_21  and  C_22
REMARK    6  A    between atoms: C_22  and  C_23
REMARK                            x       y       z     vdW  Elec       q    Type
REMARK                         _______ _______ _______ _____ _____    ______ ____
ROOT
ATOM      1  C   UNL     1       0.232  -2.853   0.483  0.00  0.00    +0.206 C 
ATOM      2  O   UNL     1      -0.695  -2.260   0.993  0.00  0.00    -0.277 OA
ATOM      3  N   UNL     1       1.381  -2.202   0.213  0.00  0.00    -0.267 N 
ATOM      4  C   UNL     1       2.619  -2.950  -0.044  0.00  0.00    +0.114 C 
ATOM      5  C   UNL     1       3.750  -2.262   0.734  0.00  0.00    +0.024 C 
ATOM      6  C   UNL     1       3.916  -0.838   0.202  0.00  0.00    +0.039 C 
ATOM      7  C   UNL     1       2.591  -0.129   0.171  0.00  0.00    -0.008 A 
ATOM      8  C   UNL     1       1.414  -0.803   0.172  0.00  0.00    +0.125 A 
ATOM      9  C   UNL     1       0.158  -0.050   0.135  0.00  0.00    +0.359 A 
ATOM     10  O   UNL     1      -0.902  -0.649   0.134  0.00  0.00    -0.243 OA
ATOM     11  O   UNL     1       0.161   1.291   0.102  0.00  0.00    -0.421 OA
ATOM     12  C   UNL     1       1.312   1.998   0.102  0.00  0.00    +0.140 A 
ATOM     13  C   UNL     1       2.552   1.338   0.136  0.00  0.00    +0.026 A 
ATOM     14  C   UNL     1       3.739   2.079   0.135  0.00  0.00    +0.057 A 
ATOM     15  C   UNL     1       3.683   3.458   0.102  0.00  0.00    +0.122 A 
ATOM     16  C   UNL     1       2.453   4.108   0.069  0.00  0.00    +0.049 A 
ATOM     17  C   UNL     1       1.278   3.386   0.070  0.00  0.00    +0.050 A 
ENDROOT
BRANCH   1  19
ATOM     18  C   UNL     1       0.529  -5.154   1.356  0.00  0.00    -0.004 C 
ATOM     19  C   UNL     1       0.098  -4.316   0.150  0.00  0.00    +0.017 C 
BRANCH  19  20
ATOM     20  N   UNL     1      -1.301  -4.618  -0.181  0.00  0.00    +0.390 N 
ATOM     21  C   UNL     1      -1.476  -6.048  -0.480  0.00  0.00    -0.073 C 
ATOM     22  C   UNL     1      -2.970  -6.370  -0.454  0.00  0.00    +0.017 C 
ATOM     23  C   UNL     1      -3.723  -5.387  -1.312  0.00  0.00    -0.048 A 
ATOM     24  C   UNL     1      -5.015  -5.705  -1.704  0.00  0.00    +0.004 A 
ATOM     25  C   UNL     1      -5.743  -4.828  -2.483  0.00  0.00    +0.000 A 
ATOM     26  C   UNL     1      -5.181  -3.627  -2.874  0.00  0.00    +0.000 A 
ATOM     27  C   UNL     1      -3.895  -3.310  -2.486  0.00  0.00    +0.002 A 
ATOM     28  C   UNL     1      -3.162  -4.191  -1.705  0.00  0.00    -0.061 A 
ATOM     29  C   UNL     1      -1.760  -3.803  -1.310  0.00  0.00    -0.042 C 
ATOM     30  H   UNL     1      -1.913  -4.366   0.697  0.00  0.00    -0.080 HD
ENDBRANCH  19  20
ENDBRANCH   1  19
BRANCH  15  31
ATOM     31  O   UNL     1       4.833   4.183   0.101  0.00  0.00    -0.487 OA
BRANCH  31  32
ATOM     32  C   UNL     1       4.703   5.606   0.066  0.00  0.00    +0.264 C 
BRANCH  32  33
ATOM     33  C   UNL     1       6.072   6.236   0.071  0.00  0.00    -0.010 A 
ATOM     34  C   UNL     1       6.680   6.559   1.270  0.00  0.00    +0.007 A 
ATOM     35  C   UNL     1       7.938   7.132   1.274  0.00  0.00    +0.000 A 
ATOM     36  C   UNL     1       8.583   7.392   0.080  0.00  0.00    +0.000 A 
ATOM     37  C   UNL     1       7.972   7.075  -1.119  0.00  0.00    +0.000 A 
ATOM     38  C   UNL     1       6.717   6.497  -1.124  0.00  0.00    +0.007 A 
ENDBRANCH  32  33
ENDBRANCH  31  32
ENDBRANCH  15  31
TORSDOF 5
