REMARK  Name = ZINC39608108
REMARK  8 active torsions:
REMARK  status: ('A' for Active; 'I' for Inactive)
REMARK    1  A    between atoms: C_1  and  C_2
REMARK    2  A    between atoms: C_2  and  C_4
REMARK    3  A    between atoms: C_2  and  O_16
REMARK    4  A    between atoms: N_6  and  C_7
REMARK    5  A    between atoms: C_12  and  N_13
REMARK    6  A    between atoms: O_16  and  C_17
REMARK    7  A    between atoms: C_17  and  C_19
REMARK    8  A    between atoms: C_20  and  C_21
REMARK                            x       y       z     vdW  Elec       q    Type
REMARK                         _______ _______ _______ _____ _____    ______ ____
ROOT
ATOM      1  C   UNL     1       0.005   1.537   0.005  0.00  0.00    +0.062 C 
ATOM      2  C   UNL     1       0.007   0.007   0.001  0.00  0.00    +0.259 C 
ENDROOT
BRANCH   2   3
ATOM      3  C   UNL     1       0.706  -0.491  -1.238  0.00  0.00    +0.258 C 
ATOM      4  O   UNL     1       1.744  -1.110  -1.142  0.00  0.00    -0.271 OA
ATOM      5  N   UNL     1       0.177  -0.247  -2.454  0.00  0.00    -0.281 N 
ATOM      6  H   UNL     1      -0.693   0.177  -2.529  0.00  0.00    +0.155 HD
BRANCH   5   7
ATOM      7  C   UNL     1       0.881  -0.607  -3.608  0.00  0.00    +0.064 A 
ATOM      8  C   UNL     1       2.266  -0.713  -3.574  0.00  0.00    +0.025 A 
ATOM      9  C   UNL     1       2.958  -1.068  -4.714  0.00  0.00    +0.002 A 
ATOM     10  C   UNL     1       2.275  -1.317  -5.891  0.00  0.00    +0.002 A 
ATOM     11  C   UNL     1       0.896  -1.212  -5.928  0.00  0.00    +0.034 A 
ATOM     12  C   UNL     1       0.197  -0.864  -4.789  0.00  0.00    +0.147 A 
BRANCH  12  13
ATOM     13  N   UNL     1      -1.278  -0.759  -4.828  0.00  0.00    +0.058 N 
ATOM     14  O   UNL     1      -1.880  -1.069  -5.830  0.00  0.00    -0.126 OA
ATOM     15  O   UNL     1      -1.882  -0.363  -3.859  0.00  0.00    -0.126 OA
ENDBRANCH  12  13
ENDBRANCH   5   7
ENDBRANCH   2   3
BRANCH   2  16
ATOM     16  O   UNL     1       0.693  -0.471   1.159  0.00  0.00    -0.449 OA
BRANCH  16  17
ATOM     17  C   UNL     1      -0.049  -0.680   2.269  0.00  0.00    +0.333 C 
ATOM     18  O   UNL     1      -1.246  -0.461   2.251  0.00  0.00    -0.246 OA
BRANCH  17  19
ATOM     19  C   UNL     1       0.562  -1.151   3.445  0.00  0.00    +0.094 C 
ATOM     20  C   UNL     1      -0.186  -1.361   4.565  0.00  0.00    +0.036 C 
BRANCH  20  21
ATOM     21  C   UNL     1       0.425  -1.832   5.741  0.00  0.00    +0.085 A 
ATOM     22  C   UNL     1       1.278  -2.919   5.851  0.00  0.00    +0.156 A 
ATOM     23  N   UNL     1       1.636  -3.031   7.125  0.00  0.00    -0.209 NA
ATOM     24  C   UNL     1       1.064  -2.085   7.827  0.00  0.00    +0.179 A 
ATOM     25  N   UNL     1       0.292  -1.286   7.031  0.00  0.00    -0.292 N 
ATOM     26  C   UNL     1      -0.366  -0.243   7.639  0.00  0.00    +0.101 A 
ATOM     27  C   UNL     1      -0.243  -0.029   8.949  0.00  0.00    +0.067 A 
ATOM     28  S   UNL     1       0.851  -1.355   9.435  0.00  0.00    -0.058 S 
ATOM     29 CL   UNL     1       1.788  -3.951   4.552  0.00  0.00    -0.060 Cl
ENDBRANCH  20  21
ENDBRANCH  17  19
ENDBRANCH  16  17
ENDBRANCH   2  16
TORSDOF 7
