REMARK  Name = ZINC06321114
REMARK  9 active torsions:
REMARK  status: ('A' for Active; 'I' for Inactive)
REMARK    1  A    between atoms: C_1  and  C_2
REMARK    2  A    between atoms: C_6  and  C_15
REMARK    3  A    between atoms: C_13  and  C_14
REMARK    4  A    between atoms: C_15  and  C_17
REMARK    5  A    between atoms: C_15  and  N_74
REMARK    6  A    between atoms: N_21  and  C_22
REMARK    7  A    between atoms: C_22  and  C_23
REMARK    8  A    between atoms: C_31  and  C_34
REMARK    9  A    between atoms: C_34  and  C_35
REMARK                            x       y       z     vdW  Elec       q    Type
REMARK                         _______ _______ _______ _____ _____    ______ ____
ROOT
ATOM      1  C   UNL     1      -0.013   1.086   0.008  0.00  0.00    +0.039 C 
ENDROOT
BRANCH   1   7
ATOM      2  C   UNL     1       5.665   5.383   2.224  0.00  0.00    +0.044 C 
ATOM      3  C   UNL     1       5.043   4.438   1.228  0.00  0.00    -0.047 A 
ATOM      4  C   UNL     1       3.790   3.943   1.457  0.00  0.00    +0.013 A 
ATOM      5  C   UNL     1       3.212   3.066   0.534  0.00  0.00    -0.001 A 
ATOM      6  C   UNL     1       1.870   2.520   0.745  0.00  0.00    +0.017 A 
ATOM      7  C   UNL     1       1.363   1.670  -0.182  0.00  0.00    +0.011 A 
ATOM      8  C   UNL     1       2.117   1.336  -1.327  0.00  0.00    +0.251 A 
ATOM      9  O   UNL     1       1.641   0.574  -2.151  0.00  0.00    -0.268 OA
ATOM     10  N   UNL     1       3.348   1.836  -1.533  0.00  0.00    -0.322 N 
ATOM     11  H   UNL     1       3.839   1.585  -2.331  0.00  0.00    +0.169 HD
ATOM     12  C   UNL     1       3.923   2.701  -0.625  0.00  0.00    +0.049 A 
ATOM     13  C   UNL     1       5.196   3.218  -0.837  0.00  0.00    +0.030 A 
ATOM     14  C   UNL     1       5.746   4.080   0.087  0.00  0.00    -0.046 A 
ATOM     15  C   UNL     1       7.126   4.640  -0.145  0.00  0.00    +0.044 C 
ENDBRANCH   1   7
BRANCH   1  21
ATOM     16  C   UNL     1      -0.924   2.953  -1.235  0.00  0.00    -0.077 C 
ATOM     17  C   UNL     1      -1.710   3.333  -2.492  0.00  0.00    -0.015 C 
ATOM     18  C   UNL     1      -3.128   2.762  -2.394  0.00  0.00    -0.010 C 
ATOM     19  C   UNL     1      -3.047   1.244  -2.216  0.00  0.00    -0.015 C 
ATOM     20  C   UNL     1      -2.223   0.924  -0.967  0.00  0.00    -0.077 C 
ATOM     21  N   UNL     1      -0.863   1.479  -1.135  0.00  0.00    +0.389 N 
ATOM     22  H   UNL     1      -0.454   1.103  -1.999  0.00  0.00    -0.080 HD
BRANCH  18  23
ATOM     23  C   UNL     1      -3.901   3.087  -3.673  0.00  0.00    +0.038 C 
BRANCH  23  24
ATOM     24  C   UNL     1      -4.086   4.579  -3.784  0.00  0.00    -0.047 A 
ATOM     25  C   UNL     1      -5.205   5.179  -3.237  0.00  0.00    +0.003 A 
ATOM     26  C   UNL     1      -5.372   6.547  -3.335  0.00  0.00    +0.000 A 
ATOM     27  C   UNL     1      -4.425   7.315  -3.987  0.00  0.00    +0.000 A 
ATOM     28  C   UNL     1      -3.309   6.714  -4.537  0.00  0.00    +0.000 A 
ATOM     29  C   UNL     1      -3.139   5.346  -4.436  0.00  0.00    +0.003 A 
ENDBRANCH  23  24
ENDBRANCH  18  23
ENDBRANCH   1  21
BRANCH   1  30
ATOM     30  C   UNL     1      -0.598   1.590   1.302  0.00  0.00    +0.143 A 
ATOM     31  N   UNL     1      -1.075   2.789   1.530  0.00  0.00    -0.115 NA
ATOM     32  N   UNL     1      -1.484   2.829   2.752  0.00  0.00    -0.023 NA
ATOM     33  N   UNL     1      -1.272   1.688   3.311  0.00  0.00    -0.044 NA
ATOM     34  N   UNL     1      -0.728   0.897   2.449  0.00  0.00    -0.228 N 
BRANCH  34  35
ATOM     35  C   UNL     1      -0.326  -0.493   2.676  0.00  0.00    +0.178 C 
BRANCH  35  36
ATOM     36  C   UNL     1       1.121  -0.531   3.172  0.00  0.00    +0.140 C 
ATOM     37  C   UNL     1       1.549  -1.990   3.471  0.00  0.00    +0.035 C 
ATOM     38  C   UNL     1       3.090  -1.885   3.308  0.00  0.00    +0.031 C 
ATOM     39  C   UNL     1       3.230  -0.838   2.182  0.00  0.00    +0.160 C 
ATOM     40  O   UNL     1       2.014  -0.082   2.140  0.00  0.00    -0.375 OA
ENDBRANCH  35  36
ENDBRANCH  34  35
ENDBRANCH   1  30
TORSDOF 7
