REMARK  Name = ZINC61685398
REMARK  7 active torsions:
REMARK  status: ('A' for Active; 'I' for Inactive)
REMARK    1  A    between atoms: C_1  and  C_2
REMARK    2  A    between atoms: C_2  and  C_3
REMARK    3  A    between atoms: C_2  and  N_4
REMARK    4  A    between atoms: C_6  and  S_12
REMARK    5  A    between atoms: C_8  and  C_9
REMARK    6  A    between atoms: S_12  and  N_15
REMARK    7  A    between atoms: N_15  and  C_16
REMARK                            x       y       z     vdW  Elec       q    Type
REMARK                         _______ _______ _______ _____ _____    ______ ____
ROOT
ATOM      1  N   UNL     1      -1.372  -0.511   0.012  0.00  0.00    -0.337 N 
ATOM      2  C   UNL     1      -2.292  -0.269   0.969  0.00  0.00    +0.115 A 
ATOM      3  C   UNL     1      -3.446  -0.900   0.641  0.00  0.00    +0.129 A 
ATOM      4  C   UNL     1      -3.243  -1.565  -0.570  0.00  0.00    +0.063 A 
ATOM      5  C   UNL     1      -1.941  -1.309  -0.956  0.00  0.00    +0.133 A 
ENDROOT
BRANCH   1   7
ATOM      6  C   UNL     1      -0.019   1.526   0.010  0.00  0.00    +0.030 C 
ATOM      7  C   UNL     1       0.002  -0.004   0.002  0.00  0.00    +0.081 C 
ATOM      8  C   UNL     1       0.742  -0.511   1.242  0.00  0.00    +0.030 C 
ENDBRANCH   1   7
BRANCH   5   9
ATOM      9  C   UNL     1      -1.287  -1.798  -2.168  0.00  0.00    +0.403 C 
ATOM     10  O   UNL     1      -0.120  -1.502  -2.397  0.00  0.00    -0.239 OA
ATOM     11  O   UNL     1      -1.904  -2.505  -2.955  0.00  0.00    -0.239 OA
ENDBRANCH   5   9
BRANCH   3  12
ATOM     12  S   UNL     1      -4.939  -0.884   1.578  0.00  0.00    +0.093 S 
ATOM     13  O   UNL     1      -5.660  -2.053   1.214  0.00  0.00    -0.148 OA
ATOM     14  O   UNL     1      -4.572  -0.604   2.922  0.00  0.00    -0.148 OA
BRANCH  12  15
ATOM     15  N   UNL     1      -5.833   0.406   1.052  0.00  0.00    -0.093 NA
BRANCH  15  16
ATOM     16  C   UNL     1      -7.090   0.672   1.627  0.00  0.00    +0.133 A 
ATOM     17  C   UNL     1      -7.704  -0.070   2.657  0.00  0.00    +0.183 A 
ATOM     18  N   UNL     1      -8.856   0.480   2.921  0.00  0.00    -0.085 NA
ATOM     19  O   UNL     1      -9.015   1.596   2.064  0.00  0.00    -0.361 OA
ATOM     20  C   UNL     1      -7.917   1.687   1.293  0.00  0.00    +0.256 A 
ENDBRANCH  15  16
ENDBRANCH  12  15
ENDBRANCH   3  12
TORSDOF 5
