REMARK  Name = ZINC03345854
REMARK  14 active torsions:
REMARK  status: ('A' for Active; 'I' for Inactive)
REMARK    1  A    between atoms: C_1  and  C_2
REMARK    2  A    between atoms: C_2  and  O_3
REMARK    3  A    between atoms: O_3  and  C_4
REMARK    4  A    between atoms: C_4  and  C_6
REMARK    5  A    between atoms: C_10  and  N_11
REMARK    6  A    between atoms: C_12  and  C_14
REMARK    7  A    between atoms: C_14  and  C_16
REMARK    8  A    between atoms: C_14  and  O_17
REMARK    9  A    between atoms: O_17  and  C_18
REMARK   10  A    between atoms: C_18  and  C_20
REMARK   11  A    between atoms: C_20  and  O_21
REMARK   12  A    between atoms: O_21  and  C_22
REMARK   13  A    between atoms: C_26  and  C_28
REMARK   14  A    between atoms: C_31  and  C_35
REMARK                            x       y       z     vdW  Elec       q    Type
REMARK                         _______ _______ _______ _____ _____    ______ ____
ROOT
ATOM      1  N   UNL     1      -4.335  -4.204   0.855  0.00  0.00    -0.276 N 
ATOM      2  C   UNL     1      -3.134  -3.607   0.723  0.00  0.00    +0.258 C 
ATOM      3  O   UNL     1      -2.140  -4.138   1.172  0.00  0.00    -0.271 OA
ATOM      4  H   UNL     1      -5.130  -3.780   0.496  0.00  0.00    +0.155 HD
ENDROOT
BRANCH   1   9
ATOM      5  C   UNL     1      -5.572  -6.187   1.740  0.00  0.00    +0.091 A 
ATOM      6  C   UNL     1      -5.401  -7.446   2.446  0.00  0.00    -0.021 A 
ATOM      7  C   UNL     1      -4.133  -7.735   2.808  0.00  0.00    -0.004 A 
ATOM      8  S   UNL     1      -3.171  -6.370   2.220  0.00  0.00    -0.077 S 
ATOM      9  C   UNL     1      -4.434  -5.426   1.502  0.00  0.00    +0.086 A 
ATOM     10  C   UNL     1      -3.659  -8.949   3.546  0.00  0.00    +0.046 C 
ATOM     11  C   UNL     1      -4.879  -9.646   4.164  0.00  0.00    -0.009 C 
ATOM     12  C   UNL     1      -5.969  -9.773   3.095  0.00  0.00    +0.008 C 
ATOM     13  C   UNL     1      -6.548  -8.393   2.776  0.00  0.00    +0.037 C 
ATOM     14  C   UNL     1      -4.479 -11.037   4.660  0.00  0.00    +0.008 C 
BRANCH   5  15
ATOM     15  C   UNL     1      -6.892  -5.739   1.291  0.00  0.00    +0.342 C 
ATOM     16  O   UNL     1      -7.298  -6.053   0.188  0.00  0.00    -0.245 OA
BRANCH  15  17
ATOM     17  O   UNL     1      -7.658  -4.980   2.102  0.00  0.00    -0.461 OA
BRANCH  17  19
ATOM     18  C   UNL     1      -9.673  -3.725   2.643  0.00  0.00    +0.048 C 
ATOM     19  C   UNL     1      -8.955  -4.574   1.592  0.00  0.00    +0.229 C 
ENDBRANCH  17  19
ENDBRANCH  15  17
ENDBRANCH   5  15
ENDBRANCH   1   9
BRANCH   2  20
ATOM     20  C   UNL     1      -3.026  -2.279   0.019  0.00  0.00    +0.259 C 
ATOM     21  C   UNL     1      -3.526  -2.423  -1.420  0.00  0.00    +0.062 C 
BRANCH  20  22
ATOM     22  O   UNL     1      -1.639  -1.849   0.008  0.00  0.00    -0.450 OA
BRANCH  22  23
ATOM     23  C   UNL     1      -1.412  -0.526   0.013  0.00  0.00    +0.346 C 
ATOM     24  O   UNL     1      -2.341   0.247   0.026  0.00  0.00    -0.247 OA
BRANCH  23  25
ATOM     25  C   UNL     1       0.002  -0.004   0.002  0.00  0.00    +0.349 C 
BRANCH  25  26
ATOM     26  O   UNL     1      -0.017   1.425   0.010  0.00  0.00    -0.481 OA
BRANCH  26  27
ATOM     27  C   UNL     1       1.185   2.058   0.002  0.00  0.00    +0.122 A 
ATOM     28  C   UNL     1       2.360   1.319  -0.008  0.00  0.00    +0.047 A 
ATOM     29  C   UNL     1       3.580   1.965  -0.021  0.00  0.00    +0.024 A 
ATOM     30  C   UNL     1       3.633   3.348  -0.014  0.00  0.00    +0.044 A 
ATOM     31  C   UNL     1       2.463   4.086   0.001  0.00  0.00    -0.029 A 
ATOM     32  C   UNL     1       1.240   3.444   0.009  0.00  0.00    +0.050 A 
ATOM     33  C   UNL     1       2.523   5.592   0.008  0.00  0.00    +0.045 C 
ATOM     34 CL   UNL     1       5.169   4.157  -0.024  0.00  0.00    -0.083 Cl
ENDBRANCH  26  27
ENDBRANCH  25  26
ENDBRANCH  23  25
ENDBRANCH  22  23
ENDBRANCH  20  22
ENDBRANCH   2  20
TORSDOF 10
