REMARK  Name = ZINC16694843
REMARK  8 active torsions:
REMARK  status: ('A' for Active; 'I' for Inactive)
REMARK    1  A    between atoms: C_6  and  N_7
REMARK    2  A    between atoms: N_7  and  C_8
REMARK    3  A    between atoms: N_7  and  S_17
REMARK    4  A    between atoms: C_8  and  C_9
REMARK    5  A    between atoms: N_11  and  C_12
REMARK    6  A    between atoms: C_12  and  C_13
REMARK    7  A    between atoms: S_17  and  C_20
REMARK    8  A    between atoms: C_22  and  N_27
REMARK                            x       y       z     vdW  Elec       q    Type
REMARK                         _______ _______ _______ _____ _____    ______ ____
ROOT
ATOM      1  N   UNL     1      -5.969   1.449   1.436  0.00  0.00    -0.194 N 
ENDROOT
BRANCH   1   7
ATOM      2  C   UNL     1      -6.830   3.459   0.414  0.00  0.00    +0.026 A 
ATOM      3  C   UNL     1      -7.725   4.511   0.412  0.00  0.00    +0.022 A 
ATOM      4  C   UNL     1      -8.651   4.636   1.432  0.00  0.00    +0.041 A 
ATOM      5  C   UNL     1      -8.688   3.703   2.454  0.00  0.00    +0.022 A 
ATOM      6  C   UNL     1      -7.800   2.645   2.458  0.00  0.00    +0.026 A 
ATOM      7  C   UNL     1      -6.869   2.518   1.435  0.00  0.00    +0.052 A 
ATOM      8 CL   UNL     1      -9.769   5.964   1.431  0.00  0.00    -0.084 Cl
ENDBRANCH   1   7
BRANCH   1   9
ATOM      9  S   UNL     1      -5.334   0.899   0.009  0.00  0.00    +0.077 S 
ATOM     10  O   UNL     1      -4.437  -0.152   0.341  0.00  0.00    -0.150 OA
ATOM     11  O   UNL     1      -4.926   2.047  -0.723  0.00  0.00    -0.150 OA
BRANCH   9  12
ATOM     12  C   UNL     1      -6.654   0.166  -0.900  0.00  0.00    +0.129 A 
ATOM     13  C   UNL     1      -7.062   0.724  -2.098  0.00  0.00    +0.063 A 
ATOM     14  C   UNL     1      -8.097   0.148  -2.811  0.00  0.00    +0.128 A 
ATOM     15  C   UNL     1      -8.728  -0.982  -2.324  0.00  0.00    +0.034 A 
ATOM     16  C   UNL     1      -8.318  -1.543  -1.130  0.00  0.00    +0.024 A 
ATOM     17  C   UNL     1      -7.282  -0.967  -0.416  0.00  0.00    +0.068 A 
ATOM     18 CL   UNL     1      -6.770  -1.668   1.088  0.00  0.00    -0.082 Cl
BRANCH  14  19
ATOM     19  N   UNL     1      -8.534   0.746  -4.092  0.00  0.00    +0.056 N 
ATOM     20  O   UNL     1      -7.981   1.744  -4.519  0.00  0.00    -0.126 OA
ATOM     21  O   UNL     1      -9.442   0.236  -4.724  0.00  0.00    -0.126 OA
ENDBRANCH  14  19
ENDBRANCH   9  12
ENDBRANCH   1   9
BRANCH   1  22
ATOM     22  C   UNL     1      -5.587   0.815   2.700  0.00  0.00    +0.227 C 
BRANCH  22  23
ATOM     23  C   UNL     1      -4.451   1.583   3.325  0.00  0.00    +0.232 C 
ATOM     24  O   UNL     1      -4.005   2.564   2.769  0.00  0.00    -0.274 OA
ATOM     25  N   UNL     1      -3.931   1.180   4.501  0.00  0.00    -0.305 N 
ATOM     26  H   UNL     1      -4.288   0.396   4.946  0.00  0.00    +0.149 HD
BRANCH  25  27
ATOM     27  C   UNL     1      -2.827   1.928   5.109  0.00  0.00    +0.217 C 
BRANCH  27  28
ATOM     28  C   UNL     1      -2.428   1.265   6.429  0.00  0.00    +0.405 C 
ATOM     29  F   UNL     1      -2.022  -0.052   6.186  0.00  0.00    -0.169 F 
ATOM     30  F   UNL     1      -1.374   1.978   7.008  0.00  0.00    -0.169 F 
ATOM     31  F   UNL     1      -3.524   1.262   7.299  0.00  0.00    -0.169 F 
ENDBRANCH  27  28
ENDBRANCH  25  27
ENDBRANCH  22  23
ENDBRANCH   1  22
TORSDOF 8
