REMARK  Name = ZINC66086199
REMARK  11 active torsions:
REMARK  status: ('A' for Active; 'I' for Inactive)
REMARK    1  A    between atoms: C_4  and  C_7
REMARK    2  A    between atoms: C_7  and  C_8
REMARK    3  A    between atoms: C_8  and  C_9
REMARK    4  A    between atoms: N_11  and  C_12
REMARK    5  A    between atoms: C_15  and  N_18
REMARK    6  A    between atoms: C_19  and  C_21
REMARK    7  A    between atoms: C_21  and  N_22
REMARK    8  A    between atoms: N_22  and  C_23
REMARK    9  A    between atoms: C_27  and  C_29
REMARK   10  A    between atoms: N_31  and  C_32
REMARK   11  A    between atoms: C_32  and  C_33
REMARK                            x       y       z     vdW  Elec       q    Type
REMARK                         _______ _______ _______ _____ _____    ______ ____
ROOT
ATOM      1  N   UNL     1      11.029  -4.567   2.107  0.00  0.00    -0.284 N 
ATOM      2  C   UNL     1      11.634  -5.056   3.208  0.00  0.00    +0.234 C 
ATOM      3  O   UNL     1      11.149  -4.865   4.303  0.00  0.00    -0.274 OA
ATOM      4  H   UNL     1      11.451  -4.662   1.239  0.00  0.00    +0.155 HD
ENDROOT
BRANCH   1   8
ATOM      5  C   UNL     1       7.341  -2.650   2.436  0.00  0.00    +0.033 A 
ATOM      6  C   UNL     1       7.624  -3.423   1.317  0.00  0.00    +0.025 A 
ATOM      7  C   UNL     1       8.845  -4.057   1.209  0.00  0.00    +0.025 A 
ATOM      8  C   UNL     1       9.790  -3.923   2.218  0.00  0.00    +0.034 A 
ATOM      9  C   UNL     1       9.507  -3.150   3.336  0.00  0.00    +0.025 A 
ATOM     10  C   UNL     1       8.288  -2.510   3.442  0.00  0.00    +0.025 A 
BRANCH   5  13
ATOM     11  C   UNL     1       6.022  -0.793   3.130  0.00  0.00    +0.218 C 
ATOM     12  O   UNL     1       7.007  -0.297   3.634  0.00  0.00    -0.275 OA
ATOM     13  N   UNL     1       6.102  -2.005   2.546  0.00  0.00    -0.285 N 
ATOM     14  H   UNL     1       5.301  -2.432   2.202  0.00  0.00    +0.155 HD
BRANCH  11  15
ATOM     15  C   UNL     1       4.709  -0.054   3.156  0.00  0.00    +0.101 C 
BRANCH  15  16
ATOM     16  C   UNL     1       4.892   1.285   3.872  0.00  0.00    +0.044 C 
BRANCH  16  20
ATOM     17  C   UNL     1       1.170   3.381   3.947  0.00  0.00    +0.000 A 
ATOM     18  C   UNL     1       1.500   2.521   4.977  0.00  0.00    +0.000 A 
ATOM     19  C   UNL     1       2.704   1.843   4.953  0.00  0.00    +0.003 A 
ATOM     20  C   UNL     1       3.578   2.024   3.898  0.00  0.00    -0.047 A 
ATOM     21  C   UNL     1       3.248   2.884   2.867  0.00  0.00    +0.003 A 
ATOM     22  C   UNL     1       2.045   3.563   2.892  0.00  0.00    +0.000 A 
ENDBRANCH  16  20
ENDBRANCH  15  16
ENDBRANCH  11  15
ENDBRANCH   5  13
ENDBRANCH   1   8
BRANCH   2  23
ATOM     23  C   UNL     1      12.915  -5.840   3.078  0.00  0.00    +0.198 C 
BRANCH  23  24
ATOM     24  N   UNL     1      13.369  -6.258   4.407  0.00  0.00    -0.335 N 
ATOM     25  H   UNL     1      12.854  -6.017   5.193  0.00  0.00    +0.147 HD
BRANCH  24  26
ATOM     26  C   UNL     1      14.543  -7.002   4.542  0.00  0.00    +0.028 A 
ATOM     27  C   UNL     1      15.284  -7.342   3.416  0.00  0.00    +0.023 A 
ATOM     28  C   UNL     1      16.447  -8.078   3.544  0.00  0.00    +0.003 A 
ATOM     29  C   UNL     1      16.880  -8.481   4.792  0.00  0.00    +0.013 A 
ATOM     30  C   UNL     1      16.143  -8.145   5.928  0.00  0.00    +0.038 A 
ATOM     31  C   UNL     1      14.973  -7.398   5.800  0.00  0.00    +0.036 A 
BRANCH  30  32
ATOM     32  C   UNL     1      16.605  -8.576   7.266  0.00  0.00    +0.244 C 
ATOM     33  O   UNL     1      15.962  -8.282   8.254  0.00  0.00    -0.270 OA
ATOM     34  N   UNL     1      17.739  -9.294   7.388  0.00  0.00    -0.304 N 
ATOM     35  H   UNL     1      18.252  -9.528   6.599  0.00  0.00    +0.149 HD
BRANCH  34  36
ATOM     36  C   UNL     1      18.196  -9.721   8.713  0.00  0.00    +0.179 C 
BRANCH  36  37
ATOM     37  C   UNL     1      19.477 -10.502   8.574  0.00  0.00    +0.122 A 
ATOM     38  C   UNL     1      20.720  -9.988   8.606  0.00  0.00    +0.046 A 
ATOM     39  C   UNL     1      21.615 -11.070   8.439  0.00  0.00    +0.041 A 
ATOM     40  C   UNL     1      20.866 -12.180   8.315  0.00  0.00    +0.195 A 
ATOM     41  O   UNL     1      19.572 -11.831   8.403  0.00  0.00    -0.466 OA
ENDBRANCH  36  37
ENDBRANCH  34  36
ENDBRANCH  30  32
ENDBRANCH  24  26
ENDBRANCH  23  24
ENDBRANCH   2  23
TORSDOF 11
