REMARK  Name = ZINC24716437
REMARK  11 active torsions:
REMARK  status: ('A' for Active; 'I' for Inactive)
REMARK    1  A    between atoms: C_1  and  C_2
REMARK    2  A    between atoms: C_2  and  C_3
REMARK    3  A    between atoms: C_3  and  N_4
REMARK    4  A    between atoms: N_4  and  C_5
REMARK    5  A    between atoms: N_4  and  C_16
REMARK    6  A    between atoms: C_5  and  C_6
REMARK    7  A    between atoms: C_9  and  C_11
REMARK    8  A    between atoms: C_16  and  C_17
REMARK    9  A    between atoms: N_19  and  C_20
REMARK   10  A    between atoms: C_21  and  C_31
REMARK   11  A    between atoms: C_26  and  C_30
REMARK                            x       y       z     vdW  Elec       q    Type
REMARK                         _______ _______ _______ _____ _____    ______ ____
ROOT
ATOM      1  C   UNL     1       6.955   1.567  -5.273  0.00  0.00    +0.020 C 
ENDROOT
BRANCH   1   2
ATOM      2  C   UNL     1       5.967   2.051  -4.243  0.00  0.00    +0.201 C 
ATOM      3  O   UNL     1       6.325   2.237  -3.100  0.00  0.00    -0.278 OA
ATOM      4  N   UNL     1       4.685   2.278  -4.593  0.00  0.00    -0.281 N 
ATOM      5  H   UNL     1       4.360   2.110  -5.631  0.00  0.00    +0.155 HD
BRANCH   4   6
ATOM      6  C   UNL     1       3.775   2.725  -3.645  0.00  0.00    +0.090 A 
ATOM      7  C   UNL     1       2.429   3.011  -3.811  0.00  0.00    +0.084 A 
ATOM      8  C   UNL     1       1.690   3.468  -2.646  0.00  0.00    -0.018 A 
ATOM      9  C   UNL     1       2.413   3.564  -1.508  0.00  0.00    -0.004 A 
ATOM     10  S   UNL     1       4.047   3.060  -1.967  0.00  0.00    -0.077 S 
ATOM     11  C   UNL     1       1.924   4.003  -0.163  0.00  0.00    +0.046 C 
ATOM     12  C   UNL     1       0.389   3.973  -0.172  0.00  0.00    -0.009 C 
ATOM     13  C   UNL     1      -0.111   4.675  -1.438  0.00  0.00    +0.008 C 
ATOM     14  C   UNL     1       0.209   3.822  -2.667  0.00  0.00    +0.037 C 
ATOM     15  C   UNL     1      -0.146   4.697   1.065  0.00  0.00    +0.008 C 
BRANCH   7  16
ATOM     16  C   UNL     1       1.789   2.862  -5.083  0.00  0.00    +0.102 C 
ATOM     17  N   UNL     1       1.282   2.743  -6.093  0.00  0.00    -0.191 NA
ENDBRANCH   7  16
ENDBRANCH   4   6
ENDBRANCH   1   2
BRANCH   1  18
ATOM     18  N   UNL     1       8.272   1.397  -4.646  0.00  0.00    +0.391 N 
ATOM     19  H   UNL     1       8.521   2.333  -4.123  0.00  0.00    -0.080 HD
BRANCH  18  20
ATOM     20  C   UNL     1       8.247   0.317  -3.651  0.00  0.00    -0.078 C 
BRANCH  20  22
ATOM     21  C   UNL     1       7.826  -2.120  -3.295  0.00  0.00    +0.002 C 
ATOM     22  C   UNL     1       7.857  -0.996  -4.333  0.00  0.00    -0.022 C 
ENDBRANCH  20  22
ENDBRANCH  18  20
BRANCH  18  23
ATOM     23  C   UNL     1       9.310   1.156  -5.658  0.00  0.00    +0.021 C 
BRANCH  23  24
ATOM     24  C   UNL     1      10.669   1.367  -5.043  0.00  0.00    +0.202 A 
ATOM     25  N   UNL     1      11.402   0.457  -4.465  0.00  0.00    -0.114 NA
ATOM     26  N   UNL     1      12.501   0.984  -4.055  0.00  0.00    -0.104 NA
ATOM     27  C   UNL     1      12.508   2.264  -4.360  0.00  0.00    +0.284 A 
ATOM     28  O   UNL     1      11.348   2.527  -4.997  0.00  0.00    -0.420 OA
BRANCH  27  29
ATOM     29  C   UNL     1      13.581   3.225  -4.068  0.00  0.00    +0.191 A 
ATOM     30  C   UNL     1      14.752   2.947  -3.427  0.00  0.00    +0.055 A 
ATOM     31  C   UNL     1      15.475   4.153  -3.365  0.00  0.00    +0.042 A 
ATOM     32  C   UNL     1      14.722   5.098  -3.963  0.00  0.00    +0.196 A 
ATOM     33  O   UNL     1      13.582   4.534  -4.391  0.00  0.00    -0.458 OA
ENDBRANCH  27  29
ENDBRANCH  23  24
ENDBRANCH  18  23
ENDBRANCH   1  18
TORSDOF 9
