REMARK  Name = ZINC21119357
REMARK  8 active torsions:
REMARK  status: ('A' for Active; 'I' for Inactive)
REMARK    1  A    between atoms: C_1  and  C_2
REMARK    2  A    between atoms: C_2  and  C_3
REMARK    3  A    between atoms: C_2  and  C_5
REMARK    4  A    between atoms: C_2  and  N_8
REMARK    5  A    between atoms: C_9  and  C_11
REMARK    6  A    between atoms: C_11  and  S_12
REMARK    7  A    between atoms: S_12  and  C_13
REMARK    8  A    between atoms: N_26  and  C_27
REMARK                            x       y       z     vdW  Elec       q    Type
REMARK                         _______ _______ _______ _____ _____    ______ ____
ROOT
ATOM      1  C   UNL     1      -0.033  -4.765  -0.521  0.00  0.00    +0.178 A 
ATOM      2  N   UNL     1      -0.942  -3.823  -0.311  0.00  0.00    -0.215 NA
ATOM      3  C   UNL     1      -0.504  -2.628   0.065  0.00  0.00    +0.117 A 
ATOM      4  C   UNL     1       0.861  -2.309   0.252  0.00  0.00    +0.076 A 
ATOM      5  C   UNL     1       1.148  -0.946   0.666  0.00  0.00    -0.023 A 
ATOM      6  C   UNL     1       0.087  -0.124   0.830  0.00  0.00    -0.004 A 
ATOM      7  S   UNL     1      -1.334  -1.117   0.444  0.00  0.00    -0.073 S 
ATOM      8  C   UNL     1       0.108   1.314   1.247  0.00  0.00    +0.043 C 
ATOM      9  C   UNL     1       1.495   1.633   1.824  0.00  0.00    +0.005 C 
ATOM     10  C   UNL     1       2.560   1.090   0.868  0.00  0.00    +0.005 C 
ATOM     11  C   UNL     1       2.567  -0.438   0.911  0.00  0.00    +0.037 C 
ATOM     12  C   UNL     1       1.815  -3.352   0.017  0.00  0.00    +0.268 A 
ATOM     13  O   UNL     1       3.013  -3.175   0.152  0.00  0.00    -0.267 OA
ATOM     14  N   UNL     1       1.304  -4.546  -0.364  0.00  0.00    -0.255 N 
ENDROOT
BRANCH  14  15
ATOM     15  C   UNL     1       2.189  -5.605  -0.609  0.00  0.00    +0.052 A 
ATOM     16  C   UNL     1       2.549  -6.462   0.422  0.00  0.00    +0.028 A 
ATOM     17  C   UNL     1       3.416  -7.509   0.178  0.00  0.00    +0.022 A 
ATOM     18  C   UNL     1       3.935  -7.697  -1.091  0.00  0.00    +0.041 A 
ATOM     19  C   UNL     1       3.582  -6.840  -2.120  0.00  0.00    +0.022 A 
ATOM     20  C   UNL     1       2.711  -5.796  -1.881  0.00  0.00    +0.028 A 
ATOM     21 CL   UNL     1       5.031  -9.008  -1.394  0.00  0.00    -0.084 Cl
ENDBRANCH  14  15
BRANCH   1  22
ATOM     22  S   UNL     1      -0.574  -6.365  -1.022  0.00  0.00    -0.078 S 
BRANCH  22  23
ATOM     23  C   UNL     1      -2.363  -6.092  -1.068  0.00  0.00    +0.173 C 
BRANCH  23  25
ATOM     24  N   UNL     1      -4.399  -7.397  -1.589  0.00  0.00    -0.297 N 
ATOM     25  C   UNL     1      -3.055  -7.364  -1.485  0.00  0.00    +0.224 C 
ATOM     26  O   UNL     1      -2.403  -8.357  -1.727  0.00  0.00    -0.275 OA
ATOM     27  H   UNL     1      -4.990  -6.496  -1.369  0.00  0.00    +0.150 HD
BRANCH  24  29
ATOM     28  C   UNL     1      -4.750  -9.742  -0.989  0.00  0.00    +0.048 C 
ATOM     29  C   UNL     1      -5.071  -8.634  -1.994  0.00  0.00    +0.121 C 
BRANCH  29  30
ATOM     30  C   UNL     1      -6.583  -8.403  -2.033  0.00  0.00    +0.026 C 
ATOM     31  C   UNL     1      -7.446  -9.204  -1.055  0.00  0.00    +0.007 C 
ATOM     32  C   UNL     1      -7.460  -9.547  -2.546  0.00  0.00    +0.007 C 
ENDBRANCH  29  30
BRANCH  29  33
ATOM     33  C   UNL     1      -4.602  -9.033  -3.331  0.00  0.00    +0.088 C 
ATOM     34  N   UNL     1      -4.239  -9.341  -4.362  0.00  0.00    -0.194 NA
ENDBRANCH  29  33
ENDBRANCH  24  29
ENDBRANCH  23  25
ENDBRANCH  22  23
ENDBRANCH   1  22
TORSDOF 7
