REMARK  Name = ZINC20470414
REMARK  9 active torsions:
REMARK  status: ('A' for Active; 'I' for Inactive)
REMARK    1  A    between atoms: C_1  and  C_2
REMARK    2  A    between atoms: C_4  and  C_19
REMARK    3  A    between atoms: C_5  and  C_18
REMARK    4  A    between atoms: C_6  and  O_8
REMARK    5  A    between atoms: O_8  and  C_9
REMARK    6  A    between atoms: C_10  and  C_16
REMARK    7  A    between atoms: C_11  and  C_15
REMARK    8  A    between atoms: N_13  and  C_14
REMARK    9  A    between atoms: C_16  and  N_17
REMARK                            x       y       z     vdW  Elec       q    Type
REMARK                         _______ _______ _______ _____ _____    ______ ____
ROOT
ATOM      1  C   UNL     1       4.722   0.102  -0.147  0.00  0.00    +0.220 A 
ATOM      2  C   UNL     1       5.555   0.451   0.869  0.00  0.00    +0.019 A 
ATOM      3  C   UNL     1       6.603   1.200   0.325  0.00  0.00    +0.065 A 
ATOM      4  N   UNL     1       6.412   1.298  -0.965  0.00  0.00    -0.173 NA
ATOM      5  N   UNL     1       5.236   0.610  -1.290  0.00  0.00    -0.236 N 
ATOM      6  C   UNL     1       4.662   0.469  -2.630  0.00  0.00    +0.176 C 
ATOM      7  C   UNL     1       7.757   1.791   1.094  0.00  0.00    +0.068 C 
ENDROOT
BRANCH   1   8
ATOM      8  O   UNL     1       3.584  -0.630  -0.036  0.00  0.00    -0.438 OA
BRANCH   8  14
ATOM      9  C   UNL     1       1.188   3.599   0.409  0.00  0.00    +0.044 C 
ATOM     10  C   UNL     1       1.198   2.096   0.294  0.00  0.00    -0.047 A 
ATOM     11  C   UNL     1       0.006   1.395   0.301  0.00  0.00    +0.007 A 
ATOM     12  C   UNL     1       0.011   0.017   0.195  0.00  0.00    -0.044 A 
ATOM     13  C   UNL     1       1.208  -0.664   0.082  0.00  0.00    -0.005 A 
ATOM     14  C   UNL     1       2.405   0.037   0.075  0.00  0.00    +0.134 A 
ATOM     15  C   UNL     1       2.397   1.421   0.182  0.00  0.00    +0.050 A 
ATOM     16  C   UNL     1       1.214  -2.167  -0.033  0.00  0.00    +0.048 C 
ATOM     17  C   UNL     1      -1.290  -0.744   0.203  0.00  0.00    +0.044 C 
ENDBRANCH   8  14
ENDBRANCH   1   8
BRANCH   2  18
ATOM     18  C   UNL     1       5.380   0.095   2.323  0.00  0.00    -0.043 C 
BRANCH  18  19
ATOM     19  N   UNL     1       6.050  -1.183   2.598  0.00  0.00    +0.381 N 
ATOM     20  H   UNL     1       5.922  -1.443   3.659  0.00  0.00    -0.090 HD
ATOM     21  H   UNL     1       7.122  -1.091   2.370  0.00  0.00    -0.090 HD
ATOM     22  H   UNL     1       5.608  -1.971   1.971  0.00  0.00    -0.090 HD
ENDBRANCH  18  19
ENDBRANCH   2  18
TORSDOF 4
