REMARK  Name = ZINC22135108
REMARK  13 active torsions:
REMARK  status: ('A' for Active; 'I' for Inactive)
REMARK    1  A    between atoms: C_1  and  C_2
REMARK    2  A    between atoms: C_2  and  C_3
REMARK    3  A    between atoms: C_3  and  C_4
REMARK    4  A    between atoms: C_4  and  C_5
REMARK    5  A    between atoms: C_5  and  N_6
REMARK    6  A    between atoms: C_9  and  C_17
REMARK    7  A    between atoms: C_10  and  C_12
REMARK    8  A    between atoms: C_12  and  O_14
REMARK    9  A    between atoms: O_14  and  C_15
REMARK   10  A    between atoms: C_15  and  C_16
REMARK   11  A    between atoms: C_18  and  C_20
REMARK   12  A    between atoms: C_20  and  N_21
REMARK   13  A    between atoms: C_29  and  C_31
REMARK                            x       y       z     vdW  Elec       q    Type
REMARK                         _______ _______ _______ _____ _____    ______ ____
ROOT
ATOM      1  N   UNL     1      -3.409   0.315   6.847  0.00  0.00    -0.249 N 
ATOM      2  C   UNL     1      -2.502   0.319   7.892  0.00  0.00    +0.168 A 
ATOM      3  N   UNL     1      -1.179   0.344   7.841  0.00  0.00    -0.229 NA
ATOM      4  C   UNL     1      -0.452   0.349   8.927  0.00  0.00    +0.062 A 
ATOM      5  C   UNL     1      -1.112   0.312  10.148  0.00  0.00    +0.120 A 
ATOM      6  S   UNL     1      -2.813   0.282   9.600  0.00  0.00    -0.045 S 
ATOM      7  C   UNL     1       1.053   0.385   8.856  0.00  0.00    +0.067 C 
ATOM      8  C   UNL     1      -2.969   0.347   5.573  0.00  0.00    +0.239 C 
ATOM      9  O   UNL     1      -1.778   0.378   5.343  0.00  0.00    -0.273 OA
ENDROOT
BRANCH   5  10
ATOM     10  C   UNL     1      -0.568   0.302  11.504  0.00  0.00    +0.348 C 
ATOM     11  O   UNL     1       0.636   0.327  11.676  0.00  0.00    -0.244 OA
BRANCH  10  12
ATOM     12  O   UNL     1      -1.400   0.265  12.565  0.00  0.00    -0.461 OA
BRANCH  12  13
ATOM     13  C   UNL     1      -0.799   0.257  13.861  0.00  0.00    +0.229 C 
ATOM     14  C   UNL     1      -1.893   0.213  14.930  0.00  0.00    +0.048 C 
ENDBRANCH  12  13
ENDBRANCH  10  12
ENDBRANCH   5  10
BRANCH   1  15
ATOM     15  C   UNL     1      -4.846   0.277   7.124  0.00  0.00    +0.115 C 
BRANCH  15  16
ATOM     16  C   UNL     1      -5.314  -1.178   7.197  0.00  0.00    +0.019 C 
BRANCH  16  17
ATOM     17  C   UNL     1      -6.815  -1.217   7.487  0.00  0.00    +0.001 C 
BRANCH  17  19
ATOM     18  C   UNL     1      -8.784  -2.712   7.849  0.00  0.00    +0.004 C 
ATOM     19  C   UNL     1      -7.283  -2.672   7.559  0.00  0.00    -0.003 C 
ENDBRANCH  17  19
ENDBRANCH  16  17
ENDBRANCH  15  16
ENDBRANCH   1  15
BRANCH   8  20
ATOM     20  C   UNL     1      -3.956   0.343   4.435  0.00  0.00    +0.214 C 
BRANCH  20  21
ATOM     21  N   UNL     1      -3.233   0.381   3.161  0.00  0.00    -0.215 N 
ATOM     22  C   UNL     1      -2.885   1.517   2.521  0.00  0.00    +0.247 C 
ATOM     23  O   UNL     1      -3.102   2.655   2.875  0.00  0.00    -0.273 OA
ATOM     24  C   UNL     1      -2.167   1.069   1.268  0.00  0.00    +0.115 C 
ATOM     25  C   UNL     1      -2.911   1.550   0.027  0.00  0.00    +0.035 C 
ATOM     26  C   UNL     1      -2.186   1.056  -1.227  0.00  0.00    +0.003 C 
ATOM     27  C   UNL     1      -0.753   1.593  -1.231  0.00  0.00    +0.000 C 
ATOM     28  C   UNL     1      -0.013   1.086   0.008  0.00  0.00    +0.006 C 
ATOM     29  C   UNL     1      -0.730   1.580   1.267  0.00  0.00    +0.018 C 
ATOM     30  C   UNL     1      -0.002   1.056   2.507  0.00  0.00    +0.010 C 
ATOM     31  N   UNL     1      -2.191  -0.397   1.347  0.00  0.00    -0.285 N 
ATOM     32  C   UNL     1      -2.836  -0.706   2.489  0.00  0.00    +0.310 C 
ATOM     33  O   UNL     1      -3.035  -1.844   2.866  0.00  0.00    -0.252 OA
ATOM     34  H   UNL     1      -1.730  -0.998   0.550  0.00  0.00    +0.151 HD
ENDBRANCH  20  21
ENDBRANCH   8  20
TORSDOF 9
