REMARK  Name = ZINC12387700
REMARK  9 active torsions:
REMARK  status: ('A' for Active; 'I' for Inactive)
REMARK    1  A    between atoms: C_1  and  C_2
REMARK    2  A    between atoms: C_5  and  C_8
REMARK    3  A    between atoms: C_8  and  C_9
REMARK    4  A    between atoms: C_9  and  N_59
REMARK    5  A    between atoms: C_10  and  C_11
REMARK    6  A    between atoms: C_10  and  N_59
REMARK    7  A    between atoms: C_12  and  C_21
REMARK    8  A    between atoms: C_25  and  C_32
REMARK    9  A    between atoms: C_28  and  C_31
REMARK                            x       y       z     vdW  Elec       q    Type
REMARK                         _______ _______ _______ _____ _____    ______ ____
ROOT
ATOM      1  C   UNL     1      -2.266   4.643   0.037  0.00  0.00    +0.039 A 
ATOM      2  C   UNL     1      -1.721   5.895   0.022  0.00  0.00    +0.146 A 
ATOM      3  N   UNL     1      -0.383   5.770  -0.036  0.00  0.00    -0.223 NA
ATOM      4  C   UNL     1      -0.071   4.485  -0.058  0.00  0.00    +0.139 A 
ATOM      5  N   UNL     1      -1.233   3.756  -0.013  0.00  0.00    -0.303 N 
ATOM      6  C   UNL     1      -1.194   2.390  -0.028  0.00  0.00    +0.113 A 
ATOM      7  C   UNL     1      -0.014   1.736  -0.077  0.00  0.00    +0.058 A 
ATOM      8  C   UNL     1       1.194   2.455  -0.125  0.00  0.00    +0.025 A 
ATOM      9  C   UNL     1       1.170   3.814  -0.115  0.00  0.00    +0.048 A 
ATOM     10 CL   UNL     1       0.012   0.001  -0.090  0.00  0.00    -0.082 Cl
ENDROOT
BRANCH   2  11
ATOM     11  C   UNL     1      -2.471   7.166   0.063  0.00  0.00    +0.267 C 
ATOM     12  O   UNL     1      -3.685   7.158   0.005  0.00  0.00    -0.268 OA
ATOM     13  N   UNL     1      -1.809   8.336   0.164  0.00  0.00    -0.291 N 
ATOM     14  C   UNL     1      -0.338   8.377   0.158  0.00  0.00    +0.139 C 
ATOM     15  C   UNL     1       0.132   9.207   1.353  0.00  0.00    +0.133 C 
ATOM     16  O   UNL     1      -0.539  10.470   1.343  0.00  0.00    -0.371 OA
ATOM     17  C   UNL     1      -1.959  10.379   1.483  0.00  0.00    +0.133 C 
ATOM     18  C   UNL     1      -2.536   9.609   0.290  0.00  0.00    +0.139 C 
ATOM     19  C   UNL     1      -2.561  11.785   1.523  0.00  0.00    +0.039 C 
ATOM     20  C   UNL     1       1.643   9.431   1.261  0.00  0.00    +0.039 C 
ENDBRANCH   2  11
BRANCH   1  21
ATOM     21  C   UNL     1      -3.733   4.306   0.097  0.00  0.00    -0.025 C 
BRANCH  21  22
ATOM     22  N   UNL     1      -4.145   4.188   1.509  0.00  0.00    +0.383 N 
ATOM     23  H   UNL     1      -3.598   3.446   1.960  0.00  0.00    -0.085 HD
ATOM     24  H   UNL     1      -3.973   5.080   1.988  0.00  0.00    -0.085 HD
BRANCH  22  25
ATOM     25  C   UNL     1      -5.580   3.857   1.598  0.00  0.00    -0.077 C 
BRANCH  25  26
ATOM     26  C   UNL     1      -5.977   3.742   3.071  0.00  0.00    +0.016 C 
BRANCH  26  31
ATOM     27  C   UNL     1     -11.596   2.448   3.456  0.00  0.00    +0.044 C 
ATOM     28  C   UNL     1     -10.131   2.785   3.356  0.00  0.00    -0.050 A 
ATOM     29  C   UNL     1      -9.191   1.773   3.290  0.00  0.00    +0.003 A 
ATOM     30  C   UNL     1      -7.847   2.083   3.198  0.00  0.00    +0.004 A 
ATOM     31  C   UNL     1      -7.443   3.405   3.171  0.00  0.00    -0.049 A 
ATOM     32  C   UNL     1      -8.382   4.417   3.242  0.00  0.00    +0.004 A 
ATOM     33  C   UNL     1      -9.726   4.107   3.329  0.00  0.00    +0.003 A 
ENDBRANCH  26  31
ENDBRANCH  25  26
ENDBRANCH  22  25
ENDBRANCH  21  22
ENDBRANCH   1  21
TORSDOF 6
