REMARK  Name = ZINC63948809
REMARK  2 active torsions:
REMARK  status: ('A' for Active; 'I' for Inactive)
REMARK    1  A    between atoms: C_8  and  C_28
REMARK    2  A    between atoms: C_16  and  C_18
REMARK                            x       y       z     vdW  Elec       q    Type
REMARK                         _______ _______ _______ _____ _____    ______ ____
ROOT
ATOM      1  C   UNL     1      -0.360   1.046   1.842  0.00  0.00    +0.001 A 
ATOM      2  C   UNL     1       0.760   1.887   1.796  0.00  0.00    +0.002 A 
ATOM      3  C   UNL     1       1.986   1.448   1.442  0.00  0.00    +0.026 A 
ATOM      4  C   UNL     1       2.192   0.086   1.095  0.00  0.00    +0.043 A 
ATOM      5  N   UNL     1       3.273  -0.573   0.744  0.00  0.00    -0.375 N 
ATOM      6  C   UNL     1       2.897  -1.947   0.424  0.00  0.00    +0.131 C 
ATOM      7  C   UNL     1       3.669  -2.964   1.274  0.00  0.00    +0.133 C 
ATOM      8  N   UNL     1       2.962  -4.251   1.190  0.00  0.00    -0.285 N 
ATOM      9  C   UNL     1       1.569  -4.369   1.635  0.00  0.00    +0.113 C 
ATOM     10  C   UNL     1       0.696  -3.381   0.841  0.00  0.00    +0.052 C 
ATOM     11  C   UNL     1       1.428  -2.059   0.795  0.00  0.00    -0.035 C 
ATOM     12  C   UNL     1       1.025  -0.829   1.143  0.00  0.00    -0.001 A 
ATOM     13  C   UNL     1      -0.275  -0.268   1.535  0.00  0.00    +0.010 A 
ATOM     14  C   UNL     1       3.600  -5.332   0.700  0.00  0.00    +0.283 C 
ATOM     15  O   UNL     1       4.786  -5.272   0.438  0.00  0.00    -0.267 OA
ATOM     16  H   UNL     1       4.171  -0.207   0.704  0.00  0.00    +0.160 HD
ENDROOT
BRANCH  14  17
ATOM     17  C   UNL     1       2.863  -6.585   0.482  0.00  0.00    +0.191 A 
ATOM     18  C   UNL     1       3.429  -7.812   0.344  0.00  0.00    +0.063 A 
ATOM     19  C   UNL     1       2.324  -8.749   0.149  0.00  0.00    +0.022 A 
ATOM     20  C   UNL     1       2.241 -10.129  -0.049  0.00  0.00    +0.027 A 
ATOM     21  C   UNL     1       1.018 -10.720  -0.203  0.00  0.00    +0.019 A 
ATOM     22  C   UNL     1      -0.142  -9.956  -0.163  0.00  0.00    +0.019 A 
ATOM     23  C   UNL     1      -0.081  -8.593   0.032  0.00  0.00    +0.048 A 
ATOM     24  C   UNL     1       1.152  -7.971   0.190  0.00  0.00    +0.136 A 
ATOM     25  O   UNL     1       1.520  -6.691   0.396  0.00  0.00    -0.450 OA
ATOM     26 BR   UNL     1       0.903 -12.588  -0.472  0.00  0.00    -0.050 Br
ENDBRANCH  14  17
BRANCH   7  27
ATOM     27  C   UNL     1       5.070  -3.114   0.742  0.00  0.00    -0.021 A 
ATOM     28  C   UNL     1       6.133  -3.227   1.619  0.00  0.00    +0.009 A 
ATOM     29  C   UNL     1       7.420  -3.365   1.135  0.00  0.00    +0.050 A 
ATOM     30  C   UNL     1       7.649  -3.392  -0.232  0.00  0.00    +0.166 A 
ATOM     31  C   UNL     1       6.578  -3.278  -1.115  0.00  0.00    +0.167 A 
ATOM     32  C   UNL     1       5.290  -3.145  -0.623  0.00  0.00    +0.055 A 
ATOM     33  O   UNL     1       7.059  -3.331  -2.392  0.00  0.00    -0.453 OA
ATOM     34  C   UNL     1       8.470  -3.067  -2.282  0.00  0.00    +0.466 C 
ATOM     35  O   UNL     1       8.800  -3.516  -0.955  0.00  0.00    -0.453 OA
ENDBRANCH   7  27
TORSDOF 2
