REMARK  Name = ZINC40076262
REMARK  18 active torsions:
REMARK  status: ('A' for Active; 'I' for Inactive)
REMARK    1  A    between atoms: C_1  and  C_2
REMARK    2  A    between atoms: C_5  and  C_8
REMARK    3  A    between atoms: C_8  and  C_10
REMARK    4  A    between atoms: N_14  and  C_31
REMARK    5  A    between atoms: C_15  and  C_17
REMARK    6  A    between atoms: C_20  and  O_25
REMARK    7  A    between atoms: C_21  and  O_23
REMARK    8  A    between atoms: O_23  and  C_24
REMARK    9  A    between atoms: O_25  and  C_26
REMARK   10  A    between atoms: C_26  and  C_27
REMARK   11  A    between atoms: C_27  and  C_28
REMARK   12  A    between atoms: C_28  and  C_29
REMARK   13  A    between atoms: C_28  and  C_30
REMARK   14  A    between atoms: C_31  and  C_32
REMARK   15  A    between atoms: C_32  and  O_33
REMARK   16  A    between atoms: O_33  and  C_34
REMARK   17  A    between atoms: C_34  and  C_35
REMARK   18  A    between atoms: C_35  and  O_36
REMARK                            x       y       z     vdW  Elec       q    Type
REMARK                         _______ _______ _______ _____ _____    ______ ____
ROOT
ATOM      1  C   UNL     1       0.103  -5.098   1.179  0.00  0.00    +0.076 C 
ATOM      2  C   UNL     1       0.208  -6.445   1.258  0.00  0.00    +0.249 C 
ATOM      3  C   UNL     1       0.276  -6.844   2.680  0.00  0.00    +0.288 C 
ATOM      4  O   UNL     1       0.375  -7.987   3.079  0.00  0.00    -0.266 OA
ATOM      5  N   UNL     1       0.214  -5.754   3.466  0.00  0.00    -0.281 N 
ATOM      6  C   UNL     1       0.107  -4.576   2.597  0.00  0.00    +0.145 C 
ATOM      7  O   UNL     1       0.244  -7.292   0.204  0.00  0.00    -0.282 OA
ENDROOT
BRANCH   6   8
ATOM      8  C   UNL     1      -1.177  -3.841   2.883  0.00  0.00    -0.019 A 
ATOM      9  C   UNL     1      -2.310  -4.545   3.243  0.00  0.00    +0.009 A 
ATOM     10  C   UNL     1      -3.490  -3.875   3.506  0.00  0.00    +0.050 A 
ATOM     11  C   UNL     1      -3.539  -2.494   3.409  0.00  0.00    +0.162 A 
ATOM     12  C   UNL     1      -2.398  -1.784   3.046  0.00  0.00    +0.162 A 
ATOM     13  C   UNL     1      -1.217  -2.462   2.788  0.00  0.00    +0.055 A 
BRANCH  12  14
ATOM     14  O   UNL     1      -2.441  -0.428   2.949  0.00  0.00    -0.491 OA
ATOM     15  C   UNL     1      -1.207   0.242   2.687  0.00  0.00    +0.277 C 
ENDBRANCH  12  14
BRANCH  11  16
ATOM     16  O   UNL     1      -4.699  -1.833   3.666  0.00  0.00    -0.488 OA
BRANCH  16  17
ATOM     17  C   UNL     1      -5.830  -2.626   4.032  0.00  0.00    +0.229 C 
BRANCH  17  18
ATOM     18  C   UNL     1      -7.033  -1.714   4.282  0.00  0.00    +0.044 C 
BRANCH  18  19
ATOM     19  C   UNL     1      -8.244  -2.563   4.674  0.00  0.00    -0.014 C 
ATOM     20  C   UNL     1      -7.973  -3.250   6.014  0.00  0.00    +0.007 C 
ATOM     21  C   UNL     1      -9.477  -1.666   4.801  0.00  0.00    +0.007 C 
ENDBRANCH  18  19
ENDBRANCH  17  18
ENDBRANCH  16  17
ENDBRANCH  11  16
ENDBRANCH   6   8
BRANCH   1  22
ATOM     22  C   UNL     1       0.009  -4.298  -0.046  0.00  0.00    +0.195 C 
ATOM     23  O   UNL     1      -0.977  -4.384  -0.754  0.00  0.00    -0.287 OA
BRANCH  22  28
ATOM     24  C   UNL     1       4.302  -0.755  -1.505  0.00  0.00    +0.044 C 
ATOM     25  C   UNL     1       3.178  -1.683  -1.123  0.00  0.00    -0.050 A 
ATOM     26  C   UNL     1       2.095  -1.838  -1.971  0.00  0.00    +0.004 A 
ATOM     27  C   UNL     1       1.063  -2.686  -1.627  0.00  0.00    +0.012 A 
ATOM     28  C   UNL     1       1.112  -3.388  -0.421  0.00  0.00    +0.022 A 
ATOM     29  C   UNL     1       2.208  -3.227   0.429  0.00  0.00    +0.012 A 
ATOM     30  C   UNL     1       3.236  -2.380   0.071  0.00  0.00    +0.004 A 
ENDBRANCH  22  28
ENDBRANCH   1  22
BRANCH   5  31
ATOM     31  C   UNL     1       0.252  -5.744   4.931  0.00  0.00    +0.137 C 
BRANCH  31  32
ATOM     32  C   UNL     1       1.703  -5.630   5.402  0.00  0.00    +0.179 C 
BRANCH  32  33
ATOM     33  O   UNL     1       2.236  -4.366   5.002  0.00  0.00    -0.376 OA
BRANCH  33  34
ATOM     34  C   UNL     1       3.593  -4.157   5.395  0.00  0.00    +0.187 C 
BRANCH  34  35
ATOM     35  C   UNL     1       4.057  -2.780   4.916  0.00  0.00    +0.184 C 
BRANCH  35  36
ATOM     36  O   UNL     1       3.308  -1.765   5.588  0.00  0.00    -0.393 OA
ATOM     37  H   UNL     1       3.549  -0.864   5.333  0.00  0.00    +0.209 HD
ENDBRANCH  35  36
ENDBRANCH  34  35
ENDBRANCH  33  34
ENDBRANCH  32  33
ENDBRANCH  31  32
ENDBRANCH   5  31
TORSDOF 14
