REMARK  Name = ZINC40374116
REMARK  12 active torsions:
REMARK  status: ('A' for Active; 'I' for Inactive)
REMARK    1  A    between atoms: C_1  and  C_2
REMARK    2  A    between atoms: C_2  and  C_3
REMARK    3  A    between atoms: C_2  and  C_4
REMARK    4  A    between atoms: C_2  and  C_5
REMARK    5  A    between atoms: C_8  and  C_11
REMARK    6  A    between atoms: C_11  and  C_13
REMARK    7  A    between atoms: C_11  and  N_31
REMARK    8  A    between atoms: C_13  and  N_14
REMARK    9  A    between atoms: N_14  and  C_15
REMARK   10  A    between atoms: C_16  and  C_29
REMARK   11  A    between atoms: C_18  and  C_20
REMARK   12  A    between atoms: C_25  and  N_26
REMARK                            x       y       z     vdW  Elec       q    Type
REMARK                         _______ _______ _______ _____ _____    ______ ____
ROOT
ATOM      1  C   UNL     1       2.683  -0.365  -4.870  0.00  0.00    +0.094 C 
ENDROOT
BRANCH   1   2
ATOM      2  N   UNL     1       1.562  -0.183  -5.795  0.00  0.00    -0.314 N 
ATOM      3  H   UNL     1       0.745  -0.691  -5.672  0.00  0.00    +0.149 HD
BRANCH   2   4
ATOM      4  C   UNL     1       1.667   0.710  -6.838  0.00  0.00    +0.225 A 
ATOM      5  C   UNL     1       0.696   0.994  -7.787  0.00  0.00    +0.201 A 
ATOM      6  N   UNL     1       1.221   1.927  -8.624  0.00  0.00    -0.196 NA
ATOM      7  C   UNL     1       2.435   2.208  -8.227  0.00  0.00    +0.233 A 
ATOM      8  O   UNL     1       2.731   1.480  -7.132  0.00  0.00    -0.420 OA
BRANCH   7   9
ATOM      9  C   UNL     1       3.341   3.178  -8.875  0.00  0.00    +0.067 A 
ATOM     10  C   UNL     1       2.928   4.496  -9.078  0.00  0.00    +0.015 A 
ATOM     11  C   UNL     1       3.779   5.397  -9.684  0.00  0.00    +0.001 A 
ATOM     12  C   UNL     1       5.040   4.997 -10.090  0.00  0.00    +0.002 A 
ATOM     13  C   UNL     1       5.456   3.693  -9.892  0.00  0.00    +0.033 A 
ATOM     14  C   UNL     1       4.617   2.783  -9.282  0.00  0.00    +0.138 A 
BRANCH  14  15
ATOM     15  N   UNL     1       5.066   1.389  -9.065  0.00  0.00    +0.057 N 
ATOM     16  O   UNL     1       6.203   1.072  -9.328  0.00  0.00    -0.126 OA
ATOM     17  O   UNL     1       4.296   0.567  -8.626  0.00  0.00    -0.126 OA
ENDBRANCH  14  15
ENDBRANCH   7   9
BRANCH   5  18
ATOM     18  C   UNL     1      -0.611   0.414  -7.869  0.00  0.00    +0.124 C 
ATOM     19  N   UNL     1      -1.647  -0.046  -7.935  0.00  0.00    -0.189 NA
ENDBRANCH   5  18
ENDBRANCH   2   4
ENDBRANCH   1   2
BRANCH   1  20
ATOM     20  C   UNL     1       2.354  -1.487  -3.883  0.00  0.00    -0.020 C 
BRANCH  20  24
ATOM     21  C   UNL     1      -0.873  -0.268  -1.363  0.00  0.00    -0.042 A 
ATOM     22  C   UNL     1      -1.114  -1.097  -2.442  0.00  0.00    +0.004 A 
ATOM     23  C   UNL     1      -0.070  -1.492  -3.258  0.00  0.00    +0.002 A 
ATOM     24  C   UNL     1       1.215  -1.056  -2.995  0.00  0.00    -0.059 A 
ATOM     25  C   UNL     1       1.456  -0.226  -1.916  0.00  0.00    +0.002 A 
ATOM     26  C   UNL     1       0.412   0.172  -1.103  0.00  0.00    +0.004 A 
BRANCH  21  28
ATOM     27  C   UNL     1      -2.130   1.687  -0.500  0.00  0.00    +0.015 C 
ATOM     28  C   UNL     1      -2.011   0.162  -0.474  0.00  0.00    -0.013 C 
ATOM     29  C   UNL     1      -1.744  -0.305   0.958  0.00  0.00    +0.015 C 
ATOM     30  C   UNL     1      -3.315  -0.460  -0.978  0.00  0.00    +0.015 C 
ENDBRANCH  21  28
ENDBRANCH  20  24
BRANCH  20  31
ATOM     31  N   UNL     1       3.535  -1.777  -3.060  0.00  0.00    +0.385 N 
ATOM     32  C   UNL     1       3.273  -2.946  -2.181  0.00  0.00    -0.078 C 
ATOM     33  C   UNL     1       4.694  -3.456  -1.836  0.00  0.00    -0.020 C 
ATOM     34  C   UNL     1       5.468  -3.242  -3.157  0.00  0.00    -0.020 C 
ATOM     35  C   UNL     1       4.673  -2.166  -3.920  0.00  0.00    -0.078 C 
ATOM     36  H   UNL     1       3.779  -0.971  -2.504  0.00  0.00    -0.081 HD
ENDBRANCH  20  31
ENDBRANCH   1  20
TORSDOF 9
