REMARK  Name = ZINC36642376
REMARK  10 active torsions:
REMARK  status: ('A' for Active; 'I' for Inactive)
REMARK    1  A    between atoms: C_1  and  C_2
REMARK    2  A    between atoms: C_2  and  N_3
REMARK    3  A    between atoms: N_3  and  C_4
REMARK    4  A    between atoms: N_3  and  C_6
REMARK    5  A    between atoms: C_4  and  C_5
REMARK    6  A    between atoms: C_6  and  C_7
REMARK    7  A    between atoms: C_7  and  N_8
REMARK    8  A    between atoms: C_19  and  C_21
REMARK    9  A    between atoms: C_24  and  N_30
REMARK   10  A    between atoms: C_25  and  N_27
REMARK                            x       y       z     vdW  Elec       q    Type
REMARK                         _______ _______ _______ _____ _____    ______ ____
ROOT
ATOM      1  N   UNL     1       2.104  -4.235   2.346  0.00  0.00    -0.248 N 
ATOM      2  C   UNL     1       3.333  -4.823   2.104  0.00  0.00    +0.168 A 
ATOM      3  N   UNL     1       4.534  -4.323   2.280  0.00  0.00    -0.224 NA
ATOM      4  C   UNL     1       5.659  -5.017   1.999  0.00  0.00    +0.080 A 
ATOM      5  C   UNL     1       7.002  -4.598   2.141  0.00  0.00    +0.030 A 
ATOM      6  C   UNL     1       8.035  -5.433   1.807  0.00  0.00    +0.022 A 
ATOM      7  C   UNL     1       7.805  -6.713   1.320  0.00  0.00    +0.042 A 
ATOM      8  C   UNL     1       6.503  -7.156   1.168  0.00  0.00    +0.037 A 
ATOM      9  C   UNL     1       5.462  -6.325   1.500  0.00  0.00    +0.042 A 
ATOM     10  S   UNL     1       3.690  -6.460   1.480  0.00  0.00    -0.052 S 
ATOM     11 CL   UNL     1       9.137  -7.747   0.905  0.00  0.00    -0.084 Cl
ATOM     12  C   UNL     1       0.969  -4.922   2.105  0.00  0.00    +0.252 C 
ATOM     13  O   UNL     1       1.026  -6.077   1.727  0.00  0.00    -0.270 OA
ENDROOT
BRANCH  12  14
ATOM     14  C   UNL     1      -0.341  -4.273   2.299  0.00  0.00    +0.040 A 
ATOM     15  C   UNL     1      -0.474  -2.894   2.109  0.00  0.00    +0.015 A 
ATOM     16  C   UNL     1      -1.698  -2.292   2.291  0.00  0.00    +0.026 A 
ATOM     17  C   UNL     1      -2.802  -3.054   2.663  0.00  0.00    +0.060 A 
ATOM     18  C   UNL     1      -2.672  -4.427   2.853  0.00  0.00    +0.148 A 
ATOM     19  C   UNL     1      -1.453  -5.037   2.667  0.00  0.00    +0.047 A 
BRANCH  17  20
ATOM     20  N   UNL     1      -4.038  -2.442   2.846  0.00  0.00    -0.324 N 
ATOM     21  C   UNL     1      -4.432  -1.910   4.160  0.00  0.00    +0.133 C 
ATOM     22  C   UNL     1      -4.918  -0.469   3.972  0.00  0.00    +0.178 C 
ATOM     23  O   UNL     1      -5.916  -0.439   2.949  0.00  0.00    -0.377 OA
ATOM     24  C   UNL     1      -5.448  -0.847   1.661  0.00  0.00    +0.178 C 
ATOM     25  C   UNL     1      -4.987  -2.303   1.730  0.00  0.00    +0.133 C 
ENDBRANCH  17  20
BRANCH  18  26
ATOM     26  N   UNL     1      -3.849  -5.233   3.249  0.00  0.00    +0.058 N 
ATOM     27  O   UNL     1      -3.737  -6.426   3.414  0.00  0.00    -0.126 OA
ATOM     28  O   UNL     1      -4.922  -4.699   3.409  0.00  0.00    -0.126 OA
ENDBRANCH  18  26
ENDBRANCH  12  14
BRANCH   1  29
ATOM     29  C   UNL     1       2.035  -2.867   2.864  0.00  0.00    +0.097 C 
BRANCH  29  30
ATOM     30  C   UNL     1       2.304  -1.877   1.728  0.00  0.00    -0.059 C 
BRANCH  30  31
ATOM     31  N   UNL     1       2.113  -0.506   2.219  0.00  0.00    +0.380 N 
ATOM     32  H   UNL     1       1.187  -0.414   2.609  0.00  0.00    -0.082 HD
BRANCH  31  34
ATOM     33  C   UNL     1       2.837   1.169   3.852  0.00  0.00    -0.017 C 
ATOM     34  C   UNL     1       3.113  -0.212   3.254  0.00  0.00    -0.082 C 
ENDBRANCH  31  34
BRANCH  31  35
ATOM     35  C   UNL     1       2.270   0.439   1.104  0.00  0.00    -0.082 C 
ATOM     36  C   UNL     1       1.126   0.245   0.107  0.00  0.00    -0.017 C 
ENDBRANCH  31  35
ENDBRANCH  30  31
ENDBRANCH  29  30
ENDBRANCH   1  29
TORSDOF 8
