REMARK  Name = ZINC63245236
REMARK  7 active torsions:
REMARK  status: ('A' for Active; 'I' for Inactive)
REMARK    1  A    between atoms: C_7  and  C_10
REMARK    2  A    between atoms: C_13  and  S_22
REMARK    3  A    between atoms: N_14  and  C_15
REMARK    4  A    between atoms: S_22  and  C_23
REMARK    5  A    between atoms: C_23  and  C_24
REMARK    6  A    between atoms: N_26  and  C_27
REMARK    7  A    between atoms: C_27  and  C_28
REMARK                            x       y       z     vdW  Elec       q    Type
REMARK                         _______ _______ _______ _____ _____    ______ ____
ROOT
ATOM      1  C   UNL     1       0.675  -3.130  -0.022  0.00  0.00    +0.168 A 
ATOM      2  N   UNL     1      -0.649  -3.067  -0.015  0.00  0.00    -0.128 NA
ATOM      3  N   UNL     1      -1.141  -4.254  -0.016  0.00  0.00    -0.122 NA
ATOM      4  C   UNL     1      -0.168  -5.152  -0.024  0.00  0.00    +0.197 A 
ATOM      5  N   UNL     1       1.014  -4.473  -0.033  0.00  0.00    -0.270 N 
ENDROOT
BRANCH   1  12
ATOM      6  C   UNL     1      -0.016   1.354   0.009  0.00  0.00    +0.001 A 
ATOM      7  C   UNL     1       1.163   2.101   0.002  0.00  0.00    +0.002 A 
ATOM      8  C   UNL     1       2.384   1.511  -0.013  0.00  0.00    +0.026 A 
ATOM      9  C   UNL     1       2.483   0.096  -0.021  0.00  0.00    +0.043 A 
ATOM     10  N   UNL     1       3.531  -0.705  -0.036  0.00  0.00    -0.380 N 
ATOM     11  C   UNL     1       3.075  -2.098  -0.039  0.00  0.00    +0.152 C 
ATOM     12  C   UNL     1       1.563  -2.043  -0.024  0.00  0.00    +0.025 C 
ATOM     13  C   UNL     1       1.237  -0.687  -0.013  0.00  0.00    +0.006 A 
ATOM     14  C   UNL     1       0.002  -0.004   0.002  0.00  0.00    +0.010 A 
ATOM     15  H   UNL     1       4.457  -0.417  -0.043  0.00  0.00    +0.160 HD
ENDBRANCH   1  12
BRANCH   5  16
ATOM     16  C   UNL     1       2.305  -5.020  -0.048  0.00  0.00    +0.051 A 
ATOM     17  C   UNL     1       3.135  -4.813  -1.142  0.00  0.00    +0.028 A 
ATOM     18  C   UNL     1       4.406  -5.353  -1.154  0.00  0.00    +0.022 A 
ATOM     19  C   UNL     1       4.852  -6.100  -0.078  0.00  0.00    +0.041 A 
ATOM     20  C   UNL     1       4.027  -6.308   1.012  0.00  0.00    +0.022 A 
ATOM     21  C   UNL     1       2.757  -5.765   1.033  0.00  0.00    +0.028 A 
ATOM     22 CL   UNL     1       6.451  -6.777  -0.097  0.00  0.00    -0.084 Cl
ENDBRANCH   5  16
BRANCH   4  23
ATOM     23  S   UNL     1      -0.364  -6.903  -0.028  0.00  0.00    -0.076 S 
BRANCH  23  24
ATOM     24  C   UNL     1      -2.162  -7.143  -0.020  0.00  0.00    +0.173 C 
BRANCH  24  25
ATOM     25  C   UNL     1      -2.473  -8.617  -0.023  0.00  0.00    +0.224 C 
ATOM     26  O   UNL     1      -1.570  -9.427  -0.029  0.00  0.00    -0.275 OA
ATOM     27  N   UNL     1      -3.754  -9.037  -0.018  0.00  0.00    -0.311 N 
ATOM     28  H   UNL     1      -4.476  -8.389  -0.013  0.00  0.00    +0.149 HD
BRANCH  27  29
ATOM     29  C   UNL     1      -4.055 -10.470  -0.021  0.00  0.00    +0.139 C 
BRANCH  29  30
ATOM     30  C   UNL     1      -5.549 -10.669  -0.014  0.00  0.00    -0.027 A 
ATOM     31  C   UNL     1      -6.228 -10.758   1.187  0.00  0.00    +0.009 A 
ATOM     32  C   UNL     1      -7.598 -10.940   1.198  0.00  0.00    +0.050 A 
ATOM     33  C   UNL     1      -8.295 -11.035   0.004  0.00  0.00    +0.166 A 
ATOM     34  C   UNL     1      -7.611 -10.945  -1.206  0.00  0.00    +0.167 A 
ATOM     35  C   UNL     1      -6.238 -10.757  -1.209  0.00  0.00    +0.054 A 
ATOM     36  O   UNL     1      -8.510 -11.067  -2.225  0.00  0.00    -0.453 OA
ATOM     37  C   UNL     1      -9.690 -11.639  -1.631  0.00  0.00    +0.466 C 
ATOM     38  O   UNL     1      -9.623 -11.212  -0.257  0.00  0.00    -0.453 OA
ENDBRANCH  29  30
ENDBRANCH  27  29
ENDBRANCH  24  25
ENDBRANCH  23  24
ENDBRANCH   4  23
TORSDOF 7
