REMARK  Name = ZINC13740445
REMARK  13 active torsions:
REMARK  status: ('A' for Active; 'I' for Inactive)
REMARK    1  A    between atoms: C_1  and  C_2
REMARK    2  A    between atoms: C_2  and  C_3
REMARK    3  A    between atoms: C_3  and  C_4
REMARK    4  A    between atoms: C_4  and  C_5
REMARK    5  A    between atoms: C_11  and  C_34
REMARK    6  A    between atoms: C_16  and  C_33
REMARK    7  A    between atoms: C_17  and  C_18
REMARK    8  A    between atoms: C_18  and  C_19
REMARK    9  A    between atoms: C_19  and  N_20
REMARK   10  A    between atoms: C_28  and  C_32
REMARK   11  A    between atoms: C_34  and  C_36
REMARK   12  A    between atoms: C_36  and  C_37
REMARK   13  A    between atoms: C_36  and  C_38
REMARK                            x       y       z     vdW  Elec       q    Type
REMARK                         _______ _______ _______ _____ _____    ______ ____
ROOT
ATOM      1  C   UNL     1      -2.511   2.063  -1.141  0.00  0.00    +0.088 C 
ATOM      2  C   UNL     1      -1.165   2.797  -1.179  0.00  0.00    +0.030 C 
ATOM      3  C   UNL     1      -0.195   2.289  -0.106  0.00  0.00    +0.039 C 
ATOM      4  C   UNL     1      -0.835   2.412   1.246  0.00  0.00    -0.023 A 
ATOM      5  C   UNL     1      -0.204   2.581   2.434  0.00  0.00    +0.017 A 
ATOM      6  C   UNL     1      -0.937   2.679   3.634  0.00  0.00    +0.019 A 
ATOM      7  C   UNL     1      -2.339   2.608   3.679  0.00  0.00    +0.021 A 
ATOM      8  C   UNL     1      -2.993   2.435   2.462  0.00  0.00    +0.004 A 
ATOM      9  C   UNL     1      -2.229   2.344   1.284  0.00  0.00    +0.053 A 
ATOM     10  N   UNL     1      -3.068   2.181   0.214  0.00  0.00    -0.341 N 
ATOM     11  C   UNL     1      -4.349   2.162   0.673  0.00  0.00    +0.020 A 
ATOM     12  C   UNL     1      -4.370   2.311   2.021  0.00  0.00    -0.018 A 
ATOM     13  C   UNL     1      -5.571   1.998  -0.194  0.00  0.00    +0.064 C 
ENDROOT
BRANCH   6  14
ATOM     14  C   UNL     1      -0.202   2.863   4.893  0.00  0.00    +0.166 C 
ATOM     15  O   UNL     1      -0.806   2.951   5.941  0.00  0.00    -0.292 OA
BRANCH  14  16
ATOM     16  C   UNL     1       1.303   2.943   4.882  0.00  0.00    +0.054 C 
ATOM     17  C   UNL     1       1.735   4.402   4.714  0.00  0.00    +0.015 C 
ATOM     18  C   UNL     1       1.853   2.398   6.202  0.00  0.00    +0.015 C 
ENDBRANCH  14  16
ENDBRANCH   6  14
BRANCH   1  19
ATOM     19  C   UNL     1      -3.472   2.697  -2.148  0.00  0.00    +0.025 C 
BRANCH  19  20
ATOM     20  C   UNL     1      -2.856   2.638  -3.547  0.00  0.00    +0.002 C 
BRANCH  20  22
ATOM     21  C   UNL     1      -3.200   3.212  -5.954  0.00  0.00    +0.004 C 
ATOM     22  C   UNL     1      -3.816   3.272  -4.555  0.00  0.00    -0.003 C 
ENDBRANCH  20  22
ENDBRANCH  19  20
ENDBRANCH   1  19
BRANCH  12  23
ATOM     23  C   UNL     1      -5.595   2.343   2.898  0.00  0.00    +0.053 C 
BRANCH  23  24
ATOM     24  C   UNL     1      -6.087   3.785   3.034  0.00  0.00    +0.089 C 
BRANCH  24  25
ATOM     25  N   UNL     1      -7.282   3.817   3.889  0.00  0.00    -0.299 NA
ATOM     26  C   UNL     1      -8.408   3.126   3.246  0.00  0.00    +0.103 C 
ATOM     27  C   UNL     1      -9.605   3.111   4.199  0.00  0.00    +0.122 C 
ATOM     28  N   UNL     1      -9.968   4.492   4.547  0.00  0.00    -0.314 N 
ATOM     29  C   UNL     1      -8.842   5.183   5.190  0.00  0.00    +0.122 C 
ATOM     30  C   UNL     1      -7.644   5.198   4.237  0.00  0.00    +0.103 C 
ATOM     31  C   UNL     1     -11.098   4.522   5.355  0.00  0.00    +0.099 A 
ATOM     32  C   UNL     1     -12.275   3.923   4.918  0.00  0.00    +0.045 A 
ATOM     33  C   UNL     1     -13.390   3.955   5.735  0.00  0.00    -0.046 A 
ATOM     34  C   UNL     1     -13.294   4.597   6.963  0.00  0.00    +0.021 A 
ATOM     35  C   UNL     1     -12.096   5.175   7.331  0.00  0.00    +0.084 A 
ATOM     36  N   UNL     1     -11.046   5.125   6.533  0.00  0.00    -0.350 N 
ATOM     37  C   UNL     1     -14.683   3.313   5.301  0.00  0.00    +0.044 C 
ATOM     38  H   UNL     1     -10.112   5.599   6.868  0.00  0.00    +0.166 HD
ENDBRANCH  24  25
ENDBRANCH  23  24
ENDBRANCH  12  23
TORSDOF 8
