REMARK  Name = ZINC20892364
REMARK  4 active torsions:
REMARK  status: ('A' for Active; 'I' for Inactive)
REMARK    1  A    between atoms: C_1  and  C_2
REMARK    2  A    between atoms: N_5  and  C_7
REMARK    3  A    between atoms: C_19  and  C_21
REMARK    4  A    between atoms: C_24  and  O_27
REMARK                            x       y       z     vdW  Elec       q    Type
REMARK                         _______ _______ _______ _____ _____    ______ ____
ROOT
ATOM      1  C   UNL     1      -1.359   2.259  -2.773  0.00  0.00    +0.068 C 
ATOM      2  C   UNL     1      -2.801   2.021  -2.404  0.00  0.00    +0.067 A 
ATOM      3  C   UNL     1      -3.260   1.532  -1.163  0.00  0.00    +0.033 A 
ATOM      4  C   UNL     1      -4.608   1.456  -1.222  0.00  0.00    +0.133 A 
ATOM      5  N   UNL     1      -4.981   1.892  -2.474  0.00  0.00    -0.218 N 
ATOM      6  N   UNL     1      -3.826   2.233  -3.178  0.00  0.00    -0.170 NA
ATOM      7  N   UNL     1      -5.544   1.044  -0.305  0.00  0.00    -0.269 N 
ATOM      8  C   UNL     1      -5.504   0.638   0.929  0.00  0.00    +0.228 C 
ATOM      9  O   UNL     1      -6.588   0.458   1.442  0.00  0.00    -0.275 OA
ATOM     10  C   UNL     1      -4.347   0.361   1.806  0.00  0.00    +0.166 C 
ATOM     11  S   UNL     1      -2.998   1.528   1.579  0.00  0.00    -0.138 S 
ATOM     12  C   UNL     1      -2.321   1.191  -0.048  0.00  0.00    +0.112 C 
ATOM     13  H   UNL     1      -6.609   1.014  -0.581  0.00  0.00    +0.156 HD
ENDROOT
BRANCH   5  14
ATOM     14  C   UNL     1      -6.294   1.979  -2.956  0.00  0.00    +0.068 A 
ATOM     15  C   UNL     1      -6.583   1.596  -4.259  0.00  0.00    +0.029 A 
ATOM     16  C   UNL     1      -7.878   1.678  -4.731  0.00  0.00    +0.022 A 
ATOM     17  C   UNL     1      -8.887   2.150  -3.909  0.00  0.00    +0.041 A 
ATOM     18  C   UNL     1      -8.601   2.538  -2.612  0.00  0.00    +0.022 A 
ATOM     19  C   UNL     1      -7.308   2.453  -2.134  0.00  0.00    +0.029 A 
ATOM     20 CL   UNL     1     -10.513   2.257  -4.507  0.00  0.00    -0.084 Cl
ENDBRANCH   5  14
BRANCH  12  21
ATOM     21  C   UNL     1      -1.056   1.992  -0.220  0.00  0.00    -0.030 A 
ATOM     22  C   UNL     1       0.120   1.357  -0.576  0.00  0.00    +0.008 A 
ATOM     23  C   UNL     1       1.280   2.089  -0.740  0.00  0.00    +0.046 A 
ATOM     24  C   UNL     1       1.265   3.462  -0.542  0.00  0.00    +0.117 A 
ATOM     25  C   UNL     1       0.086   4.096  -0.179  0.00  0.00    +0.046 A 
ATOM     26  C   UNL     1      -1.071   3.359  -0.017  0.00  0.00    +0.008 A 
BRANCH  24  27
ATOM     27  O   UNL     1       2.405   4.185  -0.702  0.00  0.00    -0.507 OA
ATOM     28  H   UNL     1       2.393   5.274  -0.545  0.00  0.00    +0.292 HD
ENDBRANCH  24  27
ENDBRANCH  12  21
TORSDOF 3
