REMARK  Name = ZINC36153501
REMARK  8 active torsions:
REMARK  status: ('A' for Active; 'I' for Inactive)
REMARK    1  A    between atoms: C_1  and  C_2
REMARK    2  A    between atoms: C_5  and  N_9
REMARK    3  A    between atoms: C_7  and  C_8
REMARK    4  A    between atoms: C_13  and  C_14
REMARK    5  A    between atoms: C_17  and  C_19
REMARK    6  A    between atoms: C_22  and  O_28
REMARK    7  A    between atoms: C_23  and  N_25
REMARK    8  A    between atoms: C_29  and  C_31
REMARK                            x       y       z     vdW  Elec       q    Type
REMARK                         _______ _______ _______ _____ _____    ______ ____
ROOT
ATOM      1  N   UNL     1      -0.381  -4.003   0.227  0.00  0.00    -0.156 N 
ATOM      2  C   UNL     1       0.069  -4.682  -0.850  0.00  0.00    +0.272 C 
ATOM      3  O   UNL     1       0.393  -4.230  -1.927  0.00  0.00    -0.268 OA
ATOM      4  C   UNL     1       0.080  -6.117  -0.418  0.00  0.00    +0.065 C 
ATOM      5  C   UNL     1       0.464  -7.243  -1.160  0.00  0.00    +0.061 C 
ATOM      6  C   UNL     1      -0.385  -6.065   0.905  0.00  0.00    +0.069 C 
ATOM      7  N   UNL     1      -0.623  -4.804   1.197  0.00  0.00    -0.177 NA
ATOM      8  C   UNL     1      -0.574  -7.242   1.827  0.00  0.00    +0.068 C 
ENDROOT
BRANCH   1  13
ATOM      9  C   UNL     1      -1.083   1.618   0.436  0.00  0.00    +0.044 C 
ATOM     10  C   UNL     1      -0.896   0.124   0.380  0.00  0.00    -0.047 A 
ATOM     11  C   UNL     1      -0.432  -0.471  -0.780  0.00  0.00    +0.005 A 
ATOM     12  C   UNL     1      -0.260  -1.839  -0.835  0.00  0.00    +0.026 A 
ATOM     13  C   UNL     1      -0.553  -2.621   0.279  0.00  0.00    +0.061 A 
ATOM     14  C   UNL     1      -1.020  -2.018   1.443  0.00  0.00    +0.029 A 
ATOM     15  C   UNL     1      -1.184  -0.649   1.491  0.00  0.00    -0.046 A 
ATOM     16  C   UNL     1      -1.682   0.005   2.754  0.00  0.00    +0.044 C 
ENDBRANCH   1  13
BRANCH   5  17
ATOM     17  C   UNL     1       0.575  -8.483  -0.536  0.00  0.00    +0.129 A 
ATOM     18  C   UNL     1       0.306  -9.739  -1.131  0.00  0.00    +0.050 A 
ATOM     19  C   UNL     1       0.538 -10.689  -0.181  0.00  0.00    +0.050 A 
ATOM     20  C   UNL     1       0.947 -10.018   0.990  0.00  0.00    +0.136 A 
ATOM     21  O   UNL     1       0.964  -8.696   0.740  0.00  0.00    -0.455 OA
BRANCH  20  22
ATOM     22  C   UNL     1       1.288 -10.632   2.220  0.00  0.00    +0.020 A 
ATOM     23  C   UNL     1       1.239 -12.035   2.349  0.00  0.00    +0.015 A 
ATOM     24  C   UNL     1       1.569 -12.619   3.535  0.00  0.00    +0.048 A 
ATOM     25  C   UNL     1       1.954 -11.831   4.622  0.00  0.00    +0.147 A 
ATOM     26  C   UNL     1       2.003 -10.441   4.502  0.00  0.00    +0.168 A 
ATOM     27  C   UNL     1       1.682  -9.844   3.320  0.00  0.00    +0.048 A 
BRANCH  26  28
ATOM     28  N   UNL     1       2.413  -9.614   5.660  0.00  0.00    +0.060 N 
ATOM     29  O   UNL     1       2.460  -8.302   5.549  0.00  0.00    -0.126 OA
ATOM     30  O   UNL     1       2.729 -10.190   6.802  0.00  0.00    -0.126 OA
ENDBRANCH  26  28
BRANCH  25  31
ATOM     31  O   UNL     1       2.280 -12.418   5.797  0.00  0.00    -0.504 OA
ATOM     32  H   UNL     1       3.217 -12.642   5.879  0.00  0.00    +0.292 HD
ENDBRANCH  25  31
ENDBRANCH  20  22
ENDBRANCH   5  17
TORSDOF 5
