REMARK  Name = ZINC52138094
REMARK  4 active torsions:
REMARK  status: ('A' for Active; 'I' for Inactive)
REMARK    1  A    between atoms: C_1  and  C_2
REMARK    2  A    between atoms: C_7  and  C_8
REMARK    3  A    between atoms: C_10  and  C_13
REMARK    4  A    between atoms: C_14  and  C_19
REMARK                            x       y       z     vdW  Elec       q    Type
REMARK                         _______ _______ _______ _____ _____    ______ ____
ROOT
ATOM      1  C   UNL     1      -0.122  -0.118   2.567  0.00  0.00    +0.202 A 
ATOM      2  N   UNL     1       0.006  -0.734   3.756  0.00  0.00    -0.190 NA
ATOM      3  C   UNL     1      -0.109   0.132   4.722  0.00  0.00    +0.245 A 
ATOM      4  O   UNL     1      -0.316   1.342   4.185  0.00  0.00    -0.336 OA
ATOM      5  N   UNL     1      -0.316   1.160   2.777  0.00  0.00    -0.056 NA
ENDROOT
BRANCH   1  12
ATOM      6  C   UNL     1       2.011  -1.991   2.012  0.00  0.00    +0.044 C 
ATOM      7  C   UNL     1       0.975  -1.680   0.962  0.00  0.00    -0.039 A 
ATOM      8  C   UNL     1       1.036  -2.295  -0.272  0.00  0.00    +0.007 A 
ATOM      9  C   UNL     1       0.087  -2.012  -1.237  0.00  0.00    +0.038 A 
ATOM     10  C   UNL     1      -0.930  -1.110  -0.970  0.00  0.00    +0.124 A 
ATOM     11  C   UNL     1      -1.000  -0.489   0.263  0.00  0.00    +0.050 A 
ATOM     12  C   UNL     1      -0.048  -0.777   1.239  0.00  0.00    +0.028 A 
ATOM     13  F   UNL     1      -1.854  -0.836  -1.917  0.00  0.00    -0.205 F 
ENDBRANCH   1  12
BRANCH   3  14
ATOM     14  C   UNL     1      -0.024  -0.174   6.195  0.00  0.00    +0.167 C 
ATOM     15  C   UNL     1       1.301   0.285   6.770  0.00  0.00    -0.048 C 
ATOM     16  C   UNL     1       1.266   1.194   7.699  0.00  0.00    +0.034 C 
ATOM     17  C   UNL     1      -0.030   1.737   8.153  0.00  0.00    +0.089 C 
ATOM     18  S   UNL     1      -1.214   0.850   7.152  0.00  0.00    -0.089 S 
ATOM     19  N   UNL     1      -0.255   2.644   9.065  0.00  0.00    -0.293 NA
ATOM     20  C   UNL     1       2.607  -0.289   6.284  0.00  0.00    +0.041 C 
ATOM     21  H   UNL     1      -1.165   2.912   9.268  0.00  0.00    +0.187 HD
ENDBRANCH   3  14
TORSDOF 2
