REMARK  Name = ZINC66920842
REMARK  8 active torsions:
REMARK  status: ('A' for Active; 'I' for Inactive)
REMARK    1  A    between atoms: C_1  and  C_2
REMARK    2  A    between atoms: N_5  and  C_11
REMARK    3  A    between atoms: C_7  and  C_10
REMARK    4  A    between atoms: C_11  and  C_13
REMARK    5  A    between atoms: C_11  and  C_16
REMARK    6  A    between atoms: C_13  and  C_14
REMARK    7  A    between atoms: C_13  and  C_15
REMARK    8  A    between atoms: C_16  and  N_18
REMARK                            x       y       z     vdW  Elec       q    Type
REMARK                         _______ _______ _______ _____ _____    ______ ____
ROOT
ATOM      1  C   UNL     1      -2.762  -2.575   0.050  0.00  0.00    +0.148 C 
ENDROOT
BRANCH   1   5
ATOM      2  C   UNL     1       0.028   1.479   0.037  0.00  0.00    +0.039 C 
ATOM      3  C   UNL     1       0.033  -0.051   0.026  0.00  0.00    +0.130 C 
ATOM      4  C   UNL     1      -1.408  -0.567   0.032  0.00  0.00    +0.116 C 
ATOM      5  N   UNL     1      -1.397  -2.035   0.100  0.00  0.00    -0.286 NA
ATOM      6  C   UNL     1      -0.691  -2.496   1.304  0.00  0.00    +0.116 C 
ATOM      7  C   UNL     1       0.743  -1.961   1.285  0.00  0.00    +0.130 C 
ATOM      8  O   UNL     1       0.714  -0.534   1.187  0.00  0.00    -0.371 OA
ATOM      9  C   UNL     1       1.459  -2.371   2.574  0.00  0.00    +0.039 C 
ENDBRANCH   1   5
BRANCH   1  10
ATOM     10  C   UNL     1      -2.705  -4.103  -0.003  0.00  0.00    +0.009 C 
ATOM     11  C   UNL     1      -4.127  -4.665  -0.054  0.00  0.00    +0.009 C 
ATOM     12  C   UNL     1      -1.938  -4.541  -1.252  0.00  0.00    +0.009 C 
ENDBRANCH   1  10
BRANCH   1  13
ATOM     13  C   UNL     1      -3.518  -2.143   1.281  0.00  0.00    +0.256 C 
ATOM     14  O   UNL     1      -2.971  -1.452   2.119  0.00  0.00    -0.272 OA
BRANCH  13  15
ATOM     15  N   UNL     1      -4.783  -2.518   1.451  0.00  0.00    -0.146 NA
ATOM     16  C   UNL     1      -5.417  -2.227   2.583  0.00  0.00    +0.210 C 
ATOM     17  N   UNL     1      -4.891  -1.452   3.580  0.00  0.00    -0.306 N 
ATOM     18  C   UNL     1      -5.927  -1.397   4.627  0.00  0.00    +0.205 C 
ATOM     19  C   UNL     1      -7.051  -2.236   4.055  0.00  0.00    +0.266 C 
ATOM     20  O   UNL     1      -8.234  -2.497   4.635  0.00  0.00    -0.269 OA
ATOM     21  N   UNL     1      -6.647  -2.650   2.884  0.00  0.00    -0.180 NA
ATOM     22  H   UNL     1      -4.019  -1.027   3.594  0.00  0.00    +0.149 HD
ENDBRANCH  13  15
ENDBRANCH   1  13
TORSDOF 4
