REMARK  Name = ZINC49234447
REMARK  5 active torsions:
REMARK  status: ('A' for Active; 'I' for Inactive)
REMARK    1  A    between atoms: C_1  and  C_2
REMARK    2  A    between atoms: C_4  and  N_20
REMARK    3  A    between atoms: C_7  and  S_8
REMARK    4  A    between atoms: S_8  and  N_11
REMARK    5  A    between atoms: C_14  and  C_17
REMARK                            x       y       z     vdW  Elec       q    Type
REMARK                         _______ _______ _______ _____ _____    ______ ____
ROOT
ATOM      1  S   UNL     1       0.025   0.175   2.725  0.00  0.00    +0.101 S 
ATOM      2  O   UNL     1      -1.014   1.140   2.642  0.00  0.00    -0.146 OA
ATOM      3  O   UNL     1       0.076  -0.804   3.754  0.00  0.00    -0.146 OA
ENDROOT
BRANCH   1  10
ATOM      4  C   UNL     1      -0.018   1.503   0.010  0.00  0.00    +0.046 C 
ATOM      5  C   UNL     1       0.002  -0.004   0.002  0.00  0.00    -0.022 A 
ATOM      6  C   UNL     1       0.006  -0.687  -1.198  0.00  0.00    +0.028 A 
ATOM      7  C   UNL     1       0.025  -2.076  -1.205  0.00  0.00    +0.025 A 
ATOM      8  C   UNL     1       0.041  -2.773  -0.004  0.00  0.00    +0.024 A 
ATOM      9  C   UNL     1       0.037  -2.084   1.193  0.00  0.00    +0.031 A 
ATOM     10  C   UNL     1       0.023  -0.701   1.196  0.00  0.00    +0.116 A 
BRANCH   7  11
ATOM     11  N   UNL     1       0.028  -2.770  -2.417  0.00  0.00    -0.358 N 
ATOM     12  H   UNL     1       0.017  -2.282  -3.256  0.00  0.00    +0.142 HD
ATOM     13  H   UNL     1       0.042  -3.740  -2.421  0.00  0.00    +0.142 HD
ENDBRANCH   7  11
ENDBRANCH   1  10
BRANCH   1  14
ATOM     14  N   UNL     1       1.449   1.018   2.804  0.00  0.00    -0.103 NA
ATOM     15  C   UNL     1       1.712   1.763   3.849  0.00  0.00    +0.192 A 
ATOM     16  N   UNL     1       2.819   2.541   4.112  0.00  0.00    -0.336 N 
ATOM     17  C   UNL     1       2.863   3.235   5.285  0.00  0.00    +0.028 A 
ATOM     18  C   UNL     1       1.852   3.154   6.151  0.00  0.00    +0.070 A 
ATOM     19  S   UNL     1       0.728   2.049   5.313  0.00  0.00    -0.057 S 
ATOM     20  H   UNL     1       3.550   2.593   3.476  0.00  0.00    +0.168 HD
BRANCH  17  21
ATOM     21  C   UNL     1       4.058   4.095   5.604  0.00  0.00    +0.036 C 
ATOM     22  C   UNL     1       5.270   3.993   4.676  0.00  0.00    +0.010 C 
ATOM     23  C   UNL     1       4.383   5.239   4.641  0.00  0.00    +0.010 C 
ENDBRANCH  17  21
ENDBRANCH   1  14
TORSDOF 4
