REMARK  Name = ZINC64185876
REMARK  5 active torsions:
REMARK  status: ('A' for Active; 'I' for Inactive)
REMARK    1  A    between atoms: C_7  and  C_10
REMARK    2  A    between atoms: C_10  and  C_12
REMARK    3  A    between atoms: C_10  and  C_30
REMARK    4  A    between atoms: C_12  and  N_13
REMARK    5  A    between atoms: C_19  and  C_22
REMARK                            x       y       z     vdW  Elec       q    Type
REMARK                         _______ _______ _______ _____ _____    ______ ____
ROOT
ATOM      1  N   UNL     1      -0.018  -5.071  -1.079  0.00  0.00    -0.299 N 
ATOM      2  C   UNL     1       0.063  -5.874  -2.158  0.00  0.00    +0.302 C 
ATOM      3  O   UNL     1       0.840  -5.610  -3.055  0.00  0.00    -0.253 OA
ATOM      4  N   UNL     1      -0.716  -6.971  -2.242  0.00  0.00    -0.286 N 
ATOM      5  C   UNL     1      -0.561  -7.915  -3.356  0.00  0.00    +0.110 C 
ATOM      6  C   UNL     1      -0.358  -9.322  -2.785  0.00  0.00    +0.032 C 
ATOM      7  C   UNL     1      -1.512  -9.654  -1.835  0.00  0.00    +0.078 C 
ATOM      8  C   UNL     1      -1.521  -8.658  -0.674  0.00  0.00    +0.032 C 
ATOM      9  C   UNL     1      -1.733  -7.247  -1.218  0.00  0.00    +0.110 C 
ATOM     10  H   UNL     1      -0.683  -5.244  -0.394  0.00  0.00    +0.150 HD
ENDROOT
BRANCH   7  11
ATOM     11  C   UNL     1      -1.333 -11.051  -1.298  0.00  0.00    +0.219 C 
ATOM     12  O   UNL     1      -0.760 -11.226  -0.244  0.00  0.00    -0.275 OA
ATOM     13  N   UNL     1      -1.811 -12.105  -1.988  0.00  0.00    -0.297 N 
ATOM     14  C   UNL     1      -2.411 -11.929  -3.321  0.00  0.00    +0.136 C 
ATOM     15  C   UNL     1      -1.756 -12.927  -4.282  0.00  0.00    +0.179 C 
ATOM     16  O   UNL     1      -1.831 -14.240  -3.720  0.00  0.00    -0.377 OA
ATOM     17  C   UNL     1      -1.126 -14.390  -2.486  0.00  0.00    +0.179 C 
ATOM     18  C   UNL     1      -1.743 -13.467  -1.435  0.00  0.00    +0.136 C 
ENDBRANCH   7  11
BRANCH   1  19
ATOM     19  C   UNL     1       0.896  -3.935  -0.941  0.00  0.00    +0.114 C 
BRANCH  19  20
ATOM     20  C   UNL     1       0.676  -3.264   0.417  0.00  0.00    +0.048 C 
BRANCH  20  27
ATOM     21  C   UNL     1      -2.888  -4.065   3.194  0.00  0.00    +0.001 A 
ATOM     22  C   UNL     1      -4.022  -3.299   2.888  0.00  0.00    +0.002 A 
ATOM     23  C   UNL     1      -4.050  -2.412   1.871  0.00  0.00    +0.026 A 
ATOM     24  C   UNL     1      -2.903  -2.220   1.053  0.00  0.00    +0.043 A 
ATOM     25  N   UNL     1      -2.685  -1.435   0.026  0.00  0.00    -0.380 N 
ATOM     26  C   UNL     1      -1.310  -1.645  -0.440  0.00  0.00    +0.145 C 
ATOM     27  C   UNL     1      -0.718  -2.694   0.475  0.00  0.00    -0.036 C 
ATOM     28  C   UNL     1      -1.692  -3.017   1.355  0.00  0.00    -0.001 A 
ATOM     29  C   UNL     1      -1.745  -3.959   2.479  0.00  0.00    +0.010 A 
ATOM     30  H   UNL     1      -3.326  -0.818  -0.361  0.00  0.00    +0.160 HD
ENDBRANCH  20  27
BRANCH  20  31
ATOM     31  C   UNL     1       1.696  -2.139   0.602  0.00  0.00    +0.063 C 
ATOM     32  C   UNL     1       1.659  -1.569   2.044  0.00  0.00    +0.042 C 
ATOM     33  C   UNL     1       3.038  -1.254   2.525  0.00  0.00    -0.019 C 
ATOM     34  C   UNL     1       4.082  -1.787   1.920  0.00  0.00    +0.036 C 
ATOM     35  S   UNL     1       3.422  -2.783   0.594  0.00  0.00    -0.129 S 
ENDBRANCH  20  31
ENDBRANCH  19  20
ENDBRANCH   1  19
TORSDOF 5
