REMARK  Name = ZINC04369921
REMARK  6 active torsions:
REMARK  status: ('A' for Active; 'I' for Inactive)
REMARK    1  A    between atoms: C_1  and  C_2
REMARK    2  A    between atoms: C_2  and  O_4
REMARK    3  A    between atoms: O_4  and  C_5
REMARK    4  A    between atoms: C_9  and  C_32
REMARK    5  A    between atoms: C_14  and  C_31
REMARK    6  A    between atoms: N_26  and  N_27
REMARK                            x       y       z     vdW  Elec       q    Type
REMARK                         _______ _______ _______ _____ _____    ______ ____
ROOT
ATOM      1  C   UNL     1       1.757   1.280   4.848  0.00  0.00    +0.180 C 
ATOM      2  C   UNL     1       0.769   0.200   4.411  0.00  0.00    +0.046 C 
ATOM      3  C   UNL     1       0.264   0.480   2.997  0.00  0.00    +0.015 C 
ATOM      4  C   UNL     1      -0.440   1.837   2.929  0.00  0.00    -0.008 C 
ATOM      5  C   UNL     1      -0.907   2.128   1.519  0.00  0.00    +0.003 C 
ATOM      6  C   UNL     1      -0.067   1.431   0.458  0.00  0.00    +0.005 C 
ATOM      7  C   UNL     1      -0.708   1.604  -0.930  0.00  0.00    +0.013 C 
ATOM      8  C   UNL     1      -0.809   3.076  -1.244  0.00  0.00    +0.011 C 
ATOM      9  C   UNL     1      -1.579   3.814  -0.134  0.00  0.00    +0.005 C 
ATOM     10  C   UNL     1      -1.021   3.632   1.243  0.00  0.00    +0.001 C 
ATOM     11  C   UNL     1       0.314   4.313   1.498  0.00  0.00    +0.031 C 
ATOM     12  C   UNL     1       0.776   3.994   2.896  0.00  0.00    -0.027 C 
ATOM     13  C   UNL     1       0.455   2.893   3.506  0.00  0.00    -0.064 C 
ATOM     14  C   UNL     1       1.053   2.641   4.881  0.00  0.00    +0.075 C 
ATOM     15  C   UNL     1      -1.670   5.227  -0.725  0.00  0.00    +0.010 C 
ATOM     16  C   UNL     1      -2.000   4.921  -2.216  0.00  0.00    +0.053 C 
ATOM     17  C   UNL     1      -1.664   3.448  -2.442  0.00  0.00    +0.043 C 
ATOM     18  N   UNL     1      -2.011   2.692  -3.405  0.00  0.00    -0.187 NA
ATOM     19  C   UNL     1       0.578   3.655  -1.518  0.00  0.00    +0.018 C 
ATOM     20  C   UNL     1      -1.698   1.758   3.808  0.00  0.00    +0.016 C 
ENDROOT
BRANCH  18  21
ATOM     21  N   UNL     1      -2.809   3.198  -4.439  0.00  0.00    -0.191 N 
ATOM     22  C   UNL     1      -3.177   2.397  -5.459  0.00  0.00    +0.317 C 
ATOM     23  O   UNL     1      -3.869   2.836  -6.357  0.00  0.00    -0.251 OA
ATOM     24  N   UNL     1      -2.777   1.110  -5.484  0.00  0.00    -0.312 N 
ATOM     25  H   UNL     1      -3.097   4.124  -4.422  0.00  0.00    +0.179 HD
ATOM     26  H   UNL     1      -2.225   0.760  -4.767  0.00  0.00    +0.147 HD
ATOM     27  H   UNL     1      -3.042   0.534  -6.218  0.00  0.00    +0.147 HD
ENDBRANCH  18  21
BRANCH   1  28
ATOM     28  O   UNL     1       2.264   0.967   6.173  0.00  0.00    -0.461 OA
BRANCH  28  30
ATOM     29  C   UNL     1       4.100   1.091   7.818  0.00  0.00    +0.136 C 
ATOM     30  C   UNL     1       3.507   1.380   6.463  0.00  0.00    +0.304 C 
ATOM     31  O   UNL     1       4.151   1.984   5.639  0.00  0.00    -0.251 OA
ENDBRANCH  28  30
ENDBRANCH   1  28
TORSDOF 3
