REMARK  Name = ZINC08453904
REMARK  12 active torsions:
REMARK  status: ('A' for Active; 'I' for Inactive)
REMARK    1  A    between atoms: C_1  and  C_2
REMARK    2  A    between atoms: C_3  and  C_16
REMARK    3  A    between atoms: C_9  and  O_14
REMARK    4  A    between atoms: C_10  and  C_11
REMARK    5  A    between atoms: C_11  and  N_50
REMARK    6  A    between atoms: C_12  and  N_50
REMARK    7  A    between atoms: C_13  and  N_50
REMARK    8  A    between atoms: C_16  and  C_18
REMARK    9  A    between atoms: C_20  and  O_26
REMARK   10  A    between atoms: C_23  and  O_24
REMARK   11  A    between atoms: O_24  and  C_25
REMARK   12  A    between atoms: O_26  and  C_27
REMARK                            x       y       z     vdW  Elec       q    Type
REMARK                         _______ _______ _______ _____ _____    ______ ____
ROOT
ATOM      1  C   UNL     1      -0.904   5.166  -0.180  0.00  0.00    +0.087 C 
ATOM      2  C   UNL     1      -0.252   6.523  -0.119  0.00  0.00    +0.114 A 
ATOM      3  C   UNL     1       1.091   6.748  -0.141  0.00  0.00    +0.071 A 
ATOM      4  C   UNL     1       1.252   8.214  -0.054  0.00  0.00    +0.036 A 
ATOM      5  C   UNL     1      -0.050   8.730   0.003  0.00  0.00    +0.137 A 
ATOM      6  O   UNL     1      -0.906   7.687  -0.035  0.00  0.00    -0.459 OA
ATOM      7  C   UNL     1      -0.235  10.105   0.087  0.00  0.00    +0.065 A 
ATOM      8  C   UNL     1       0.856  10.948   0.107  0.00  0.00    +0.063 A 
ATOM      9  C   UNL     1       2.148  10.435   0.045  0.00  0.00    +0.133 A 
ATOM     10  C   UNL     1       2.349   9.069  -0.039  0.00  0.00    -0.010 A 
ATOM     11 BR   UNL     1       0.594  12.817   0.221  0.00  0.00    -0.046 Br
ENDROOT
BRANCH   9  12
ATOM     12  O   UNL     1       3.215  11.278   0.066  0.00  0.00    -0.505 OA
ATOM     13  H   UNL     1       3.546  11.471   0.954  0.00  0.00    +0.292 HD
ENDBRANCH   9  12
BRANCH   3  14
ATOM     14  C   UNL     1       2.159   5.742  -0.226  0.00  0.00    +0.201 C 
ATOM     15  O   UNL     1       2.554   5.186   0.783  0.00  0.00    -0.286 OA
BRANCH  14  16
ATOM     16  C   UNL     1       2.752   5.404  -1.534  0.00  0.00    +0.067 A 
ATOM     17  C   UNL     1       2.228   5.955  -2.706  0.00  0.00    +0.061 A 
ATOM     18  C   UNL     1       2.785   5.630  -3.929  0.00  0.00    +0.121 A 
ATOM     19  C   UNL     1       3.872   4.767  -3.994  0.00  0.00    +0.049 A 
ATOM     20  C   UNL     1       4.400   4.222  -2.840  0.00  0.00    +0.050 A 
ATOM     21  C   UNL     1       3.848   4.534  -1.607  0.00  0.00    +0.131 A 
BRANCH  21  22
ATOM     22  O   UNL     1       4.368   3.997  -0.473  0.00  0.00    -0.494 OA
ATOM     23  C   UNL     1       5.484   3.118  -0.624  0.00  0.00    +0.277 C 
ENDBRANCH  21  22
BRANCH  18  24
ATOM     24  O   UNL     1       2.273   6.162  -5.070  0.00  0.00    -0.495 OA
ATOM     25  C   UNL     1       2.901   5.790  -6.299  0.00  0.00    +0.277 C 
ENDBRANCH  18  24
ENDBRANCH  14  16
ENDBRANCH   3  14
BRANCH  10  26
ATOM     26  C   UNL     1       3.747   8.511  -0.108  0.00  0.00    -0.039 C 
BRANCH  26  29
ATOM     27  C   UNL     1       3.782   7.369   2.027  0.00  0.00    -0.096 C 
ATOM     28  C   UNL     1       5.795   8.413   1.179  0.00  0.00    -0.096 C 
ATOM     29  N   UNL     1       4.322   8.507   1.254  0.00  0.00    +0.379 N 
ATOM     30  H   UNL     1       4.067   9.382   1.726  0.00  0.00    -0.082 HD
ENDBRANCH  26  29
ENDBRANCH  10  26
TORSDOF 7
