REMARK  Name = ZINC36206121
REMARK  16 active torsions:
REMARK  status: ('A' for Active; 'I' for Inactive)
REMARK    1  A    between atoms: C_1  and  C_2
REMARK    2  A    between atoms: C_2  and  C_3
REMARK    3  A    between atoms: C_2  and  C_4
REMARK    4  A    between atoms: C_4  and  N_5
REMARK    5  A    between atoms: N_5  and  C_6
REMARK    6  A    between atoms: N_5  and  C_25
REMARK    7  A    between atoms: C_6  and  C_7
REMARK    8  A    between atoms: C_13  and  C_18
REMARK    9  A    between atoms: C_25  and  C_26
REMARK   10  A    between atoms: C_26  and  C_28
REMARK   11  A    between atoms: C_26  and  O_34
REMARK   12  A    between atoms: C_28  and  O_29
REMARK   13  A    between atoms: O_29  and  C_30
REMARK   14  A    between atoms: C_30  and  C_31
REMARK   15  A    between atoms: C_31  and  C_32
REMARK   16  A    between atoms: C_31  and  C_33
REMARK                            x       y       z     vdW  Elec       q    Type
REMARK                         _______ _______ _______ _____ _____    ______ ____
ROOT
ATOM      1  C   UNL     1      -0.069  -2.883   0.315  0.00  0.00    +0.094 A 
ATOM      2  N   UNL     1       0.572  -3.849   1.021  0.00  0.00    -0.312 N 
ATOM      3  H   UNL     1       0.058  -4.442   1.591  0.00  0.00    +0.170 HD
ATOM      4  C   UNL     1       1.907  -4.000   0.947  0.00  0.00    +0.260 A 
ATOM      5  O   UNL     1       2.468  -4.873   1.587  0.00  0.00    -0.267 OA
ATOM      6  C   UNL     1       2.659  -3.121   0.103  0.00  0.00    +0.080 A 
ATOM      7  C   UNL     1       4.095  -3.084  -0.144  0.00  0.00    +0.004 A 
ATOM      8  C   UNL     1       4.586  -2.150  -0.994  0.00  0.00    +0.056 A 
ATOM      9  S   UNL     1       3.132  -1.261  -1.515  0.00  0.00    -0.076 S 
ATOM     10  C   UNL     1       1.911  -2.154  -0.588  0.00  0.00    +0.116 A 
ATOM     11  N   UNL     1       0.589  -2.069  -0.467  0.00  0.00    -0.229 NA
ENDROOT
BRANCH   7  12
ATOM     12  C   UNL     1       5.002  -4.049   0.523  0.00  0.00    -0.016 A 
ATOM     13  C   UNL     1       4.925  -4.244   1.901  0.00  0.00    +0.010 A 
ATOM     14  C   UNL     1       5.770  -5.144   2.517  0.00  0.00    +0.020 A 
ATOM     15  C   UNL     1       6.694  -5.853   1.768  0.00  0.00    +0.041 A 
ATOM     16  C   UNL     1       6.775  -5.663   0.399  0.00  0.00    +0.020 A 
ATOM     17  C   UNL     1       5.930  -4.770  -0.227  0.00  0.00    +0.010 A 
ATOM     18 CL   UNL     1       7.755  -6.984   2.549  0.00  0.00    -0.084 Cl
ENDBRANCH   7  12
BRANCH   1  19
ATOM     19  C   UNL     1      -1.566  -2.752   0.429  0.00  0.00    -0.003 C 
BRANCH  19  20
ATOM     20  N   UNL     1      -2.033  -1.680  -0.460  0.00  0.00    +0.386 N 
ATOM     21  H   UNL     1      -1.702  -1.853  -1.397  0.00  0.00    -0.081 HD
BRANCH  20  22
ATOM     22  C   UNL     1      -1.513  -0.390   0.013  0.00  0.00    -0.075 C 
BRANCH  22  24
ATOM     23  C   UNL     1      -0.928   0.952   2.037  0.00  0.00    +0.005 C 
ATOM     24  C   UNL     1      -1.548  -0.356   1.542  0.00  0.00    -0.034 C 
ATOM     25  C   UNL     1      -2.998  -0.447   2.022  0.00  0.00    +0.005 C 
ENDBRANCH  22  24
ENDBRANCH  20  22
BRANCH  20  26
ATOM     26  C   UNL     1      -3.502  -1.647  -0.457  0.00  0.00    -0.044 C 
BRANCH  26  27
ATOM     27  C   UNL     1      -3.991  -0.661  -1.520  0.00  0.00    +0.124 C 
BRANCH  27  28
ATOM     28  O   UNL     1      -3.627  -1.138  -2.816  0.00  0.00    -0.391 OA
ATOM     29  H   UNL     1      -3.999  -2.003  -3.036  0.00  0.00    +0.210 HD
ENDBRANCH  27  28
BRANCH  27  30
ATOM     30  C   UNL     1      -5.514  -0.532  -1.433  0.00  0.00    +0.189 C 
BRANCH  30  31
ATOM     31  O   UNL     1      -5.959   0.473  -2.345  0.00  0.00    -0.377 OA
BRANCH  31  32
ATOM     32  C   UNL     1      -7.374   0.674  -2.344  0.00  0.00    +0.163 C 
BRANCH  32  33
ATOM     33  C   UNL     1      -7.736   1.766  -3.352  0.00  0.00    +0.009 C 
ATOM     34  C   UNL     1      -7.396   1.289  -4.765  0.00  0.00    +0.009 C 
ATOM     35  C   UNL     1      -9.233   2.069  -3.261  0.00  0.00    +0.009 C 
ENDBRANCH  32  33
ENDBRANCH  31  32
ENDBRANCH  30  31
ENDBRANCH  27  30
ENDBRANCH  26  27
ENDBRANCH  20  26
ENDBRANCH  19  20
ENDBRANCH   1  19
TORSDOF 12
