REMARK  Name = ZINC38669168
REMARK  10 active torsions:
REMARK  status: ('A' for Active; 'I' for Inactive)
REMARK    1  A    between atoms: C_1  and  C_2
REMARK    2  A    between atoms: C_2  and  O_3
REMARK    3  A    between atoms: O_3  and  C_4
REMARK    4  A    between atoms: C_9  and  O_10
REMARK    5  A    between atoms: O_10  and  C_11
REMARK    6  A    between atoms: C_15  and  C_17
REMARK    7  A    between atoms: C_20  and  O_24
REMARK    8  A    between atoms: C_22  and  O_23
REMARK    9  A    between atoms: O_24  and  C_25
REMARK   10  A    between atoms: C_25  and  C_26
REMARK                            x       y       z     vdW  Elec       q    Type
REMARK                         _______ _______ _______ _____ _____    ______ ____
ROOT
ATOM      1  C   UNL     1      -6.529  -0.407   1.276  0.00  0.00    +0.025 A 
ATOM      2  C   UNL     1      -7.176  -0.836   2.419  0.00  0.00    +0.013 A 
ATOM      3  C   UNL     1      -7.264  -0.004   3.519  0.00  0.00    +0.046 A 
ATOM      4  C   UNL     1      -6.701   1.264   3.478  0.00  0.00    +0.124 A 
ATOM      5  C   UNL     1      -6.051   1.696   2.333  0.00  0.00    +0.091 A 
ATOM      6  C   UNL     1      -5.959   0.858   1.232  0.00  0.00    +0.126 A 
ENDROOT
BRANCH   1  11
ATOM      7  C   UNL     1      -5.123  -2.083   0.086  0.00  0.00    +0.154 C 
ATOM      8  C   UNL     1      -5.510  -3.373   0.166  0.00  0.00    +0.176 C 
ATOM      9  N   UNL     1      -6.844  -3.466   0.201  0.00  0.00    -0.182 NA
ATOM     10  N   UNL     1      -7.441  -2.389   0.154  0.00  0.00    -0.294 N 
ATOM     11  C   UNL     1      -6.435  -1.316   0.078  0.00  0.00    +0.199 C 
ATOM     12  H   UNL     1      -8.404  -2.269   0.168  0.00  0.00    +0.184 HD
BRANCH   7  13
ATOM     13  O   UNL     1      -3.868  -1.590   0.031  0.00  0.00    -0.453 OA
BRANCH  13  19
ATOM     14  C   UNL     1      -2.234  -0.343  -1.177  0.00  0.00    +0.162 A 
ATOM     15  C   UNL     1      -1.835   0.279  -2.349  0.00  0.00    +0.049 A 
ATOM     16  C   UNL     1      -2.669   0.278  -3.451  0.00  0.00    +0.004 A 
ATOM     17  C   UNL     1      -3.904  -0.342  -3.387  0.00  0.00    +0.004 A 
ATOM     18  C   UNL     1      -4.308  -0.965  -2.222  0.00  0.00    +0.050 A 
ATOM     19  C   UNL     1      -3.474  -0.973  -1.115  0.00  0.00    +0.170 A 
BRANCH  14  20
ATOM     20  O   UNL     1      -1.415  -0.343  -0.092  0.00  0.00    -0.489 OA
BRANCH  20  22
ATOM     21  C   UNL     1       0.620   0.219   1.085  0.00  0.00    +0.048 C 
ATOM     22  C   UNL     1      -0.158   0.324  -0.228  0.00  0.00    +0.226 C 
ENDBRANCH  20  22
ENDBRANCH  14  20
ENDBRANCH  13  19
ENDBRANCH   7  13
ENDBRANCH   1  11
BRANCH   6  23
ATOM     23  O   UNL     1      -5.317   1.276   0.110  0.00  0.00    -0.506 OA
ATOM     24  H   UNL     1      -5.889   1.728  -0.525  0.00  0.00    +0.292 HD
ENDBRANCH   6  23
BRANCH   4  25
ATOM     25  O   UNL     1      -6.788   2.081   4.561  0.00  0.00    -0.487 OA
BRANCH  25  26
ATOM     26  C   UNL     1      -7.473   1.570   5.706  0.00  0.00    +0.264 C 
BRANCH  26  27
ATOM     27  C   UNL     1      -7.469   2.609   6.798  0.00  0.00    -0.010 A 
ATOM     28  C   UNL     1      -6.433   2.644   7.714  0.00  0.00    +0.010 A 
ATOM     29  C   UNL     1      -6.428   3.596   8.715  0.00  0.00    +0.039 A 
ATOM     30  C   UNL     1      -7.460   4.515   8.802  0.00  0.00    +0.123 A 
ATOM     31  C   UNL     1      -8.497   4.478   7.885  0.00  0.00    +0.039 A 
ATOM     32  C   UNL     1      -8.497   3.529   6.881  0.00  0.00    +0.010 A 
ATOM     33  F   UNL     1      -7.457   5.446   9.781  0.00  0.00    -0.205 F 
ENDBRANCH  26  27
ENDBRANCH  25  26
ENDBRANCH   4  25
TORSDOF 9
