REMARK  Name = ZINC27190220
REMARK  9 active torsions:
REMARK  status: ('A' for Active; 'I' for Inactive)
REMARK    1  A    between atoms: C_1  and  C_2
REMARK    2  A    between atoms: C_2  and  C_4
REMARK    3  A    between atoms: C_2  and  N_31
REMARK    4  A    between atoms: N_6  and  C_17
REMARK    5  A    between atoms: N_9  and  C_10
REMARK    6  A    between atoms: C_17  and  N_18
REMARK    7  A    between atoms: N_21  and  C_24
REMARK    8  A    between atoms: N_31  and  C_32
REMARK    9  A    between atoms: N_31  and  C_33
REMARK                            x       y       z     vdW  Elec       q    Type
REMARK                         _______ _______ _______ _____ _____    ______ ____
ROOT
ATOM      1  C   UNL     1      -0.789   0.285  -0.003  0.00  0.00    +0.154 A 
ATOM      2  N   UNL     1      -0.555   1.558  -0.018  0.00  0.00    -0.156 NA
ATOM      3  N   UNL     1       0.832   1.747   0.053  0.00  0.00    -0.257 N 
ATOM      4  C   UNL     1       1.402   0.525   0.111  0.00  0.00    +0.181 A 
ATOM      5  S   UNL     1       3.078   0.192   0.209  0.00  0.00    -0.011 S 
ATOM      6  N   UNL     1       0.408  -0.385   0.077  0.00  0.00    -0.274 N 
ENDROOT
BRANCH   6   7
ATOM      7  C   UNL     1       0.568  -1.778   0.115  0.00  0.00    +0.050 A 
ATOM      8  C   UNL     1       0.090  -2.503   1.198  0.00  0.00    +0.029 A 
ATOM      9  C   UNL     1       0.244  -3.875   1.232  0.00  0.00    +0.040 A 
ATOM     10  C   UNL     1       0.885  -4.526   0.191  0.00  0.00    +0.124 A 
ATOM     11  C   UNL     1       1.368  -3.804  -0.887  0.00  0.00    +0.040 A 
ATOM     12  C   UNL     1       1.211  -2.432  -0.927  0.00  0.00    +0.029 A 
ATOM     13  F   UNL     1       1.040  -5.868   0.229  0.00  0.00    -0.205 F 
ENDBRANCH   6   7
BRANCH   1  15
ATOM     14  C   UNL     1      -2.696  -0.265  -1.490  0.00  0.00    +0.032 C 
ATOM     15  C   UNL     1      -2.152  -0.356  -0.063  0.00  0.00    +0.122 C 
BRANCH  15  16
ATOM     16  N   UNL     1      -3.063   0.342   0.854  0.00  0.00    -0.299 NA
ATOM     17  C   UNL     1      -4.404  -0.257   0.822  0.00  0.00    +0.105 C 
ATOM     18  C   UNL     1      -2.525   0.357   2.221  0.00  0.00    +0.105 C 
ENDBRANCH  15  16
ENDBRANCH   1  15
BRANCH   3  19
ATOM     19  C   UNL     1       1.534   3.033   0.063  0.00  0.00    +0.072 C 
BRANCH  19  20
ATOM     20  N   UNL     1       1.694   3.493   1.449  0.00  0.00    +0.395 N 
ATOM     21  C   UNL     1       0.392   3.804   2.054  0.00  0.00    -0.057 C 
ATOM     22  C   UNL     1       0.595   4.203   3.518  0.00  0.00    +0.086 C 
ATOM     23  N   UNL     1       1.495   5.362   3.587  0.00  0.00    -0.332 N 
ATOM     24  C   UNL     1       2.797   5.051   2.982  0.00  0.00    +0.086 C 
ATOM     25  C   UNL     1       2.594   4.653   1.518  0.00  0.00    -0.057 C 
ATOM     26  H   UNL     1       2.150   2.674   2.025  0.00  0.00    -0.079 HD
BRANCH  23  27
ATOM     27  C   UNL     1       1.647   5.800   4.906  0.00  0.00    +0.048 A 
ATOM     28  C   UNL     1       1.172   5.025   5.956  0.00  0.00    +0.024 A 
ATOM     29  C   UNL     1       1.329   5.458   7.258  0.00  0.00    +0.002 A 
ATOM     30  C   UNL     1       1.949   6.667   7.517  0.00  0.00    +0.002 A 
ATOM     31  C   UNL     1       2.419   7.444   6.474  0.00  0.00    +0.022 A 
ATOM     32  C   UNL     1       2.270   7.014   5.169  0.00  0.00    +0.062 A 
ATOM     33 CL   UNL     1       2.860   7.990   3.860  0.00  0.00    -0.082 Cl
ENDBRANCH  23  27
ENDBRANCH  19  20
ENDBRANCH   3  19
TORSDOF 6
