REMARK  Name = ZINC35778806
REMARK  17 active torsions:
REMARK  status: ('A' for Active; 'I' for Inactive)
REMARK    1  A    between atoms: C_1  and  C_2
REMARK    2  A    between atoms: C_2  and  O_3
REMARK    3  A    between atoms: O_3  and  C_4
REMARK    4  A    between atoms: C_4  and  C_5
REMARK    5  A    between atoms: C_5  and  C_7
REMARK    6  A    between atoms: C_5  and  O_37
REMARK    7  A    between atoms: C_7  and  N_8
REMARK    8  A    between atoms: N_8  and  C_9
REMARK    9  A    between atoms: N_8  and  C_13
REMARK   10  A    between atoms: C_9  and  C_10
REMARK   11  A    between atoms: C_13  and  C_14
REMARK   12  A    between atoms: C_24  and  C_26
REMARK   13  A    between atoms: C_26  and  O_27
REMARK   14  A    between atoms: O_27  and  C_28
REMARK   15  A    between atoms: C_31  and  C_34
REMARK   16  A    between atoms: C_34  and  C_35
REMARK   17  A    between atoms: C_34  and  C_36
REMARK                            x       y       z     vdW  Elec       q    Type
REMARK                         _______ _______ _______ _____ _____    ______ ____
ROOT
ATOM      1  C   UNL     1       3.564  -5.844   5.076  0.00  0.00    +0.200 C 
ATOM      2  O   UNL     1       3.854  -4.971   5.867  0.00  0.00    -0.278 OA
ATOM      3  N   UNL     1       3.971  -7.110   5.292  0.00  0.00    -0.292 N 
ATOM      4  C   UNL     1       3.631  -8.175   4.337  0.00  0.00    +0.113 C 
ATOM      5  C   UNL     1       4.933  -8.694   3.709  0.00  0.00    +0.061 C 
ATOM      6  C   UNL     1       5.959  -8.841   4.785  0.00  0.00    -0.004 A 
ATOM      7  C   UNL     1       5.941  -8.306   6.036  0.00  0.00    -0.014 A 
ATOM      8  C   UNL     1       7.033  -8.590   6.854  0.00  0.00    +0.013 A 
ATOM      9  C   UNL     1       8.039  -9.368   6.394  0.00  0.00    +0.046 A 
ATOM     10  S   UNL     1       7.482  -9.749   4.739  0.00  0.00    -0.101 S 
ATOM     11  C   UNL     1       4.766  -7.445   6.481  0.00  0.00    +0.144 C 
ENDROOT
BRANCH   1  12
ATOM     12  C   UNL     1       2.749  -5.512   3.853  0.00  0.00    +0.019 C 
BRANCH  12  13
ATOM     13  N   UNL     1       2.434  -4.077   3.848  0.00  0.00    +0.387 N 
ATOM     14  H   UNL     1       1.987  -3.829   4.718  0.00  0.00    -0.081 HD
BRANCH  13  15
ATOM     15  C   UNL     1       1.530  -3.778   2.730  0.00  0.00    -0.044 C 
BRANCH  15  16
ATOM     16  C   UNL     1       0.168  -4.425   2.987  0.00  0.00    +0.124 C 
BRANCH  16  17
ATOM     17  O   UNL     1       0.292  -5.846   2.904  0.00  0.00    -0.391 OA
ATOM     18  H   UNL     1       0.601  -6.164   2.045  0.00  0.00    +0.210 HD
ENDBRANCH  16  17
BRANCH  16  19
ATOM     19  C   UNL     1      -0.834  -3.938   1.939  0.00  0.00    +0.189 C 
BRANCH  19  20
ATOM     20  O   UNL     1      -2.132  -4.450   2.247  0.00  0.00    -0.378 OA
BRANCH  20  22
ATOM     21  C   UNL     1      -4.489  -4.655   1.750  0.00  0.00    +0.034 C 
ATOM     22  C   UNL     1      -3.148  -4.053   1.324  0.00  0.00    +0.156 C 
ENDBRANCH  20  22
ENDBRANCH  19  20
ENDBRANCH  16  19
ENDBRANCH  15  16
ENDBRANCH  13  15
BRANCH  13  23
ATOM     23  C   UNL     1       3.674  -3.304   3.697  0.00  0.00    -0.075 C 
BRANCH  23  24
ATOM     24  C   UNL     1       3.363  -1.812   3.828  0.00  0.00    -0.028 C 
ATOM     25  C   UNL     1       3.538  -0.941   2.582  0.00  0.00    +0.002 C 
ATOM     26  C   UNL     1       4.537  -0.835   3.736  0.00  0.00    +0.002 C 
ENDBRANCH  23  24
ENDBRANCH  13  23
ENDBRANCH  12  13
ENDBRANCH   1  12
BRANCH  11  27
ATOM     27  C   UNL     1       3.905  -8.226   7.477  0.00  0.00    +0.256 C 
BRANCH  27  28
ATOM     28  O   UNL     1       3.538  -9.483   6.905  0.00  0.00    -0.490 OA
BRANCH  28  29
ATOM     29  C   UNL     1       2.767 -10.304   7.666  0.00  0.00    +0.121 A 
ATOM     30  C   UNL     1       2.367  -9.906   8.933  0.00  0.00    +0.046 A 
ATOM     31  C   UNL     1       1.583 -10.742   9.703  0.00  0.00    +0.007 A 
ATOM     32  C   UNL     1       1.197 -11.976   9.213  0.00  0.00    -0.045 A 
ATOM     33  C   UNL     1       1.595 -12.376   7.950  0.00  0.00    +0.007 A 
ATOM     34  C   UNL     1       2.374 -11.540   7.173  0.00  0.00    +0.046 A 
BRANCH  32  35
ATOM     35  C   UNL     1       0.342 -12.887  10.056  0.00  0.00    +0.013 C 
ATOM     36  C   UNL     1      -0.973 -13.172   9.326  0.00  0.00    +0.012 C 
ATOM     37  C   UNL     1       1.085 -14.202  10.300  0.00  0.00    +0.012 C 
ENDBRANCH  32  35
ENDBRANCH  28  29
ENDBRANCH  27  28
ENDBRANCH  11  27
TORSDOF 14
