REMARK  Name = ZINC08809616
REMARK  5 active torsions:
REMARK  status: ('A' for Active; 'I' for Inactive)
REMARK    1  A    between atoms: C_4  and  C_7
REMARK    2  A    between atoms: C_7  and  C_32
REMARK    3  A    between atoms: C_15  and  C_18
REMARK    4  A    between atoms: C_21  and  C_23
REMARK    5  A    between atoms: C_28  and  N_29
REMARK                            x       y       z     vdW  Elec       q    Type
REMARK                         _______ _______ _______ _____ _____    ______ ____
ROOT
ATOM      1  C   UNL     1       2.451   3.937  -0.001  0.00  0.00    +0.149 C 
ATOM      2  C   UNL     1       2.271   5.205  -0.793  0.00  0.00    +0.014 A 
ATOM      3  C   UNL     1       1.107   5.939  -0.660  0.00  0.00    +0.009 A 
ATOM      4  C   UNL     1       0.937   7.106  -1.381  0.00  0.00    +0.000 A 
ATOM      5  C   UNL     1       1.929   7.546  -2.239  0.00  0.00    +0.002 A 
ATOM      6  C   UNL     1       3.094   6.817  -2.378  0.00  0.00    +0.023 A 
ATOM      7  C   UNL     1       3.265   5.645  -1.656  0.00  0.00    +0.036 A 
ATOM      8  N   UNL     1       4.442   4.899  -1.794  0.00  0.00    -0.313 N 
ATOM      9  C   UNL     1       4.704   3.838  -0.808  0.00  0.00    +0.273 C 
ATOM     10  O   UNL     1       3.477   3.132  -0.585  0.00  0.00    -0.331 OA
ATOM     11  H   UNL     1       5.065   5.076  -2.516  0.00  0.00    +0.149 HD
ENDROOT
BRANCH   1  15
ATOM     12  C   UNL     1      -1.216   1.747   0.028  0.00  0.00    +0.000 A 
ATOM     13  C   UNL     1      -1.022   2.781   0.924  0.00  0.00    +0.000 A 
ATOM     14  C   UNL     1       0.165   3.489   0.915  0.00  0.00    +0.007 A 
ATOM     15  C   UNL     1       1.156   3.165   0.008  0.00  0.00    -0.007 A 
ATOM     16  C   UNL     1       0.960   2.134  -0.892  0.00  0.00    +0.007 A 
ATOM     17  C   UNL     1      -0.228   1.427  -0.884  0.00  0.00    +0.000 A 
ENDBRANCH   1  15
BRANCH   1  18
ATOM     18  C   UNL     1       2.834   4.285   1.414  0.00  0.00    -0.007 A 
ATOM     19  C   UNL     1       2.403   5.473   1.974  0.00  0.00    +0.007 A 
ATOM     20  C   UNL     1       2.751   5.790   3.274  0.00  0.00    +0.000 A 
ATOM     21  C   UNL     1       3.538   4.925   4.010  0.00  0.00    +0.000 A 
ATOM     22  C   UNL     1       3.973   3.739   3.448  0.00  0.00    +0.000 A 
ATOM     23  C   UNL     1       3.621   3.419   2.150  0.00  0.00    +0.007 A 
ENDBRANCH   1  18
BRANCH   9  24
ATOM     24  C   UNL     1       5.747   2.890  -1.344  0.00  0.00    +0.153 A 
ATOM     25  C   UNL     1       6.862   3.245  -2.012  0.00  0.00    +0.050 A 
ATOM     26  C   UNL     1       7.550   2.057  -2.327  0.00  0.00    +0.050 A 
ATOM     27  C   UNL     1       6.810   1.031  -1.828  0.00  0.00    +0.138 A 
ATOM     28  O   UNL     1       5.721   1.552  -1.230  0.00  0.00    -0.455 OA
BRANCH  27  29
ATOM     29  C   UNL     1       7.145  -0.405  -1.920  0.00  0.00    +0.047 A 
ATOM     30  C   UNL     1       7.492  -0.967  -3.151  0.00  0.00    +0.014 A 
ATOM     31  C   UNL     1       7.803  -2.308  -3.230  0.00  0.00    +0.001 A 
ATOM     32  C   UNL     1       7.773  -3.097  -2.093  0.00  0.00    +0.002 A 
ATOM     33  C   UNL     1       7.430  -2.547  -0.871  0.00  0.00    +0.033 A 
ATOM     34  C   UNL     1       7.121  -1.206  -0.777  0.00  0.00    +0.137 A 
BRANCH  34  35
ATOM     35  N   UNL     1       6.759  -0.618   0.532  0.00  0.00    +0.057 N 
ATOM     36  O   UNL     1       6.739  -1.317   1.529  0.00  0.00    -0.126 OA
ATOM     37  O   UNL     1       6.482   0.566   0.613  0.00  0.00    -0.126 OA
ENDBRANCH  34  35
ENDBRANCH  27  29
ENDBRANCH   9  24
TORSDOF 5
