REMARK  Name = ZINC20083215
REMARK  8 active torsions:
REMARK  status: ('A' for Active; 'I' for Inactive)
REMARK    1  A    between atoms: C_1  and  C_2
REMARK    2  A    between atoms: C_4  and  C_40
REMARK    3  A    between atoms: C_9  and  C_14
REMARK    4  A    between atoms: C_14  and  C_16
REMARK    5  A    between atoms: C_14  and  N_26
REMARK    6  A    between atoms: N_20  and  C_21
REMARK    7  A    between atoms: N_29  and  C_32
REMARK    8  A    between atoms: C_32  and  C_33
REMARK                            x       y       z     vdW  Elec       q    Type
REMARK                         _______ _______ _______ _____ _____    ______ ____
ROOT
ATOM      1  C   UNL     1      -1.332   7.432   0.048  0.00  0.00    +0.162 C 
ENDROOT
BRANCH   1  10
ATOM      2  C   UNL     1       2.491   1.029  -0.015  0.00  0.00    +0.044 C 
ATOM      3  C   UNL     1       1.185   1.779   0.000  0.00  0.00    -0.050 A 
ATOM      4  C   UNL     1      -0.013   1.076   0.008  0.00  0.00    +0.008 A 
ATOM      5  C   UNL     1      -1.219   1.741   0.017  0.00  0.00    -0.026 A 
ATOM      6  C   UNL     1      -1.240   3.132   0.030  0.00  0.00    +0.052 A 
ATOM      7  C   UNL     1      -0.025   3.842   0.022  0.00  0.00    -0.001 A 
ATOM      8  C   UNL     1       1.188   3.145   0.007  0.00  0.00    +0.013 A 
ATOM      9  C   UNL     1      -0.057   5.306   0.029  0.00  0.00    +0.021 A 
ATOM     10  C   UNL     1      -1.263   5.926   0.042  0.00  0.00    +0.042 A 
ATOM     11  C   UNL     1      -2.453   5.168   0.050  0.00  0.00    +0.254 A 
ATOM     12  O   UNL     1      -3.526   5.746   0.062  0.00  0.00    -0.268 OA
ATOM     13  N   UNL     1      -2.433   3.824   0.043  0.00  0.00    -0.322 N 
ATOM     14  H   UNL     1      -3.386   3.275   0.050  0.00  0.00    +0.169 HD
ATOM     15  C   UNL     1      -2.511   0.965   0.020  0.00  0.00    +0.046 C 
ENDBRANCH   1  10
BRANCH   1  16
ATOM     16  N   UNL     1      -2.158   7.889  -1.078  0.00  0.00    -0.286 NA
ATOM     17  C   UNL     1      -1.641   7.373  -2.353  0.00  0.00    +0.101 C 
ATOM     18  C   UNL     1      -2.572   7.804  -3.489  0.00  0.00    +0.100 C 
ATOM     19  N   UNL     1      -2.662   9.271  -3.515  0.00  0.00    -0.296 NA
ATOM     20  C   UNL     1      -3.179   9.787  -2.239  0.00  0.00    +0.100 C 
ATOM     21  C   UNL     1      -2.248   9.355  -1.103  0.00  0.00    +0.101 C 
BRANCH  19  22
ATOM     22  C   UNL     1      -3.488   9.728  -4.640  0.00  0.00    +0.119 C 
BRANCH  22  23
ATOM     23  C   UNL     1      -2.800   9.392  -5.938  0.00  0.00    -0.033 A 
ATOM     24  C   UNL     1      -1.931  10.299  -6.515  0.00  0.00    +0.006 A 
ATOM     25  C   UNL     1      -1.295   9.988  -7.702  0.00  0.00    +0.020 A 
ATOM     26  C   UNL     1      -1.537   8.774  -8.319  0.00  0.00    +0.041 A 
ATOM     27  C   UNL     1      -2.411   7.868  -7.744  0.00  0.00    +0.020 A 
ATOM     28  C   UNL     1      -3.042   8.178  -6.554  0.00  0.00    +0.006 A 
ATOM     29 CL   UNL     1      -0.743   8.386  -9.813  0.00  0.00    -0.084 Cl
ENDBRANCH  22  23
ENDBRANCH  19  22
ENDBRANCH   1  16
BRANCH   1  30
ATOM     30  C   UNL     1      -1.943   7.901   1.343  0.00  0.00    +0.173 A 
ATOM     31  N   UNL     1      -3.209   7.846   1.676  0.00  0.00    -0.111 NA
ATOM     32  N   UNL     1      -3.332   8.343   2.858  0.00  0.00    -0.023 NA
ATOM     33  N   UNL     1      -2.177   8.714   3.288  0.00  0.00    -0.044 NA
ATOM     34  N   UNL     1      -1.294   8.454   2.384  0.00  0.00    -0.224 N 
BRANCH  34  35
ATOM     35  C   UNL     1       0.146   8.713   2.474  0.00  0.00    +0.111 C 
ATOM     36  C   UNL     1       0.739   7.984   3.697  0.00  0.00    +0.027 C 
ATOM     37  C   UNL     1       1.806   8.967   4.243  0.00  0.00    +0.002 C 
ATOM     38  C   UNL     1       1.135  10.348   4.040  0.00  0.00    +0.002 C 
ATOM     39  C   UNL     1       0.398  10.216   2.692  0.00  0.00    +0.027 C 
ENDBRANCH  34  35
ENDBRANCH   1  30
TORSDOF 6
