REMARK  Name = ZINC02218668
REMARK  10 active torsions:
REMARK  status: ('A' for Active; 'I' for Inactive)
REMARK    1  A    between atoms: C_1  and  C_2
REMARK    2  A    between atoms: C_2  and  C_3
REMARK    3  A    between atoms: C_3  and  N_4
REMARK    4  A    between atoms: N_4  and  C_5
REMARK    5  A    between atoms: C_5  and  C_6
REMARK    6  A    between atoms: C_6  and  C_7
REMARK    7  A    between atoms: C_8  and  C_10
REMARK    8  A    between atoms: C_10  and  S_11
REMARK    9  A    between atoms: S_11  and  C_12
REMARK   10  A    between atoms: N_18  and  C_19
REMARK                            x       y       z     vdW  Elec       q    Type
REMARK                         _______ _______ _______ _____ _____    ______ ____
ROOT
ATOM      1  C   UNL     1       4.702   4.124   0.361  0.00  0.00    +0.177 A 
ATOM      2  N   UNL     1       3.596   3.410   0.413  0.00  0.00    -0.222 NA
ATOM      3  C   UNL     1       2.419   3.939   0.062  0.00  0.00    +0.083 A 
ATOM      4  C   UNL     1       2.349   5.265  -0.336  0.00  0.00    +0.050 A 
ATOM      5  C   UNL     1       3.527   6.019  -0.394  0.00  0.00    +0.263 A 
ATOM      6  O   UNL     1       3.505   7.186  -0.749  0.00  0.00    -0.267 OA
ATOM      7  N   UNL     1       4.691   5.426  -0.047  0.00  0.00    -0.256 N 
ATOM      8  C   UNL     1       1.025   5.883  -0.699  0.00  0.00    +0.007 C 
ATOM      9  C   UNL     1       0.329   6.371   0.575  0.00  0.00    +0.012 C 
ATOM     10  C   UNL     1      -1.014   7.006   0.210  0.00  0.00    +0.001 C 
ATOM     11  C   UNL     1      -0.780   8.194  -0.725  0.00  0.00    +0.000 C 
ATOM     12  C   UNL     1      -0.081   7.710  -1.997  0.00  0.00    +0.001 C 
ATOM     13  C   UNL     1       1.262   7.075  -1.632  0.00  0.00    +0.012 C 
ATOM     14  C   UNL     1       0.135   4.860  -1.402  0.00  0.00    +0.047 C 
ATOM     15  C   UNL     1       0.060   3.585  -0.606  0.00  0.00    -0.037 A 
ATOM     16  C   UNL     1       1.181   3.127   0.087  0.00  0.00    +0.004 A 
ATOM     17  C   UNL     1       1.130   1.919   0.775  0.00  0.00    +0.010 A 
ATOM     18  C   UNL     1      -0.040   1.186   0.787  0.00  0.00    +0.001 A 
ATOM     19  C   UNL     1      -1.155   1.650   0.111  0.00  0.00    +0.000 A 
ATOM     20  C   UNL     1      -1.107   2.849  -0.578  0.00  0.00    +0.004 A 
ENDROOT
BRANCH   7  21
ATOM     21  C   UNL     1       5.888   6.149  -0.108  0.00  0.00    +0.052 A 
ATOM     22  C   UNL     1       6.644   6.148  -1.273  0.00  0.00    +0.026 A 
ATOM     23  C   UNL     1       7.821   6.868  -1.332  0.00  0.00    +0.002 A 
ATOM     24  C   UNL     1       8.254   7.579  -0.228  0.00  0.00    +0.000 A 
ATOM     25  C   UNL     1       7.507   7.578   0.936  0.00  0.00    +0.002 A 
ATOM     26  C   UNL     1       6.326   6.865   0.999  0.00  0.00    +0.026 A 
ENDBRANCH   7  21
BRANCH   1  27
ATOM     27  S   UNL     1       6.230   3.382   0.831  0.00  0.00    -0.078 S 
BRANCH  27  28
ATOM     28  C   UNL     1       5.653   1.721   1.260  0.00  0.00    +0.173 C 
BRANCH  28  30
ATOM     29  N   UNL     1       6.633  -0.399   2.075  0.00  0.00    -0.301 N 
ATOM     30  C   UNL     1       6.824   0.882   1.705  0.00  0.00    +0.226 C 
ATOM     31  O   UNL     1       7.938   1.361   1.729  0.00  0.00    -0.275 OA
BRANCH  29  32
ATOM     32  C   UNL     1       7.771  -1.214   2.507  0.00  0.00    +0.107 C 
BRANCH  32  34
ATOM     33  C   UNL     1       9.143  -1.924   4.471  0.00  0.00    +0.005 C 
ATOM     34  C   UNL     1       7.955  -1.073   4.019  0.00  0.00    +0.016 C 
ENDBRANCH  32  34
ENDBRANCH  29  32
BRANCH  29  35
ATOM     35  C   UNL     1       5.287  -0.977   2.046  0.00  0.00    +0.107 C 
BRANCH  35  36
ATOM     36  C   UNL     1       5.030  -1.603   0.674  0.00  0.00    +0.016 C 
ATOM     37  C   UNL     1       3.624  -2.207   0.644  0.00  0.00    +0.005 C 
ENDBRANCH  35  36
ENDBRANCH  29  35
ENDBRANCH  28  30
ENDBRANCH  27  28
ENDBRANCH   1  27
TORSDOF 8
