REMARK  Name = ZINC39593346
REMARK  6 active torsions:
REMARK  status: ('A' for Active; 'I' for Inactive)
REMARK    1  A    between atoms: C_1  and  O_2
REMARK    2  A    between atoms: O_2  and  C_3
REMARK    3  A    between atoms: C_5  and  C_11
REMARK    4  A    between atoms: C_8  and  O_9
REMARK    5  A    between atoms: N_12  and  N_13
REMARK    6  A    between atoms: C_14  and  C_20
REMARK                            x       y       z     vdW  Elec       q    Type
REMARK                         _______ _______ _______ _____ _____    ______ ____
ROOT
ATOM      1  N   UNL     1       3.634   0.540  -6.188  0.00  0.00    -0.175 N 
ATOM      2  C   UNL     1       4.329   0.044  -7.388  0.00  0.00    +0.230 C 
ATOM      3  N   UNL     1       4.837   1.267  -8.034  0.00  0.00    -0.242 N 
ATOM      4  N   UNL     1       4.432   2.333  -7.221  0.00  0.00    -0.160 NA
ATOM      5  C   UNL     1       3.759   1.920  -6.200  0.00  0.00    +0.206 C 
ATOM      6  S   UNL     1       3.084   2.982  -4.967  0.00  0.00    -0.011 SA
ATOM      7  H   UNL     1       5.348   1.323  -8.856  0.00  0.00    +0.170 HD
ENDROOT
BRANCH   2   8
ATOM      8  C   UNL     1       3.352  -0.687  -8.310  0.00  0.00    +0.197 C 
ATOM      9  C   UNL     1       4.074  -1.252  -9.517  0.00  0.00    -0.017 C 
ATOM     10  C   UNL     1       3.518  -0.641 -10.561  0.00  0.00    +0.065 C 
ATOM     11  C   UNL     1       4.162  -1.129 -11.846  0.00  0.00    +0.057 C 
ATOM     12  C   UNL     1       5.479  -1.803 -11.405  0.00  0.00    +0.011 C 
ATOM     13  C   UNL     1       5.149  -2.213  -9.952  0.00  0.00    +0.035 C 
ATOM     14  N   UNL     1       2.554   0.221 -10.135  0.00  0.00    -0.158 NA
ATOM     15  N   UNL     1       2.394   0.257  -8.911  0.00  0.00    -0.176 NA
ENDBRANCH   2   8
BRANCH   1  17
ATOM     16  C   UNL     1       3.023  -1.528  -5.285  0.00  0.00    +0.138 C 
ATOM     17  N   UNL     1       2.971  -0.232  -5.226  0.00  0.00    -0.184 NA
BRANCH  16  20
ATOM     18  C   UNL     1       1.533  -4.494  -3.529  0.00  0.00    +0.163 A 
ATOM     19  C   UNL     1       2.281  -3.736  -4.410  0.00  0.00    +0.059 A 
ATOM     20  C   UNL     1       2.227  -2.342  -4.348  0.00  0.00    -0.001 A 
ATOM     21  C   UNL     1       1.417  -1.719  -3.394  0.00  0.00    +0.028 A 
ATOM     22  C   UNL     1       0.673  -2.483  -2.518  0.00  0.00    +0.063 A 
ATOM     23  C   UNL     1       0.724  -3.868  -2.584  0.00  0.00    +0.173 A 
ATOM     24 BR   UNL     1      -0.422  -1.639  -1.227  0.00  0.00    -0.046 Br
BRANCH  18  26
ATOM     25  C   UNL     1       2.434  -6.428  -4.581  0.00  0.00    +0.277 C 
ATOM     26  O   UNL     1       1.583  -5.852  -3.587  0.00  0.00    -0.491 OA
ENDBRANCH  18  26
BRANCH  23  27
ATOM     27  O   UNL     1      -0.015  -4.616  -1.722  0.00  0.00    -0.503 OA
ATOM     28  H   UNL     1       0.442  -4.832  -0.897  0.00  0.00    +0.292 HD
ENDBRANCH  23  27
ENDBRANCH  16  20
ENDBRANCH   1  17
TORSDOF 5
