REMARK  Name = ZINC39966935
REMARK  7 active torsions:
REMARK  status: ('A' for Active; 'I' for Inactive)
REMARK    1  A    between atoms: C_3  and  N_9
REMARK    2  A    between atoms: C_10  and  C_12
REMARK    3  A    between atoms: C_12  and  S_13
REMARK    4  A    between atoms: S_13  and  C_14
REMARK    5  A    between atoms: C_17  and  C_26
REMARK    6  A    between atoms: N_18  and  C_19
REMARK    7  A    between atoms: C_19  and  C_20
REMARK                            x       y       z     vdW  Elec       q    Type
REMARK                         _______ _______ _______ _____ _____    ______ ____
ROOT
ATOM      1  C   UNL     1       6.113   6.751  -0.393  0.00  0.00    +0.192 A 
ATOM      2  N   UNL     1       7.250   6.128  -0.599  0.00  0.00    -0.122 NA
ATOM      3  N   UNL     1       8.198   6.980  -0.763  0.00  0.00    -0.128 NA
ATOM      4  C   UNL     1       7.724   8.201  -0.671  0.00  0.00    +0.166 A 
ATOM      5  N   UNL     1       6.373   8.093  -0.437  0.00  0.00    -0.300 N 
ENDROOT
BRANCH   4   6
ATOM      6  C   UNL     1       8.496   9.455  -0.801  0.00  0.00    +0.030 A 
ATOM      7  C   UNL     1       8.040  10.462  -1.600  0.00  0.00    +0.057 A 
ATOM      8  S   UNL     1       9.312  11.698  -1.396  0.00  0.00    -0.101 S 
ATOM      9  C   UNL     1      10.347  10.801  -0.268  0.00  0.00    -0.006 A 
ATOM     10  C   UNL     1       9.706   9.619  -0.095  0.00  0.00    -0.026 A 
ATOM     11  C   UNL     1      10.267   8.517   0.799  0.00  0.00    +0.036 C 
ATOM     12  C   UNL     1      11.150   9.124   1.882  0.00  0.00    +0.005 C 
ATOM     13  C   UNL     1      12.596   9.230   1.403  0.00  0.00    +0.001 C 
ATOM     14  C   UNL     1      12.684  10.167   0.203  0.00  0.00    +0.005 C 
ATOM     15  C   UNL     1      11.625  11.258   0.357  0.00  0.00    +0.043 C 
ENDBRANCH   4   6
BRANCH   1  16
ATOM     16  S   UNL     1       4.544   5.999  -0.118  0.00  0.00    -0.077 S 
BRANCH  16  17
ATOM     17  C   UNL     1       4.893   4.220  -0.181  0.00  0.00    +0.173 C 
BRANCH  17  19
ATOM     18  N   UNL     1       3.634   2.102   0.038  0.00  0.00    -0.283 N 
ATOM     19  C   UNL     1       3.617   3.450   0.042  0.00  0.00    +0.228 C 
ATOM     20  O   UNL     1       2.575   4.043   0.226  0.00  0.00    -0.275 OA
ATOM     21  H   UNL     1       4.477   1.628  -0.032  0.00  0.00    +0.155 HD
BRANCH  18  24
ATOM     22  C   UNL     1       0.046   1.296  -0.080  0.00  0.00    +0.022 A 
ATOM     23  C   UNL     1       1.229   2.004  -0.174  0.00  0.00    +0.027 A 
ATOM     24  C   UNL     1       2.433   1.386   0.133  0.00  0.00    +0.069 A 
ATOM     25  C   UNL     1       2.446   0.055   0.536  0.00  0.00    +0.146 A 
ATOM     26  C   UNL     1       1.259  -0.648   0.628  0.00  0.00    +0.060 A 
ATOM     27  C   UNL     1       0.060  -0.028   0.321  0.00  0.00    +0.044 A 
ATOM     28 CL   UNL     1      -1.428  -0.914   0.439  0.00  0.00    -0.083 Cl
ATOM     29  F   UNL     1       3.616  -0.550   0.836  0.00  0.00    -0.203 F 
ENDBRANCH  18  24
ENDBRANCH  17  19
ENDBRANCH  16  17
ENDBRANCH   1  16
BRANCH   5  30
ATOM     30  C   UNL     1       5.414   9.187  -0.267  0.00  0.00    +0.157 C 
BRANCH  30  31
ATOM     31  C   UNL     1       5.233   9.480   1.224  0.00  0.00    +0.138 C 
ATOM     32  C   UNL     1       4.135  10.548   1.418  0.00  0.00    +0.035 C 
ATOM     33  C   UNL     1       4.715  11.412   2.570  0.00  0.00    +0.031 C 
ATOM     34  C   UNL     1       6.231  11.338   2.258  0.00  0.00    +0.160 C 
ATOM     35  O   UNL     1       6.450  10.004   1.767  0.00  0.00    -0.375 OA
ENDBRANCH  30  31
ENDBRANCH   5  30
TORSDOF 7
