REMARK  Name = ZINC39468674
REMARK  7 active torsions:
REMARK  status: ('A' for Active; 'I' for Inactive)
REMARK    1  A    between atoms: C_1  and  S_2
REMARK    2  A    between atoms: S_2  and  P_3
REMARK    3  A    between atoms: C_11  and  C_31
REMARK    4  A    between atoms: C_12  and  S_21
REMARK    5  A    between atoms: S_21  and  O_24
REMARK    6  A    between atoms: O_24  and  C_25
REMARK    7  A    between atoms: C_31  and  C_32
REMARK                            x       y       z     vdW  Elec       q    Type
REMARK                         _______ _______ _______ _____ _____    ______ ____
ROOT
ATOM      1  P   UNL     1       0.823  -0.306   2.525  0.00  0.00    +0.314 P 
ATOM      2  O   UNL     1       2.126   0.374   2.704  0.00  0.00    -0.262 OA
ATOM      3  N   UNL     1       0.991  -1.935   2.731  0.00  0.00    -0.283 NA
ATOM      4  N   UNL     1      -0.142  -2.666   3.021  0.00  0.00    +0.398 N 
ATOM      5  C   UNL     1       0.316  -4.044   3.264  0.00  0.00    -0.046 C 
ATOM      6  C   UNL     1      -0.856  -4.962   3.585  0.00  0.00    +0.005 C 
ATOM      7  C   UNL     1      -1.827  -5.003   2.436  0.00  0.00    -0.019 C 
ATOM      8  C   UNL     1      -3.090  -5.361   2.658  0.00  0.00    -0.019 C 
ATOM      9  C   UNL     1      -3.512  -5.722   4.022  0.00  0.00    +0.128 C 
ATOM     10  C   UNL     1      -2.807  -5.297   5.066  0.00  0.00    +0.008 C 
ATOM     11  C   UNL     1      -1.584  -4.446   4.830  0.00  0.00    +0.017 C 
ATOM     12  C   UNL     1      -2.015  -3.000   4.578  0.00  0.00    -0.003 C 
ATOM     13  C   UNL     1      -0.805  -2.133   4.213  0.00  0.00    -0.020 C 
ATOM     14  C   UNL     1      -1.327  -0.709   3.977  0.00  0.00    +0.157 C 
ATOM     15  O   UNL     1      -0.223   0.164   3.680  0.00  0.00    -0.312 OA
ATOM     16  H   UNL     1       1.857  -2.364   2.649  0.00  0.00    +0.112 HD
ATOM     17  H   UNL     1      -0.776  -2.638   2.237  0.00  0.00    -0.055 HD
ENDROOT
BRANCH   9  18
ATOM     18  S   UNL     1      -4.947  -6.713   4.269  0.00  0.00    +0.151 S 
ATOM     19  O   UNL     1      -5.104  -6.857   5.675  0.00  0.00    -0.131 OA
ATOM     20  O   UNL     1      -5.965  -6.167   3.442  0.00  0.00    -0.131 OA
BRANCH  18  21
ATOM     21  O   UNL     1      -4.638  -8.098   3.721  0.00  0.00    -0.342 OA
BRANCH  21  22
ATOM     22  C   UNL     1      -3.816  -8.836   4.514  0.00  0.00    +0.157 A 
ATOM     23  C   UNL     1      -2.441  -8.766   4.345  0.00  0.00    +0.048 A 
ATOM     24  C   UNL     1      -1.608  -9.515   5.152  0.00  0.00    +0.004 A 
ATOM     25  C   UNL     1      -2.143 -10.335   6.128  0.00  0.00    +0.000 A 
ATOM     26  C   UNL     1      -3.514 -10.407   6.299  0.00  0.00    +0.004 A 
ATOM     27  C   UNL     1      -4.351  -9.655   5.498  0.00  0.00    +0.048 A 
ENDBRANCH  21  22
ENDBRANCH  18  21
ENDBRANCH   9  18
BRANCH   1  29
ATOM     28  C   UNL     1      -0.198   1.915   0.609  0.00  0.00    +0.096 C 
ATOM     29  S   UNL     1       0.034   0.115   0.603  0.00  0.00    -0.059 S 
ENDBRANCH   1  29
BRANCH   8  30
ATOM     30  C   UNL     1      -4.080  -5.397   1.522  0.00  0.00    +0.072 C 
BRANCH  30  31
ATOM     31  C   UNL     1      -4.687  -4.030   1.341  0.00  0.00    -0.043 A 
ATOM     32  C   UNL     1      -5.761  -3.643   2.120  0.00  0.00    +0.004 A 
ATOM     33  C   UNL     1      -6.319  -2.388   1.954  0.00  0.00    +0.000 A 
ATOM     34  C   UNL     1      -5.801  -1.521   1.010  0.00  0.00    +0.000 A 
ATOM     35  C   UNL     1      -4.726  -1.908   0.232  0.00  0.00    +0.000 A 
ATOM     36  C   UNL     1      -4.166  -3.161   0.401  0.00  0.00    +0.004 A 
ENDBRANCH  30  31
ENDBRANCH   8  30
TORSDOF 6
