REMARK  Name = ZINC64058371
REMARK  4 active torsions:
REMARK  status: ('A' for Active; 'I' for Inactive)
REMARK    1  A    between atoms: C_8  and  C_27
REMARK    2  A    between atoms: C_16  and  C_18
REMARK    3  A    between atoms: C_18  and  C_19
REMARK    4  A    between atoms: C_19  and  C_20
REMARK                            x       y       z     vdW  Elec       q    Type
REMARK                         _______ _______ _______ _____ _____    ______ ____
ROOT
ATOM      1  C   UNL     1      -0.255   1.301   0.316  0.00  0.00    +0.001 A 
ATOM      2  C   UNL     1       0.872   2.130   0.402  0.00  0.00    +0.002 A 
ATOM      3  C   UNL     1       2.133   1.649   0.360  0.00  0.00    +0.026 A 
ATOM      4  C   UNL     1       2.369   0.254   0.224  0.00  0.00    +0.043 A 
ATOM      5  N   UNL     1       3.481  -0.443   0.180  0.00  0.00    -0.375 N 
ATOM      6  C   UNL     1       3.142  -1.845  -0.047  0.00  0.00    +0.131 C 
ATOM      7  C   UNL     1       3.698  -2.754   1.055  0.00  0.00    +0.135 C 
ATOM      8  N   UNL     1       2.990  -4.042   0.980  0.00  0.00    -0.292 N 
ATOM      9  C   UNL     1       1.533  -4.103   1.141  0.00  0.00    +0.113 C 
ATOM     10  C   UNL     1       0.865  -3.215   0.075  0.00  0.00    +0.052 C 
ATOM     11  C   UNL     1       1.625  -1.910   0.026  0.00  0.00    -0.035 C 
ATOM     12  C   UNL     1       1.192  -0.646   0.138  0.00  0.00    -0.001 A 
ATOM     13  C   UNL     1      -0.144  -0.040   0.188  0.00  0.00    +0.010 A 
ATOM     14  C   UNL     1       3.686  -5.175   0.760  0.00  0.00    +0.216 C 
ATOM     15  O   UNL     1       4.898  -5.144   0.720  0.00  0.00    -0.276 OA
ATOM     16  H   UNL     1       4.378  -0.086   0.282  0.00  0.00    +0.160 HD
ENDROOT
BRANCH   7  17
ATOM     17  C   UNL     1       5.174  -2.970   0.841  0.00  0.00    +0.013 A 
ATOM     18  C   UNL     1       5.715  -2.847  -0.425  0.00  0.00    +0.046 A 
ATOM     19  C   UNL     1       7.071  -3.044  -0.621  0.00  0.00    +0.124 A 
ATOM     20  C   UNL     1       7.886  -3.365   0.451  0.00  0.00    +0.041 A 
ATOM     21  C   UNL     1       7.346  -3.488   1.717  0.00  0.00    +0.041 A 
ATOM     22  C   UNL     1       5.990  -3.285   1.914  0.00  0.00    +0.129 A 
ATOM     23  F   UNL     1       5.463  -3.401   3.153  0.00  0.00    -0.205 F 
ATOM     24  F   UNL     1       7.598  -2.925  -1.859  0.00  0.00    -0.205 F 
ENDBRANCH   7  17
BRANCH  14  25
ATOM     25  C   UNL     1       2.958  -6.479   0.562  0.00  0.00    +0.102 C 
BRANCH  25  26
ATOM     26  C   UNL     1       3.974  -7.600   0.333  0.00  0.00    +0.061 C 
BRANCH  26  27
ATOM     27  C   UNL     1       3.246  -8.905   0.135  0.00  0.00    +0.038 C 
ATOM     28  N   UNL     1       1.971  -8.923   0.174  0.00  0.00    -0.189 NA
ATOM     29  N   UNL     1       1.253 -10.110  -0.002  0.00  0.00    -0.207 N 
ATOM     30  C   UNL     1       1.857 -11.303   0.169  0.00  0.00    +0.233 C 
ATOM     31  O   UNL     1       1.229 -12.331   0.024  0.00  0.00    -0.274 OA
ATOM     32  C   UNL     1       3.318 -11.351   0.540  0.00  0.00    +0.103 C 
ATOM     33  C   UNL     1       4.036 -10.162  -0.109  0.00  0.00    +0.062 C 
ATOM     34  H   UNL     1       0.316 -10.075  -0.247  0.00  0.00    +0.177 HD
ENDBRANCH  26  27
ENDBRANCH  25  26
ENDBRANCH  14  25
TORSDOF 4
