REMARK  Name = ZINC12887270
REMARK  13 active torsions:
REMARK  status: ('A' for Active; 'I' for Inactive)
REMARK    1  A    between atoms: C_1  and  C_2
REMARK    2  A    between atoms: C_2  and  C_3
REMARK    3  A    between atoms: C_2  and  N_63
REMARK    4  A    between atoms: C_4  and  C_5
REMARK    5  A    between atoms: C_4  and  N_63
REMARK    6  A    between atoms: C_5  and  N_6
REMARK    7  A    between atoms: C_7  and  C_9
REMARK    8  A    between atoms: N_12  and  S_15
REMARK    9  A    between atoms: S_15  and  C_18
REMARK   10  A    between atoms: C_22  and  C_24
REMARK   11  A    between atoms: C_29  and  C_30
REMARK   12  A    between atoms: C_29  and  C_31
REMARK   13  A    between atoms: C_29  and  N_63
REMARK                            x       y       z     vdW  Elec       q    Type
REMARK                         _______ _______ _______ _____ _____    ______ ____
ROOT
ATOM      1  C   UNL     1       1.495   2.104  -0.586  0.00  0.00    +0.077 C 
ATOM      2  C   UNL     1       0.070   1.552  -0.657  0.00  0.00    +0.030 C 
ATOM      3  C   UNL     1       0.123   0.025  -0.774  0.00  0.00    +0.110 C 
ATOM      4  N   UNL     1       0.966  -0.332  -1.923  0.00  0.00    -0.177 NA
ATOM      5  C   UNL     1       2.325   0.220  -2.001  0.00  0.00    +0.110 C 
ATOM      6  C   UNL     1       2.247   1.744  -1.869  0.00  0.00    +0.030 C 
ENDROOT
BRANCH   1   8
ATOM      7  N   UNL     1       2.590   4.309  -0.354  0.00  0.00    -0.317 N 
ATOM      8  C   UNL     1       1.446   3.603  -0.436  0.00  0.00    +0.216 C 
ATOM      9  O   UNL     1       0.376   4.173  -0.391  0.00  0.00    -0.276 OA
ATOM     10  H   UNL     1       3.446   3.853  -0.390  0.00  0.00    +0.149 HD
BRANCH   7  11
ATOM     11  C   UNL     1       2.543   5.766  -0.208  0.00  0.00    +0.085 C 
BRANCH  11  12
ATOM     12  C   UNL     1       3.968   6.319  -0.138  0.00  0.00    -0.059 C 
BRANCH  12  13
ATOM     13  N   UNL     1       3.904   7.796  -0.152  0.00  0.00    +0.384 N 
ATOM     14  H   UNL     1       3.202   8.093  -0.840  0.00  0.00    -0.081 HD
BRANCH  13  16
ATOM     15  C   UNL     1       1.985   8.370   1.245  0.00  0.00    -0.014 C 
ATOM     16  C   UNL     1       3.512   8.297   1.182  0.00  0.00    -0.074 C 
ATOM     17  C   UNL     1       4.023   7.358   2.277  0.00  0.00    -0.014 C 
ENDBRANCH  13  16
BRANCH  13  18
ATOM     18  C   UNL     1       5.218   8.354  -0.534  0.00  0.00    -0.074 C 
ATOM     19  C   UNL     1       5.618   7.794  -1.901  0.00  0.00    -0.014 C 
ATOM     20  C   UNL     1       5.103   9.877  -0.622  0.00  0.00    -0.014 C 
ENDBRANCH  13  18
ENDBRANCH  12  13
ENDBRANCH  11  12
ENDBRANCH   7  11
ENDBRANCH   1   8
BRANCH   4  21
ATOM     21  S   UNL     1       0.394  -1.336  -3.109  0.00  0.00    +0.061 S 
ATOM     22  O   UNL     1       1.531  -1.923  -3.728  0.00  0.00    -0.153 OA
ATOM     23  O   UNL     1      -0.639  -2.114  -2.520  0.00  0.00    -0.153 OA
BRANCH  21  24
ATOM     24  C   UNL     1      -0.374  -0.320  -4.327  0.00  0.00    +0.106 A 
ATOM     25  C   UNL     1      -1.719  -0.018  -4.227  0.00  0.00    +0.030 A 
ATOM     26  C   UNL     1      -2.321   0.784  -5.179  0.00  0.00    +0.022 A 
ATOM     27  C   UNL     1      -1.578   1.275  -6.238  0.00  0.00    +0.053 A 
ATOM     28  C   UNL     1      -0.233   0.968  -6.341  0.00  0.00    +0.075 A 
ATOM     29  C   UNL     1       0.368   0.171  -5.385  0.00  0.00    +0.042 A 
ATOM     30 CL   UNL     1      -2.334   2.277  -7.438  0.00  0.00    -0.083 Cl
BRANCH  28  31
ATOM     31  C   UNL     1       0.576   1.503  -7.494  0.00  0.00    +0.419 C 
ATOM     32  F   UNL     1       1.898   1.060  -7.381  0.00  0.00    -0.166 F 
ATOM     33  F   UNL     1       0.032   1.044  -8.698  0.00  0.00    -0.166 F 
ATOM     34  F   UNL     1       0.549   2.901  -7.474  0.00  0.00    -0.166 F 
ENDBRANCH  28  31
ENDBRANCH  21  24
ENDBRANCH   4  21
TORSDOF 9
