REMARK  Name = ZINC09491343
REMARK  11 active torsions:
REMARK  status: ('A' for Active; 'I' for Inactive)
REMARK    1  A    between atoms: C_1  and  C_2
REMARK    2  A    between atoms: C_2  and  C_3
REMARK    3  A    between atoms: C_3  and  C_4
REMARK    4  A    between atoms: C_4  and  N_5
REMARK    5  A    between atoms: N_14  and  C_30
REMARK    6  A    between atoms: C_15  and  C_17
REMARK    7  A    between atoms: C_17  and  S_18
REMARK    8  A    between atoms: S_18  and  C_19
REMARK    9  A    between atoms: N_23  and  C_24
REMARK   10  A    between atoms: C_30  and  C_31
REMARK   11  A    between atoms: C_31  and  C_32
REMARK                            x       y       z     vdW  Elec       q    Type
REMARK                         _______ _______ _______ _____ _____    ______ ____
ROOT
ATOM      1  N   UNL     1      -3.053   1.315   3.825  0.00  0.00    -0.277 N 
ATOM      2  C   UNL     1      -2.049   1.725   2.962  0.00  0.00    +0.168 A 
ATOM      3  C   UNL     1      -1.711   0.908   1.890  0.00  0.00    +0.151 A 
ATOM      4  C   UNL     1      -2.398  -0.311   1.712  0.00  0.00    +0.280 A 
ATOM      5  O   UNL     1      -2.120  -1.045   0.780  0.00  0.00    -0.265 OA
ATOM      6  N   UNL     1      -3.367  -0.656   2.586  0.00  0.00    -0.273 N 
ATOM      7  H   UNL     1      -3.857  -1.519   2.463  0.00  0.00    +0.173 HD
ATOM      8  C   UNL     1      -3.683   0.144   3.619  0.00  0.00    +0.331 A 
ATOM      9  O   UNL     1      -4.562  -0.199   4.386  0.00  0.00    -0.246 OA
ATOM     10  N   UNL     1      -0.698   1.558   1.213  0.00  0.00    -0.321 N 
ATOM     11  C   UNL     1      -0.456   2.707   1.875  0.00  0.00    +0.123 A 
ATOM     12  N   UNL     1      -1.261   2.802   2.903  0.00  0.00    -0.213 NA
ENDROOT
BRANCH   1  13
ATOM     13  C   UNL     1      -3.428   2.158   4.963  0.00  0.00    +0.128 C 
BRANCH  13  14
ATOM     14  C   UNL     1      -2.580   1.780   6.179  0.00  0.00    +0.021 C 
BRANCH  14  16
ATOM     15  C   UNL     1      -2.124   2.282   8.583  0.00  0.00    +0.004 C 
ATOM     16  C   UNL     1      -2.972   2.660   7.367  0.00  0.00    -0.002 C 
ENDBRANCH  14  16
ENDBRANCH  13  14
ENDBRANCH   1  13
BRANCH  11  17
ATOM     17  C   UNL     1       0.581   3.729   1.488  0.00  0.00    +0.151 C 
BRANCH  17  18
ATOM     18  S   UNL     1      -0.155   4.940   0.363  0.00  0.00    -0.078 S 
BRANCH  18  19
ATOM     19  C   UNL     1       1.237   5.982   0.081  0.00  0.00    +0.196 A 
ATOM     20  N   UNL     1       2.438   5.837   0.593  0.00  0.00    -0.122 NA
ATOM     21  N   UNL     1       3.208   6.777   0.175  0.00  0.00    -0.137 NA
ATOM     22  C   UNL     1       2.554   7.573  -0.622  0.00  0.00    +0.230 A 
ATOM     23  N   UNL     1       1.274   7.093  -0.716  0.00  0.00    -0.277 N 
BRANCH  23  24
ATOM     24  C   UNL     1       0.221   7.630  -1.471  0.00  0.00    +0.050 A 
ATOM     25  C   UNL     1      -0.517   6.812  -2.315  0.00  0.00    +0.026 A 
ATOM     26  C   UNL     1      -1.558   7.343  -3.052  0.00  0.00    +0.002 A 
ATOM     27  C   UNL     1      -1.857   8.690  -2.959  0.00  0.00    +0.000 A 
ATOM     28  C   UNL     1      -1.119   9.508  -2.123  0.00  0.00    +0.002 A 
ATOM     29  C   UNL     1      -0.082   8.982  -1.379  0.00  0.00    +0.026 A 
ENDBRANCH  23  24
ENDBRANCH  18  19
ENDBRANCH  17  18
ENDBRANCH  11  17
BRANCH  10  30
ATOM     30  C   UNL     1      -0.013   1.086   0.008  0.00  0.00    +0.123 C 
BRANCH  30  31
ATOM     31  C   UNL     1      -0.753   1.593  -1.232  0.00  0.00    +0.018 C 
ATOM     32  C   UNL     1      -0.037   1.099  -2.490  0.00  0.00    +0.005 C 
ENDBRANCH  30  31
ENDBRANCH  10  30
TORSDOF 9
