REMARK  Name = ZINC42015608
REMARK  3 active torsions:
REMARK  status: ('A' for Active; 'I' for Inactive)
REMARK    1  A    between atoms: C_6  and  N_7
REMARK    2  A    between atoms: C_8  and  C_12
REMARK    3  A    between atoms: C_15  and  N_19
REMARK                            x       y       z     vdW  Elec       q    Type
REMARK                         _______ _______ _______ _____ _____    ______ ____
ROOT
ATOM      1  N   UNL     1      -1.199  -0.728   0.017  0.00  0.00    -0.193 N 
ATOM      2  C   UNL     1      -1.494  -1.859  -0.686  0.00  0.00    +0.188 A 
ATOM      3  N   UNL     1      -2.736  -2.183  -0.386  0.00  0.00    -0.108 NA
ATOM      4  N   UNL     1      -3.232  -1.340   0.446  0.00  0.00    -0.022 NA
ATOM      5  N   UNL     1      -2.366  -0.433   0.744  0.00  0.00    -0.039 NA
ENDROOT
BRANCH   1  11
ATOM      6  C   UNL     1       0.684   0.210  -1.174  0.00  0.00    +0.031 A 
ATOM      7  C   UNL     1       1.873   0.912  -1.171  0.00  0.00    +0.040 A 
ATOM      8  C   UNL     1       2.393   1.390   0.020  0.00  0.00    +0.124 A 
ATOM      9  C   UNL     1       1.721   1.166   1.210  0.00  0.00    +0.040 A 
ATOM     10  C   UNL     1       0.532   0.465   1.211  0.00  0.00    +0.031 A 
ATOM     11  C   UNL     1       0.009  -0.015   0.018  0.00  0.00    +0.070 A 
ATOM     12  F   UNL     1       3.557   2.076   0.021  0.00  0.00    -0.205 F 
ENDBRANCH   1  11
BRANCH   2  13
ATOM     13  C   UNL     1      -0.594  -2.584  -1.607  0.00  0.00    +0.039 A 
ATOM     14  C   UNL     1       0.699  -2.921  -1.201  0.00  0.00    +0.015 A 
ATOM     15  C   UNL     1       1.536  -3.596  -2.062  0.00  0.00    +0.023 A 
ATOM     16  C   UNL     1       1.095  -3.943  -3.335  0.00  0.00    +0.026 A 
ATOM     17  C   UNL     1      -0.192  -3.610  -3.743  0.00  0.00    +0.043 A 
ATOM     18  C   UNL     1      -1.037  -2.939  -2.884  0.00  0.00    +0.053 A 
ATOM     19 CL   UNL     1      -2.646  -2.530  -3.391  0.00  0.00    -0.083 Cl
BRANCH  16  20
ATOM     20  N   UNL     1       1.945  -4.627  -4.203  0.00  0.00    -0.358 N 
ATOM     21  H   UNL     1       2.843  -4.860  -3.919  0.00  0.00    +0.142 HD
ATOM     22  H   UNL     1       1.639  -4.870  -5.091  0.00  0.00    +0.142 HD
ENDBRANCH  16  20
ENDBRANCH   2  13
TORSDOF 3
