REMARK  Name = ZINC36207617
REMARK  14 active torsions:
REMARK  status: ('A' for Active; 'I' for Inactive)
REMARK    1  A    between atoms: C_1  and  C_2
REMARK    2  A    between atoms: C_2  and  C_3
REMARK    3  A    between atoms: C_2  and  C_4
REMARK    4  A    between atoms: C_4  and  C_5
REMARK    5  A    between atoms: C_5  and  N_6
REMARK    6  A    between atoms: N_6  and  C_7
REMARK    7  A    between atoms: N_6  and  C_25
REMARK    8  A    between atoms: C_7  and  C_8
REMARK    9  A    between atoms: C_14  and  C_19
REMARK   10  A    between atoms: C_25  and  C_26
REMARK   11  A    between atoms: C_26  and  C_28
REMARK   12  A    between atoms: C_26  and  O_37
REMARK   13  A    between atoms: C_28  and  O_29
REMARK   14  A    between atoms: O_29  and  C_30
REMARK                            x       y       z     vdW  Elec       q    Type
REMARK                         _______ _______ _______ _____ _____    ______ ____
ROOT
ATOM      1  N   UNL     1       0.677  -0.684   3.541  0.00  0.00    +0.386 N 
ATOM      2  H   UNL     1       0.683  -1.666   3.312  0.00  0.00    -0.081 HD
ENDROOT
BRANCH   1   3
ATOM      3  C   UNL     1       0.139   0.080   2.407  0.00  0.00    -0.078 C 
BRANCH   3   4
ATOM      4  C   UNL     1       0.002   1.552   2.802  0.00  0.00    -0.016 C 
BRANCH   4   6
ATOM      5  C   UNL     1      -1.830   1.935   1.148  0.00  0.00    +0.007 C 
ATOM      6  C   UNL     1      -0.429   2.369   1.583  0.00  0.00    -0.019 C 
ATOM      7  C   UNL     1      -0.445   3.856   1.945  0.00  0.00    +0.007 C 
ENDBRANCH   4   6
ENDBRANCH   3   4
ENDBRANCH   1   3
BRANCH   1   8
ATOM      8  C   UNL     1       2.049  -0.239   3.824  0.00  0.00    -0.003 C 
BRANCH   8   9
ATOM      9  C   UNL     1       2.944  -0.607   2.668  0.00  0.00    +0.094 A 
ATOM     10  N   UNL     1       4.233  -0.182   2.662  0.00  0.00    -0.312 N 
ATOM     11  H   UNL     1       4.561   0.353   3.402  0.00  0.00    +0.170 HD
ATOM     12  C   UNL     1       5.066  -0.488   1.650  0.00  0.00    +0.260 A 
ATOM     13  O   UNL     1       6.221  -0.100   1.660  0.00  0.00    -0.267 OA
ATOM     14  C   UNL     1       4.574  -1.278   0.562  0.00  0.00    +0.080 A 
ATOM     15  C   UNL     1       5.270  -1.736  -0.634  0.00  0.00    +0.004 A 
ATOM     16  C   UNL     1       4.590  -2.482  -1.538  0.00  0.00    +0.056 A 
ATOM     17  S   UNL     1       2.962  -2.612  -0.825  0.00  0.00    -0.076 S 
ATOM     18  C   UNL     1       3.228  -1.671   0.655  0.00  0.00    +0.116 A 
ATOM     19  N   UNL     1       2.467  -1.333   1.693  0.00  0.00    -0.229 NA
BRANCH  15  20
ATOM     20  C   UNL     1       6.694  -1.392  -0.858  0.00  0.00    -0.017 A 
ATOM     21  C   UNL     1       7.123  -0.071  -0.731  0.00  0.00    +0.008 A 
ATOM     22  C   UNL     1       8.450   0.243  -0.939  0.00  0.00    +0.001 A 
ATOM     23  C   UNL     1       9.355  -0.749  -1.274  0.00  0.00    +0.000 A 
ATOM     24  C   UNL     1       8.935  -2.061  -1.401  0.00  0.00    +0.001 A 
ATOM     25  C   UNL     1       7.611  -2.388  -1.190  0.00  0.00    +0.008 A 
ENDBRANCH  15  20
ENDBRANCH   8   9
ENDBRANCH   1   8
BRANCH   1  26
ATOM     26  C   UNL     1      -0.164  -0.461   4.725  0.00  0.00    -0.043 C 
BRANCH  26  27
ATOM     27  C   UNL     1      -1.542  -1.084   4.496  0.00  0.00    +0.135 C 
BRANCH  27  28
ATOM     28  O   UNL     1      -2.219  -0.376   3.456  0.00  0.00    -0.390 OA
ATOM     29  H   UNL     1      -2.358   0.562   3.645  0.00  0.00    +0.210 HD
ENDBRANCH  27  28
BRANCH  27  30
ATOM     30  C   UNL     1      -2.360  -1.000   5.786  0.00  0.00    +0.258 C 
BRANCH  30  31
ATOM     31  O   UNL     1      -3.602  -1.685   5.608  0.00  0.00    -0.489 OA
BRANCH  31  32
ATOM     32  C   UNL     1      -4.453  -1.705   6.668  0.00  0.00    +0.121 A 
ATOM     33  C   UNL     1      -4.102  -1.073   7.852  0.00  0.00    +0.047 A 
ATOM     34  C   UNL     1      -4.968  -1.095   8.928  0.00  0.00    +0.023 A 
ATOM     35  C   UNL     1      -6.185  -1.746   8.825  0.00  0.00    +0.041 A 
ATOM     36  C   UNL     1      -6.536  -2.376   7.645  0.00  0.00    +0.023 A 
ATOM     37  C   UNL     1      -5.676  -2.352   6.564  0.00  0.00    +0.047 A 
ATOM     38 CL   UNL     1      -7.272  -1.772  10.179  0.00  0.00    -0.084 Cl
ENDBRANCH  31  32
ENDBRANCH  30  31
ENDBRANCH  27  30
ENDBRANCH  26  27
ENDBRANCH   1  26
TORSDOF 12
