REMARK  Name = ZINC04767592
REMARK  10 active torsions:
REMARK  status: ('A' for Active; 'I' for Inactive)
REMARK    1  A    between atoms: C_1  and  C_2
REMARK    2  A    between atoms: C_7  and  C_23
REMARK    3  A    between atoms: C_9  and  C_13
REMARK    4  A    between atoms: C_10  and  C_12
REMARK    5  A    between atoms: C_13  and  O_15
REMARK    6  A    between atoms: O_15  and  C_16
REMARK    7  A    between atoms: C_16  and  C_17
REMARK    8  A    between atoms: C_34  and  C_36
REMARK    9  A    between atoms: C_36  and  O_38
REMARK   10  A    between atoms: O_38  and  C_39
REMARK                            x       y       z     vdW  Elec       q    Type
REMARK                         _______ _______ _______ _____ _____    ______ ____
ROOT
ATOM      1  C   UNL     1       2.457   0.222   0.770  0.00  0.00    +0.009 C 
ATOM      2  C   UNL     1       2.637   1.271  -0.329  0.00  0.00    +0.013 C 
ATOM      3  C   UNL     1       3.926   2.059  -0.082  0.00  0.00    +0.055 C 
ATOM      4  C   UNL     1       3.835   2.778   1.241  0.00  0.00    +0.016 C 
ATOM      5  C   UNL     1       2.647   3.200   1.723  0.00  0.00    +0.025 C 
ATOM      6  C   UNL     1       2.564   3.922   3.044  0.00  0.00    +0.092 C 
ATOM      7  C   UNL     1       3.909   4.442   3.459  0.00  0.00    +0.065 C 
ATOM      8  C   UNL     1       5.040   3.969   2.908  0.00  0.00    +0.016 C 
ATOM      9  N   UNL     1       4.988   3.000   1.944  0.00  0.00    -0.321 N 
ATOM     10  C   UNL     1       6.374   4.508   3.356  0.00  0.00    +0.061 C 
ATOM     11  C   UNL     1       1.455   2.979   1.011  0.00  0.00    +0.176 C 
ATOM     12  O   UNL     1       0.404   3.385   1.466  0.00  0.00    -0.291 OA
ATOM     13  C   UNL     1       1.458   2.250  -0.305  0.00  0.00    +0.171 C 
ATOM     14  H   UNL     1       5.884   2.397   1.737  0.00  0.00    +0.152 HD
ENDROOT
BRANCH   6  15
ATOM     15  C   UNL     1       2.056   2.971   4.097  0.00  0.00    -0.032 A 
ATOM     16  C   UNL     1       2.762   1.818   4.383  0.00  0.00    +0.008 A 
ATOM     17  C   UNL     1       2.300   0.942   5.348  0.00  0.00    +0.050 A 
ATOM     18  C   UNL     1       1.126   1.219   6.030  0.00  0.00    +0.166 A 
ATOM     19  C   UNL     1       0.415   2.381   5.742  0.00  0.00    +0.167 A 
ATOM     20  C   UNL     1       0.887   3.257   4.777  0.00  0.00    +0.054 A 
ATOM     21  O   UNL     1      -0.692   2.425   6.540  0.00  0.00    -0.453 OA
ATOM     22  C   UNL     1      -0.436   1.488   7.603  0.00  0.00    +0.466 C 
ATOM     23  O   UNL     1       0.465   0.535   7.009  0.00  0.00    -0.453 OA
ENDBRANCH   6  15
BRANCH   7  24
ATOM     24  C   UNL     1       3.989   5.450   4.448  0.00  0.00    +0.338 C 
ATOM     25  O   UNL     1       3.687   6.596   4.175  0.00  0.00    -0.245 OA
BRANCH  24  26
ATOM     26  O   UNL     1       4.400   5.140   5.696  0.00  0.00    -0.457 OA
BRANCH  26  27
ATOM     27  C   UNL     1       4.457   6.207   6.644  0.00  0.00    +0.268 C 
BRANCH  27  28
ATOM     28  C   UNL     1       4.934   5.675   7.971  0.00  0.00    -0.010 A 
ATOM     29  C   UNL     1       4.020   5.213   8.900  0.00  0.00    +0.007 A 
ATOM     30  C   UNL     1       4.458   4.721  10.115  0.00  0.00    +0.000 A 
ATOM     31  C   UNL     1       5.809   4.699  10.405  0.00  0.00    +0.000 A 
ATOM     32  C   UNL     1       6.723   5.165   9.479  0.00  0.00    +0.000 A 
ATOM     33  C   UNL     1       6.285   5.654   8.262  0.00  0.00    +0.007 A 
ENDBRANCH  27  28
ENDBRANCH  26  27
ENDBRANCH  24  26
ENDBRANCH   7  24
BRANCH  13  34
ATOM     34  C   UNL     1       0.167   1.488  -0.462  0.00  0.00    +0.318 C 
ATOM     35  O   UNL     1       0.186   0.286  -0.590  0.00  0.00    -0.250 OA
BRANCH  34  36
ATOM     36  O   UNL     1      -1.004   2.144  -0.464  0.00  0.00    -0.467 OA
ATOM     37  C   UNL     1      -2.206   1.347  -0.626  0.00  0.00    +0.280 C 
ENDBRANCH  34  36
ENDBRANCH  13  34
TORSDOF 7
