REMARK  Name = ZINC06599744
REMARK  9 active torsions:
REMARK  status: ('A' for Active; 'I' for Inactive)
REMARK    1  A    between atoms: C_1  and  C_2
REMARK    2  A    between atoms: C_2  and  O_3
REMARK    3  A    between atoms: O_3  and  C_4
REMARK    4  A    between atoms: C_4  and  C_6
REMARK    5  A    between atoms: C_10  and  N_11
REMARK    6  A    between atoms: C_12  and  C_14
REMARK    7  A    between atoms: C_17  and  C_28
REMARK    8  A    between atoms: N_19  and  C_22
REMARK    9  A    between atoms: C_30  and  C_34
REMARK                            x       y       z     vdW  Elec       q    Type
REMARK                         _______ _______ _______ _____ _____    ______ ____
ROOT
ATOM      1  N   UNL     1      -5.469   4.545   0.051  0.00  0.00    -0.275 N 
ATOM      2  C   UNL     1      -4.854   3.346   0.042  0.00  0.00    +0.255 C 
ATOM      3  O   UNL     1      -5.514   2.324   0.040  0.00  0.00    -0.269 OA
ATOM      4  H   UNL     1      -4.943   5.360   0.052  0.00  0.00    +0.156 HD
ENDROOT
BRANCH   1   9
ATOM      5  C   UNL     1      -7.660   5.744   0.073  0.00  0.00    +0.091 A 
ATOM      6  C   UNL     1      -9.099   5.540   0.073  0.00  0.00    -0.021 A 
ATOM      7  C   UNL     1      -9.497   4.249   0.069  0.00  0.00    -0.004 A 
ATOM      8  S   UNL     1      -7.995   3.312   0.058  0.00  0.00    -0.077 S 
ATOM      9  C   UNL     1      -6.852   4.614   0.058  0.00  0.00    +0.087 A 
ATOM     10  C   UNL     1     -10.905   3.738   0.075  0.00  0.00    +0.046 C 
ATOM     11  C   UNL     1     -11.838   4.894   0.463  0.00  0.00    -0.009 C 
ATOM     12  C   UNL     1     -11.470   6.125  -0.371  0.00  0.00    +0.008 C 
ATOM     13  C   UNL     1     -10.116   6.674   0.082  0.00  0.00    +0.037 C 
ATOM     14  C   UNL     1     -13.289   4.497   0.184  0.00  0.00    +0.008 C 
BRANCH   5  15
ATOM     15  C   UNL     1      -7.084   7.090   0.084  0.00  0.00    +0.342 C 
ATOM     16  O   UNL     1      -6.850   7.660  -0.965  0.00  0.00    -0.245 OA
BRANCH  15  17
ATOM     17  O   UNL     1      -6.812   7.698   1.257  0.00  0.00    -0.461 OA
BRANCH  17  19
ATOM     18  C   UNL     1      -6.005   9.555   2.609  0.00  0.00    +0.048 C 
ATOM     19  C   UNL     1      -6.242   9.032   1.191  0.00  0.00    +0.229 C 
ENDBRANCH  17  19
ENDBRANCH  15  17
ENDBRANCH   5  15
ENDBRANCH   1   9
BRANCH   2  20
ATOM     20  C   UNL     1      -3.391   3.273   0.034  0.00  0.00    +0.077 A 
ATOM     21  C   UNL     1      -2.593   2.167   0.025  0.00  0.00    +0.032 A 
ATOM     22  C   UNL     1      -1.197   2.318   0.020  0.00  0.00    +0.031 A 
ATOM     23  C   UNL     1      -0.018   1.503   0.010  0.00  0.00    +0.069 A 
ATOM     24  N   UNL     1       1.030   2.270   0.004  0.00  0.00    -0.170 NA
ATOM     25  N   UNL     1       0.626   3.611   0.015  0.00  0.00    -0.225 N 
ATOM     26  C   UNL     1      -0.723   3.638   0.028  0.00  0.00    +0.113 A 
ATOM     27  S   UNL     1      -2.208   4.609   0.047  0.00  0.00    -0.064 S 
ATOM     28  C   UNL     1       0.002  -0.004   0.002  0.00  0.00    +0.068 C 
BRANCH  25  29
ATOM     29  C   UNL     1       1.472   4.727   0.012  0.00  0.00    +0.067 A 
ATOM     30  C   UNL     1       1.105   5.878  -0.673  0.00  0.00    +0.028 A 
ATOM     31  C   UNL     1       1.939   6.979  -0.669  0.00  0.00    +0.002 A 
ATOM     32  C   UNL     1       3.144   6.932   0.007  0.00  0.00    +0.000 A 
ATOM     33  C   UNL     1       3.516   5.785   0.686  0.00  0.00    +0.002 A 
ATOM     34  C   UNL     1       2.683   4.684   0.690  0.00  0.00    +0.028 A 
ENDBRANCH  25  29
ENDBRANCH   2  20
TORSDOF 6
