REMARK  Name = ZINC44586360
REMARK  4 active torsions:
REMARK  status: ('A' for Active; 'I' for Inactive)
REMARK    1  A    between atoms: C_5  and  C_6
REMARK    2  A    between atoms: N_8  and  C_9
REMARK    3  A    between atoms: C_9  and  C_17
REMARK    4  A    between atoms: C_17  and  N_19
REMARK                            x       y       z     vdW  Elec       q    Type
REMARK                         _______ _______ _______ _____ _____    ______ ____
ROOT
ATOM      1  C   UNL     1      -2.136  -3.185  -0.051  0.00  0.00    +0.079 C 
ATOM      2  C   UNL     1      -3.150  -2.951  -1.142  0.00  0.00    +0.032 C 
ATOM      3  C   UNL     1      -2.784  -3.276  -2.578  0.00  0.00    +0.002 C 
ATOM      4  C   UNL     1      -1.469  -2.630  -3.020  0.00  0.00    +0.000 C 
ATOM      5  C   UNL     1      -0.423  -3.740  -3.232  0.00  0.00    +0.000 C 
ATOM      6  C   UNL     1       0.072  -4.263  -1.884  0.00  0.00    +0.000 C 
ATOM      7  C   UNL     1      -1.005  -5.152  -1.266  0.00  0.00    +0.002 C 
ATOM      8  C   UNL     1      -1.558  -4.583   0.023  0.00  0.00    +0.032 C 
ENDROOT
BRANCH   1  11
ATOM      9  C   UNL     1      -0.165  -2.147   0.936  0.00  0.00    +0.266 C 
ATOM     10  O   UNL     1      -0.258  -2.921   1.868  0.00  0.00    -0.268 OA
ATOM     11  N   UNL     1      -1.086  -2.163  -0.047  0.00  0.00    -0.299 N 
ATOM     12  H   UNL     1      -1.054  -1.498  -0.752  0.00  0.00    +0.150 HD
BRANCH   9  17
ATOM     13  C   UNL     1       1.998  -1.058   1.838  0.00  0.00    +0.077 A 
ATOM     14  C   UNL     1       2.825  -0.078   1.429  0.00  0.00    +0.231 A 
ATOM     15  O   UNL     1       2.358   0.409   0.270  0.00  0.00    -0.362 OA
ATOM     16  N   UNL     1       1.180  -0.303  -0.064  0.00  0.00    -0.074 NA
ATOM     17  C   UNL     1       0.963  -1.186   0.881  0.00  0.00    +0.168 A 
ENDBRANCH   9  17
ENDBRANCH   1  11
BRANCH   1  18
ATOM     18  C   UNL     1      -2.888  -2.977   1.276  0.00  0.00    +0.070 C 
ATOM     19  S   UNL     1      -3.044  -4.191   2.305  0.00  0.00    -0.038 S 
BRANCH  18  20
ATOM     20  N   UNL     1      -3.414  -1.772   1.571  0.00  0.00    -0.354 N 
ATOM     21  H   UNL     1      -3.257  -1.017   0.982  0.00  0.00    +0.143 HD
ATOM     22  H   UNL     1      -3.950  -1.660   2.372  0.00  0.00    +0.143 HD
ENDBRANCH  18  20
ENDBRANCH   1  18
TORSDOF 4
