REMARK  Name = ZINC16622169
REMARK  8 active torsions:
REMARK  status: ('A' for Active; 'I' for Inactive)
REMARK    1  A    between atoms: C_1  and  O_2
REMARK    2  A    between atoms: O_2  and  C_3
REMARK    3  A    between atoms: C_8  and  C_9
REMARK    4  A    between atoms: C_12  and  S_15
REMARK    5  A    between atoms: N_13  and  N_14
REMARK    6  A    between atoms: S_15  and  C_16
REMARK    7  A    between atoms: C_16  and  C_17
REMARK    8  A    between atoms: C_19  and  C_22
REMARK                            x       y       z     vdW  Elec       q    Type
REMARK                         _______ _______ _______ _____ _____    ______ ____
ROOT
ATOM      1  C   UNL     1       1.258  -2.159  -0.021  0.00  0.00    +0.185 A 
ATOM      2  N   UNL     1       0.219  -2.962  -0.015  0.00  0.00    -0.127 NA
ATOM      3  N   UNL     1       0.610  -4.186  -0.026  0.00  0.00    -0.121 NA
ATOM      4  C   UNL     1       1.923  -4.241  -0.039  0.00  0.00    +0.209 A 
ATOM      5  N   UNL     1       2.382  -2.954  -0.042  0.00  0.00    -0.224 N 
ENDROOT
BRANCH   1  11
ATOM      6  C   UNL     1       0.002  -0.004   0.002  0.00  0.00    +0.131 A 
ATOM      7  C   UNL     1      -0.017   1.381   0.010  0.00  0.00    +0.046 A 
ATOM      8  C   UNL     1       1.170   2.090   0.002  0.00  0.00    +0.004 A 
ATOM      9  C   UNL     1       2.383   1.424  -0.013  0.00  0.00    +0.001 A 
ATOM     10  C   UNL     1       2.418   0.045  -0.021  0.00  0.00    +0.015 A 
ATOM     11  C   UNL     1       1.227  -0.682  -0.013  0.00  0.00    +0.062 A 
BRANCH   6  13
ATOM     12  C   UNL     1      -2.374   0.057   0.026  0.00  0.00    +0.277 C 
ATOM     13  O   UNL     1      -1.163  -0.702   0.010  0.00  0.00    -0.494 OA
ENDBRANCH   6  13
ENDBRANCH   1  11
BRANCH   5  14
ATOM     14  N   UNL     1       3.684  -2.541  -0.059  0.00  0.00    -0.295 N 
ATOM     15  H   UNL     1       4.042  -2.437   0.879  0.00  0.00    +0.163 HD
ATOM     16  H   UNL     1       4.256  -3.174  -0.597  0.00  0.00    +0.163 HD
ENDBRANCH   5  14
BRANCH   4  17
ATOM     17  S   UNL     1       2.908  -5.701  -0.057  0.00  0.00    -0.075 S 
BRANCH  17  18
ATOM     18  C   UNL     1       1.606  -6.959  -0.050  0.00  0.00    +0.176 C 
BRANCH  18  19
ATOM     19  C   UNL     1       2.232  -8.330  -0.064  0.00  0.00    +0.238 A 
ATOM     20  N   UNL     1       2.566  -9.043   0.983  0.00  0.00    -0.191 NA
ATOM     21  C   UNL     1       3.085 -10.190   0.490  0.00  0.00    +0.202 A 
ATOM     22  N   UNL     1       3.036 -10.107  -0.814  0.00  0.00    -0.056 NA
ATOM     23  O   UNL     1       2.545  -9.049  -1.146  0.00  0.00    -0.337 OA
BRANCH  21  24
ATOM     24  C   UNL     1       3.610 -11.331   1.281  0.00  0.00    +0.023 A 
ATOM     25  C   UNL     1       4.118 -12.455   0.634  0.00  0.00    +0.012 A 
ATOM     26  C   UNL     1       4.606 -13.513   1.374  0.00  0.00    +0.002 A 
ATOM     27  C   UNL     1       4.593 -13.458   2.756  0.00  0.00    +0.015 A 
ATOM     28  C   UNL     1       4.090 -12.344   3.404  0.00  0.00    +0.019 A 
ATOM     29  C   UNL     1       3.603 -11.278   2.673  0.00  0.00    +0.027 A 
ATOM     30 BR   UNL     1       4.075 -12.277   5.294  0.00  0.00    -0.050 Br
ENDBRANCH  21  24
ENDBRANCH  18  19
ENDBRANCH  17  18
ENDBRANCH   4  17
TORSDOF 7
