REMARK  Name = ZINC59432873
REMARK  8 active torsions:
REMARK  status: ('A' for Active; 'I' for Inactive)
REMARK    1  A    between atoms: C_1  and  C_2
REMARK    2  A    between atoms: C_5  and  N_8
REMARK    3  A    between atoms: C_9  and  C_11
REMARK    4  A    between atoms: C_11  and  C_23
REMARK    5  A    between atoms: C_12  and  C_13
REMARK    6  A    between atoms: C_16  and  N_20
REMARK    7  A    between atoms: N_20  and  C_21
REMARK    8  A    between atoms: N_20  and  C_22
REMARK                            x       y       z     vdW  Elec       q    Type
REMARK                         _______ _______ _______ _____ _____    ______ ____
ROOT
ATOM      1  C   UNL     1       0.258  -6.321   1.123  0.00  0.00    +0.114 C 
ATOM      2  C   UNL     1       0.426  -7.007   2.307  0.00  0.00    +0.032 C 
ENDROOT
BRANCH   2   3
ATOM      3  C   UNL     1       0.666  -8.450   2.288  0.00  0.00    -0.022 A 
ATOM      4  C   UNL     1       0.276  -9.243   3.379  0.00  0.00    +0.010 A 
ATOM      5  C   UNL     1       0.501 -10.589   3.356  0.00  0.00    +0.025 A 
ATOM      6  C   UNL     1       1.117 -11.177   2.253  0.00  0.00    +0.043 A 
ATOM      7  C   UNL     1       1.507 -10.394   1.168  0.00  0.00    +0.039 A 
ATOM      8  C   UNL     1       1.281  -9.047   1.178  0.00  0.00    +0.025 A 
ATOM      9 BR   UNL     1       2.343 -11.200  -0.325  0.00  0.00    -0.048 Br
BRANCH   6  10
ATOM     10  N   UNL     1       1.344 -12.547   2.236  0.00  0.00    -0.335 N 
ATOM     11  C   UNL     1       0.329 -13.451   1.690  0.00  0.00    +0.129 C 
ATOM     12  C   UNL     1       2.599 -13.089   2.764  0.00  0.00    +0.129 C 
ENDBRANCH   6  10
ENDBRANCH   2   3
BRANCH   1  14
ATOM     13  N   UNL     1       0.035  -4.180  -0.031  0.00  0.00    -0.281 N 
ATOM     14  C   UNL     1       0.200  -4.851   1.127  0.00  0.00    +0.259 C 
ATOM     15  O   UNL     1       0.301  -4.241   2.174  0.00  0.00    -0.269 OA
ATOM     16  H   UNL     1      -0.121  -4.667  -0.855  0.00  0.00    +0.155 HD
BRANCH  13  21
ATOM     17  C   UNL     1       0.257   1.488  -0.080  0.00  0.00    +0.044 C 
ATOM     18  C   UNL     1       0.198  -0.018  -0.067  0.00  0.00    -0.050 A 
ATOM     19  C   UNL     1      -0.541  -0.688  -1.024  0.00  0.00    +0.005 A 
ATOM     20  C   UNL     1      -0.597  -2.068  -1.016  0.00  0.00    +0.023 A 
ATOM     21  C   UNL     1       0.090  -2.783  -0.043  0.00  0.00    +0.034 A 
ATOM     22  C   UNL     1       0.831  -2.107   0.918  0.00  0.00    +0.023 A 
ATOM     23  C   UNL     1       0.887  -0.727   0.900  0.00  0.00    +0.005 A 
ENDBRANCH  13  21
ENDBRANCH   1  14
BRANCH   1  24
ATOM     24  C   UNL     1       0.139  -7.039  -0.110  0.00  0.00    +0.104 C 
ATOM     25  N   UNL     1       0.044  -7.609  -1.089  0.00  0.00    -0.191 NA
ENDBRANCH   1  24
TORSDOF 5
