REMARK  Name = ZINC15319845
REMARK  4 active torsions:
REMARK  status: ('A' for Active; 'I' for Inactive)
REMARK    1  A    between atoms: C_1  and  C_2
REMARK    2  A    between atoms: N_10  and  C_13
REMARK    3  A    between atoms: N_27  and  C_30
REMARK    4  A    between atoms: C_30  and  C_31
REMARK                            x       y       z     vdW  Elec       q    Type
REMARK                         _______ _______ _______ _____ _____    ______ ____
ROOT
ATOM      1  C   UNL     1      -0.551   1.734   0.012  0.00  0.00    +0.025 C 
ATOM      2  C   UNL     1      -0.283   0.231  -0.088  0.00  0.00    +0.064 C 
ATOM      3  C   UNL     1      -1.595  -0.562   0.098  0.00  0.00    +0.107 C 
ATOM      4  C   UNL     1      -1.185  -1.825   0.904  0.00  0.00    +0.123 C 
ATOM      5  C   UNL     1      -1.422  -2.954  -0.073  0.00  0.00    +0.233 C 
ATOM      6  O   UNL     1      -1.220  -4.129   0.151  0.00  0.00    -0.274 OA
ATOM      7  N   UNL     1      -1.888  -2.456  -1.224  0.00  0.00    -0.210 N 
ATOM      8  C   UNL     1      -2.035  -1.111  -1.241  0.00  0.00    +0.232 C 
ATOM      9  O   UNL     1      -2.446  -0.448  -2.169  0.00  0.00    -0.274 OA
ATOM     10  C   UNL     1       0.316  -1.650   1.163  0.00  0.00    +0.136 C 
ATOM     11  N   UNL     1       0.594  -0.213   1.028  0.00  0.00    -0.296 NA
ATOM     12  C   UNL     1       0.707  -2.177   2.514  0.00  0.00    +0.004 A 
ATOM     13  C   UNL     1       0.317  -1.873   3.799  0.00  0.00    +0.008 A 
ATOM     14  C   UNL     1       0.872  -2.549   4.870  0.00  0.00    +0.000 A 
ATOM     15  C   UNL     1       1.820  -3.531   4.647  0.00  0.00    +0.002 A 
ATOM     16  C   UNL     1       2.215  -3.839   3.362  0.00  0.00    +0.024 A 
ATOM     17  C   UNL     1       1.660  -3.163   2.278  0.00  0.00    +0.043 A 
ATOM     18  N   UNL     1       1.891  -3.292   0.906  0.00  0.00    -0.258 N 
ATOM     19  C   UNL     1       1.140  -2.440   0.182  0.00  0.00    +0.246 C 
ATOM     20  O   UNL     1       1.131  -2.330  -1.025  0.00  0.00    -0.273 OA
ATOM     21  H   UNL     1       1.565  -0.045   0.813  0.00  0.00    +0.123 HD
ENDROOT
BRANCH   7  22
ATOM     22  C   UNL     1      -2.207  -3.263  -2.325  0.00  0.00    +0.044 A 
ATOM     23  C   UNL     1      -1.451  -3.185  -3.487  0.00  0.00    +0.024 A 
ATOM     24  C   UNL     1      -1.767  -3.981  -4.570  0.00  0.00    +0.002 A 
ATOM     25  C   UNL     1      -2.837  -4.854  -4.499  0.00  0.00    +0.000 A 
ATOM     26  C   UNL     1      -3.592  -4.934  -3.344  0.00  0.00    +0.002 A 
ATOM     27  C   UNL     1      -3.277  -4.145  -2.255  0.00  0.00    +0.024 A 
ENDBRANCH   7  22
BRANCH  18  28
ATOM     28  C   UNL     1       2.839  -4.244   0.323  0.00  0.00    +0.202 C 
BRANCH  28  29
ATOM     29  C   UNL     1       2.151  -5.516   0.047  0.00  0.00    -0.086 C 
ATOM     30  C   UNL     1       1.602  -6.530  -0.172  0.00  0.00    +0.005 C 
ENDBRANCH  28  29
ENDBRANCH  18  28
TORSDOF 3
