REMARK  Name = ZINC13280569
REMARK  8 active torsions:
REMARK  status: ('A' for Active; 'I' for Inactive)
REMARK    1  A    between atoms: C_2  and  N_15
REMARK    2  A    between atoms: C_3  and  N_12
REMARK    3  A    between atoms: C_16  and  C_18
REMARK    4  A    between atoms: C_18  and  S_19
REMARK    5  A    between atoms: S_19  and  C_20
REMARK    6  A    between atoms: C_24  and  C_27
REMARK    7  A    between atoms: C_27  and  C_28
REMARK    8  A    between atoms: C_28  and  C_29
REMARK                            x       y       z     vdW  Elec       q    Type
REMARK                         _______ _______ _______ _____ _____    ______ ____
ROOT
ATOM      1  N   UNL     1       1.173   3.292  -0.007  0.00  0.00    -0.283 N 
ATOM      2  C   UNL     1      -0.022   3.901  -0.136  0.00  0.00    +0.228 C 
ATOM      3  O   UNL     1      -1.040   3.242  -0.159  0.00  0.00    -0.275 OA
ATOM      4  H   UNL     1       1.980   3.821   0.093  0.00  0.00    +0.155 HD
ENDROOT
BRANCH   1   6
ATOM      5  C   UNL     1       0.268   1.148  -0.659  0.00  0.00    +0.075 A 
ATOM      6  C   UNL     1       1.251   1.893  -0.018  0.00  0.00    +0.068 A 
ATOM      7  C   UNL     1       2.309   1.252   0.611  0.00  0.00    +0.151 A 
ATOM      8  C   UNL     1       2.389  -0.129   0.603  0.00  0.00    +0.084 A 
ATOM      9  C   UNL     1       1.409  -0.871  -0.035  0.00  0.00    +0.164 A 
ATOM     10  C   UNL     1       0.350  -0.233  -0.666  0.00  0.00    +0.164 A 
ATOM     11  O   UNL     1      -0.609  -0.976  -1.290  0.00  0.00    -0.488 OA
ATOM     12  C   UNL     1      -0.192  -1.673  -2.466  0.00  0.00    +0.232 C 
ATOM     13  C   UNL     1       0.446  -3.006  -2.106  0.00  0.00    +0.082 C 
ATOM     14  C   UNL     1       1.736  -2.835  -1.319  0.00  0.00    +0.232 C 
ATOM     15  O   UNL     1       1.479  -2.235  -0.047  0.00  0.00    -0.488 OA
BRANCH   7  16
ATOM     16  N   UNL     1       3.355   2.048   1.292  0.00  0.00    +0.058 N 
ATOM     17  O   UNL     1       4.326   1.499   1.757  0.00  0.00    -0.126 OA
ATOM     18  O   UNL     1       3.237   3.248   1.384  0.00  0.00    -0.126 OA
ENDBRANCH   7  16
ENDBRANCH   1   6
BRANCH   2  19
ATOM     19  C   UNL     1      -0.093   5.402  -0.252  0.00  0.00    +0.173 C 
BRANCH  19  20
ATOM     20  S   UNL     1      -1.826   5.915  -0.411  0.00  0.00    -0.075 S 
BRANCH  20  21
ATOM     21  C   UNL     1      -1.742   7.670  -0.535  0.00  0.00    +0.213 A 
ATOM     22  N   UNL     1      -2.860   8.373  -0.665  0.00  0.00    -0.180 NA
ATOM     23  C   UNL     1      -2.790   9.697  -0.758  0.00  0.00    +0.296 A 
ATOM     24  O   UNL     1      -3.915  10.441  -0.891  0.00  0.00    -0.264 OA
ATOM     25  C   UNL     1      -1.536  10.306  -0.715  0.00  0.00    +0.130 A 
ATOM     26  N   UNL     1      -0.459   9.555  -0.584  0.00  0.00    -0.146 NA
ATOM     27  N   UNL     1      -0.561   8.275  -0.491  0.00  0.00    -0.122 NA
BRANCH  25  28
ATOM     28  C   UNL     1      -1.412  11.805  -0.817  0.00  0.00    +0.074 C 
BRANCH  28  29
ATOM     29  C   UNL     1      -1.471  12.418   0.584  0.00  0.00    +0.131 C 
BRANCH  29  30
ATOM     30  C   UNL     1      -1.347  13.917   0.481  0.00  0.00    +0.356 C 
ATOM     31  O   UNL     1      -1.224  14.445  -0.610  0.00  0.00    -0.246 OA
ATOM     32  O   UNL     1      -1.371  14.601   1.490  0.00  0.00    -0.246 OA
ENDBRANCH  29  30
ENDBRANCH  28  29
ENDBRANCH  25  28
ENDBRANCH  20  21
ENDBRANCH  19  20
ENDBRANCH   2  19
TORSDOF 8
