REMARK  Name = ZINC13951660
REMARK  8 active torsions:
REMARK  status: ('A' for Active; 'I' for Inactive)
REMARK    1  A    between atoms: C_4  and  C_7
REMARK    2  A    between atoms: C_7  and  S_8
REMARK    3  A    between atoms: S_8  and  N_11
REMARK    4  A    between atoms: N_11  and  C_12
REMARK    5  A    between atoms: C_12  and  C_13
REMARK    6  A    between atoms: C_13  and  O_14
REMARK    7  A    between atoms: O_14  and  C_15
REMARK    8  A    between atoms: C_21  and  C_24
REMARK                            x       y       z     vdW  Elec       q    Type
REMARK                         _______ _______ _______ _____ _____    ______ ____
ROOT
ATOM      1  C   UNL     1       0.709  -1.824   1.356  0.00  0.00    +0.233 A 
ATOM      2  C   UNL     1       1.275  -2.351   2.531  0.00  0.00    +0.072 A 
ATOM      3  C   UNL     1       1.366  -3.698   2.701  0.00  0.00    +0.055 A 
ATOM      4  C   UNL     1       0.887  -4.549   1.688  0.00  0.00    +0.179 A 
ATOM      5  N   UNL     1       0.831  -5.866   1.551  0.00  0.00    -0.128 NA
ATOM      6  N   UNL     1       0.292  -6.160   0.420  0.00  0.00    -0.127 NA
ATOM      7  C   UNL     1      -0.027  -5.056  -0.230  0.00  0.00    +0.187 A 
ATOM      8  N   UNL     1       0.341  -4.003   0.554  0.00  0.00    -0.189 N 
ATOM      9  N   UNL     1       0.258  -2.616   0.414  0.00  0.00    -0.125 NA
ENDROOT
BRANCH   7  10
ATOM     10  C   UNL     1      -0.664  -4.977  -1.561  0.00  0.00    +0.039 A 
ATOM     11  C   UNL     1      -1.050  -3.740  -2.081  0.00  0.00    +0.013 A 
ATOM     12  C   UNL     1      -1.644  -3.673  -3.325  0.00  0.00    +0.001 A 
ATOM     13  C   UNL     1      -1.858  -4.827  -4.056  0.00  0.00    +0.001 A 
ATOM     14  C   UNL     1      -1.480  -6.057  -3.547  0.00  0.00    +0.021 A 
ATOM     15  C   UNL     1      -0.879  -6.138  -2.307  0.00  0.00    +0.052 A 
ATOM     16 CL   UNL     1      -0.397  -7.681  -1.673  0.00  0.00    -0.083 Cl
ENDBRANCH   7  10
BRANCH   1  17
ATOM     17  O   UNL     1       0.624  -0.479   1.198  0.00  0.00    -0.474 OA
BRANCH  17  18
ATOM     18  C   UNL     1       0.040  -0.004  -0.016  0.00  0.00    +0.247 C 
BRANCH  18  19
ATOM     19  C   UNL     1       0.031   1.526  -0.013  0.00  0.00    +0.146 C 
BRANCH  19  20
ATOM     20  N   UNL     1       1.409   2.023  -0.026  0.00  0.00    -0.191 NA
ATOM     21  H   UNL     1       2.142   1.424   0.183  0.00  0.00    +0.148 HD
BRANCH  20  22
ATOM     22  S   UNL     1       1.714   3.608  -0.397  0.00  0.00    +0.034 S 
ATOM     23  O   UNL     1       3.129   3.728  -0.339  0.00  0.00    -0.158 OA
ATOM     24  O   UNL     1       1.018   3.836  -1.615  0.00  0.00    -0.158 OA
BRANCH  22  25
ATOM     25  C   UNL     1       0.951   4.557   0.946  0.00  0.00    +0.220 C 
BRANCH  25  29
ATOM     26  C   UNL     1       1.571   8.730   0.274  0.00  0.00    +0.000 A 
ATOM     27  C   UNL     1       0.447   8.107  -0.236  0.00  0.00    +0.000 A 
ATOM     28  C   UNL     1       0.246   6.756  -0.019  0.00  0.00    +0.005 A 
ATOM     29  C   UNL     1       1.169   6.029   0.709  0.00  0.00    -0.025 A 
ATOM     30  C   UNL     1       2.290   6.653   1.224  0.00  0.00    +0.005 A 
ATOM     31  C   UNL     1       2.494   8.002   1.002  0.00  0.00    +0.000 A 
ENDBRANCH  25  29
ENDBRANCH  22  25
ENDBRANCH  20  22
ENDBRANCH  19  20
ENDBRANCH  18  19
ENDBRANCH  17  18
ENDBRANCH   1  17
TORSDOF 8
