REMARK  Name = ZINC38671092
REMARK  8 active torsions:
REMARK  status: ('A' for Active; 'I' for Inactive)
REMARK    1  A    between atoms: C_1  and  N_2
REMARK    2  A    between atoms: C_10  and  C_12
REMARK    3  A    between atoms: C_12  and  C_14
REMARK    4  A    between atoms: C_12  and  N_33
REMARK    5  A    between atoms: C_14  and  N_15
REMARK    6  A    between atoms: C_16  and  C_18
REMARK    7  A    between atoms: C_21  and  S_24
REMARK    8  A    between atoms: S_24  and  N_27
REMARK                            x       y       z     vdW  Elec       q    Type
REMARK                         _______ _______ _______ _____ _____    ______ ____
ROOT
ATOM      1  C   UNL     1       5.861  -2.547   0.750  0.00  0.00    +0.094 C 
ENDROOT
BRANCH   1   2
ATOM      2  N   UNL     1       5.276  -3.241   1.900  0.00  0.00    -0.313 N 
ATOM      3  C   UNL     1       5.947  -3.294   3.068  0.00  0.00    +0.244 C 
ATOM      4  O   UNL     1       7.038  -2.766   3.167  0.00  0.00    -0.270 OA
ATOM      5  H   UNL     1       4.406  -3.662   1.821  0.00  0.00    +0.149 HD
BRANCH   3   6
ATOM      6  C   UNL     1       5.358  -3.994   4.229  0.00  0.00    +0.037 A 
ATOM      7  C   UNL     1       4.108  -4.607   4.117  0.00  0.00    +0.015 A 
ATOM      8  C   UNL     1       3.564  -5.259   5.204  0.00  0.00    +0.029 A 
ATOM      9  C   UNL     1       4.253  -5.307   6.402  0.00  0.00    +0.106 A 
ATOM     10  C   UNL     1       5.491  -4.702   6.520  0.00  0.00    +0.029 A 
ATOM     11  C   UNL     1       6.050  -4.051   5.439  0.00  0.00    +0.015 A 
BRANCH   9  12
ATOM     12  S   UNL     1       3.550  -6.142   7.785  0.00  0.00    +0.061 S 
ATOM     13  O   UNL     1       4.145  -5.577   8.946  0.00  0.00    -0.153 OA
ATOM     14  O   UNL     1       2.144  -6.156   7.580  0.00  0.00    -0.153 OA
BRANCH  12  15
ATOM     15  N   UNL     1       4.054  -7.718   7.714  0.00  0.00    -0.172 NA
ATOM     16  C   UNL     1       3.275  -8.730   6.985  0.00  0.00    +0.137 C 
ATOM     17  C   UNL     1       4.220  -9.479   6.039  0.00  0.00    +0.177 C 
ATOM     18  O   UNL     1       5.346  -9.957   6.779  0.00  0.00    -0.377 OA
ATOM     19  C   UNL     1       6.142  -8.924   7.364  0.00  0.00    +0.177 C 
ATOM     20  C   UNL     1       5.298  -8.145   8.374  0.00  0.00    +0.137 C 
ENDBRANCH  12  15
ENDBRANCH   9  12
ENDBRANCH   3   6
ENDBRANCH   1   2
BRANCH   1  21
ATOM     21  C   UNL     1       4.957  -2.731  -0.470  0.00  0.00    -0.020 C 
BRANCH  21  31
ATOM     22  C   UNL     1      -0.115   1.226   0.628  0.00  0.00    +0.129 C 
ATOM     23  N   UNL     1      -0.042  -0.231   0.499  0.00  0.00    -0.333 N 
ATOM     24  C   UNL     1      -1.255  -1.052   0.612  0.00  0.00    +0.105 C 
ATOM     25  C   UNL     1      -0.927  -2.254   1.508  0.00  0.00    +0.024 C 
ATOM     26  C   UNL     1       0.149  -3.098   0.826  0.00  0.00    +0.038 C 
ATOM     27  C   UNL     1       1.315  -2.236   0.416  0.00  0.00    -0.026 A 
ATOM     28  C   UNL     1       1.183  -0.864   0.261  0.00  0.00    +0.033 A 
ATOM     29  C   UNL     1       2.276  -0.098  -0.128  0.00  0.00    +0.023 A 
ATOM     30  C   UNL     1       3.495  -0.703  -0.364  0.00  0.00    +0.004 A 
ATOM     31  C   UNL     1       3.626  -2.071  -0.213  0.00  0.00    -0.059 A 
ATOM     32  C   UNL     1       2.542  -2.835   0.184  0.00  0.00    +0.007 A 
ENDBRANCH  21  31
BRANCH  21  33
ATOM     33  N   UNL     1       5.589  -2.117  -1.645  0.00  0.00    +0.385 N 
ATOM     34  C   UNL     1       4.697  -2.247  -2.803  0.00  0.00    -0.078 C 
ATOM     35  C   UNL     1       5.315  -1.538  -4.011  0.00  0.00    -0.019 C 
ATOM     36  C   UNL     1       6.668  -2.178  -4.333  0.00  0.00    -0.004 C 
ATOM     37  C   UNL     1       7.565  -2.103  -3.094  0.00  0.00    -0.019 C 
ATOM     38  C   UNL     1       6.864  -2.791  -1.921  0.00  0.00    -0.078 C 
ATOM     39  H   UNL     1       5.759  -1.139  -1.462  0.00  0.00    -0.081 HD
ENDBRANCH  21  33
ENDBRANCH   1  21
TORSDOF 7
