REMARK  Name = ZINC01091687
REMARK  6 active torsions:
REMARK  status: ('A' for Active; 'I' for Inactive)
REMARK    1  A    between atoms: C_1  and  C_2
REMARK    2  A    between atoms: C_6  and  N_8
REMARK    3  A    between atoms: C_17  and  C_31
REMARK    4  A    between atoms: N_33  and  C_34
REMARK    5  A    between atoms: C_36  and  C_41
REMARK    6  A    between atoms: C_38  and  C_40
REMARK                            x       y       z     vdW  Elec       q    Type
REMARK                         _______ _______ _______ _____ _____    ______ ____
ROOT
ATOM      1  N   UNL     1       0.697  -2.735   2.289  0.00  0.00    -0.210 N 
ATOM      2  C   UNL     1       0.568  -2.128   3.506  0.00  0.00    +0.231 C 
ATOM      3  O   UNL     1       0.840  -0.979   3.781  0.00  0.00    -0.274 OA
ATOM      4  C   UNL     1       0.013  -3.191   4.448  0.00  0.00    +0.101 C 
ATOM      5  C   UNL     1       0.782  -4.362   3.777  0.00  0.00    +0.112 C 
ATOM      6  C   UNL     1       0.615  -4.110   2.352  0.00  0.00    +0.232 C 
ATOM      7  O   UNL     1       0.449  -4.904   1.451  0.00  0.00    -0.274 OA
ATOM      8  C   UNL     1       0.962  -5.585   4.623  0.00  0.00    +0.109 C 
ATOM      9  C   UNL     1       2.198  -5.032   5.391  0.00  0.00    -0.024 A 
ATOM     10  C   UNL     1       3.359  -5.719   5.551  0.00  0.00    +0.005 A 
ATOM     11  C   UNL     1       4.417  -5.080   6.191  0.00  0.00    +0.000 A 
ATOM     12  C   UNL     1       4.269  -3.779   6.633  0.00  0.00    +0.000 A 
ATOM     13  C   UNL     1       3.068  -3.104   6.484  0.00  0.00    +0.004 A 
ATOM     14  C   UNL     1       2.009  -3.751   5.889  0.00  0.00    -0.035 A 
ATOM     15  C   UNL     1       0.602  -3.142   5.889  0.00  0.00    +0.062 C 
ATOM     16  C   UNL     1      -0.212  -4.325   6.457  0.00  0.00    -0.035 A 
ATOM     17  C   UNL     1      -0.069  -5.536   5.768  0.00  0.00    -0.024 A 
ATOM     18  C   UNL     1      -0.809  -6.633   6.127  0.00  0.00    +0.005 A 
ATOM     19  C   UNL     1      -1.679  -6.528   7.205  0.00  0.00    +0.000 A 
ATOM     20  C   UNL     1      -1.794  -5.342   7.905  0.00  0.00    +0.000 A 
ATOM     21  C   UNL     1      -1.049  -4.214   7.529  0.00  0.00    +0.004 A 
ENDROOT
BRANCH   1  27
ATOM     22  C   UNL     1       1.224   1.555  -0.057  0.00  0.00    +0.044 C 
ATOM     23  C   UNL     1       1.146   0.051  -0.072  0.00  0.00    -0.049 A 
ATOM     24  C   UNL     1       1.262  -0.635  -1.267  0.00  0.00    +0.003 A 
ATOM     25  C   UNL     1       1.190  -2.016  -1.285  0.00  0.00    +0.002 A 
ATOM     26  C   UNL     1       1.003  -2.715  -0.108  0.00  0.00    +0.024 A 
ATOM     27  C   UNL     1       0.887  -2.029   1.093  0.00  0.00    +0.044 A 
ATOM     28  C   UNL     1       0.965  -0.643   1.109  0.00  0.00    +0.027 A 
ENDBRANCH   1  27
BRANCH   8  29
ATOM     29  C   UNL     1       1.092  -6.898   3.894  0.00  0.00    +0.233 C 
ATOM     30  O   UNL     1       1.049  -6.926   2.683  0.00  0.00    -0.274 OA
ATOM     31  N   UNL     1       1.256  -8.041   4.589  0.00  0.00    -0.284 N 
ATOM     32  H   UNL     1       1.368  -8.011   5.552  0.00  0.00    +0.155 HD
BRANCH  31  33
ATOM     33  C   UNL     1       1.267  -9.270   3.921  0.00  0.00    +0.034 A 
ATOM     34  C   UNL     1       2.058 -10.310   4.391  0.00  0.00    +0.026 A 
ATOM     35  C   UNL     1       2.066 -11.523   3.729  0.00  0.00    -0.048 A 
ATOM     36  C   UNL     1       1.286 -11.701   2.601  0.00  0.00    +0.006 A 
ATOM     37  C   UNL     1       0.498 -10.668   2.131  0.00  0.00    -0.048 A 
ATOM     38  C   UNL     1       0.481  -9.455   2.791  0.00  0.00    +0.026 A 
ATOM     39  C   UNL     1      -0.349 -10.866   0.900  0.00  0.00    +0.044 C 
ATOM     40  C   UNL     1       2.925 -12.652   4.237  0.00  0.00    +0.044 C 
ENDBRANCH  31  33
ENDBRANCH   8  29
TORSDOF 3
