REMARK  Name = ZINC63409314
REMARK  5 active torsions:
REMARK  status: ('A' for Active; 'I' for Inactive)
REMARK    1  A    between atoms: C_4  and  C_7
REMARK    2  A    between atoms: C_10  and  N_30
REMARK    3  A    between atoms: C_15  and  C_17
REMARK    4  A    between atoms: N_19  and  N_20
REMARK    5  A    between atoms: C_21  and  C_22
REMARK                            x       y       z     vdW  Elec       q    Type
REMARK                         _______ _______ _______ _____ _____    ______ ____
ROOT
ATOM      1  C   UNL     1       3.701  -0.666  -0.024  0.00  0.00    -0.000 C 
ATOM      2  C   UNL     1       4.970  -0.122  -0.125  0.00  0.00    +0.006 A 
ATOM      3  C   UNL     1       5.434   1.213  -0.229  0.00  0.00    +0.043 A 
ATOM      4  C   UNL     1       6.763   1.457  -0.317  0.00  0.00    +0.127 A 
ATOM      5  C   UNL     1       7.703   0.419  -0.309  0.00  0.00    +0.035 A 
ATOM      6  C   UNL     1       7.335  -0.879  -0.212  0.00  0.00    +0.028 A 
ATOM      7  C   UNL     1       5.958  -1.218  -0.116  0.00  0.00    +0.044 A 
ATOM      8  N   UNL     1       5.352  -2.380  -0.014  0.00  0.00    -0.370 N 
ATOM      9  C   UNL     1       3.904  -2.163   0.059  0.00  0.00    +0.199 C 
ATOM     10  H   UNL     1       5.793  -3.244   0.011  0.00  0.00    +0.161 HD
ENDROOT
BRANCH   1  14
ATOM     11  C   UNL     1       0.020   1.426   0.058  0.00  0.00    +0.000 A 
ATOM     12  C   UNL     1       1.139   1.980   0.657  0.00  0.00    +0.001 A 
ATOM     13  C   UNL     1       2.341   1.306   0.636  0.00  0.00    +0.008 A 
ATOM     14  C   UNL     1       2.429   0.057   0.005  0.00  0.00    -0.019 A 
ATOM     15  C   UNL     1       1.290  -0.495  -0.599  0.00  0.00    +0.008 A 
ATOM     16  C   UNL     1       0.097   0.193  -0.568  0.00  0.00    +0.001 A 
ENDBRANCH   1  14
BRANCH   9  17
ATOM     17  C   UNL     1       3.362  -2.689   1.363  0.00  0.00    +0.259 C 
ATOM     18  O   UNL     1       4.101  -2.823   2.317  0.00  0.00    -0.271 OA
ATOM     19  N   UNL     1       2.058  -3.010   1.471  0.00  0.00    -0.205 N 
ATOM     20  H   UNL     1       1.484  -2.975   0.690  0.00  0.00    +0.177 HD
BRANCH  19  21
ATOM     21  N   UNL     1       1.531  -3.395   2.711  0.00  0.00    -0.188 NA
ATOM     22  C   UNL     1       0.275  -3.704   2.815  0.00  0.00    +0.139 C 
BRANCH  22  23
ATOM     23  C   UNL     1      -0.279  -4.109   4.120  0.00  0.00    +0.014 A 
ATOM     24  C   UNL     1      -1.629  -4.448   4.234  0.00  0.00    +0.011 A 
ATOM     25  C   UNL     1      -2.142  -4.826   5.458  0.00  0.00    +0.002 A 
ATOM     26  C   UNL     1      -1.322  -4.869   6.572  0.00  0.00    +0.021 A 
ATOM     27  C   UNL     1       0.017  -4.535   6.468  0.00  0.00    +0.060 A 
ATOM     28  C   UNL     1       0.545  -4.160   5.247  0.00  0.00    +0.068 A 
ATOM     29 CL   UNL     1       2.227  -3.748   5.116  0.00  0.00    -0.081 Cl
ATOM     30 CL   UNL     1       1.036  -4.592   7.873  0.00  0.00    -0.082 Cl
ENDBRANCH  22  23
ENDBRANCH  19  21
ENDBRANCH   9  17
BRANCH   4  31
ATOM     31  N   UNL     1       7.235   2.857  -0.425  0.00  0.00    +0.056 N 
ATOM     32  O   UNL     1       6.436   3.764  -0.434  0.00  0.00    -0.126 OA
ATOM     33  O   UNL     1       8.418   3.092  -0.504  0.00  0.00    -0.126 OA
ENDBRANCH   4  31
TORSDOF 5
