REMARK  Name = ZINC04380027
REMARK  4 active torsions:
REMARK  status: ('A' for Active; 'I' for Inactive)
REMARK    1  A    between atoms: C_4  and  C_7
REMARK    2  A    between atoms: C_9  and  C_14
REMARK    3  A    between atoms: N_16  and  C_17
REMARK    4  A    between atoms: C_22  and  N_23
REMARK                            x       y       z     vdW  Elec       q    Type
REMARK                         _______ _______ _______ _____ _____    ______ ____
ROOT
ATOM      1  C   UNL     1       2.615   3.470  -2.131  0.00  0.00    +0.224 C 
ATOM      2  O   UNL     1       2.573   2.261  -2.047  0.00  0.00    -0.275 OA
ATOM      3  N   UNL     1       3.304   4.053  -3.133  0.00  0.00    -0.283 N 
ATOM      4  H   UNL     1       3.402   5.018  -3.157  0.00  0.00    +0.155 HD
ENDROOT
BRANCH   3   5
ATOM      5  C   UNL     1       3.878   3.266  -4.137  0.00  0.00    +0.064 A 
ATOM      6  C   UNL     1       3.237   2.112  -4.569  0.00  0.00    +0.025 A 
ATOM      7  C   UNL     1       3.806   1.337  -5.560  0.00  0.00    +0.002 A 
ATOM      8  C   UNL     1       5.013   1.710  -6.123  0.00  0.00    +0.002 A 
ATOM      9  C   UNL     1       5.654   2.858  -5.696  0.00  0.00    +0.034 A 
ATOM     10  C   UNL     1       5.088   3.640  -4.708  0.00  0.00    +0.147 A 
BRANCH  10  11
ATOM     11  N   UNL     1       5.771   4.872  -4.255  0.00  0.00    +0.058 N 
ATOM     12  O   UNL     1       6.872   5.153  -4.692  0.00  0.00    -0.126 OA
ATOM     13  O   UNL     1       5.232   5.605  -3.446  0.00  0.00    -0.126 OA
ENDBRANCH  10  11
ENDBRANCH   3   5
BRANCH   1  15
ATOM     14  C   UNL     1       1.133   3.601  -0.004  0.00  0.00    +0.070 C 
ATOM     15  C   UNL     1       1.897   4.322  -1.116  0.00  0.00    +0.122 C 
ATOM     16  C   UNL     1       2.442   4.327   0.315  0.00  0.00    +0.138 C 
ATOM     17 CL   UNL     1       2.334   5.870   1.241  0.00  0.00    -0.099 Cl
ATOM     18 CL   UNL     1       3.893   3.313   0.657  0.00  0.00    -0.099 Cl
BRANCH  14  22
ATOM     19  C   UNL     1       1.196  -0.670  -0.013  0.00  0.00    +0.000 A 
ATOM     20  C   UNL     1       1.886   0.029   0.959  0.00  0.00    +0.000 A 
ATOM     21  C   UNL     1       1.865   1.412   0.962  0.00  0.00    +0.004 A 
ATOM     22  C   UNL     1       1.155   2.095  -0.007  0.00  0.00    -0.041 A 
ATOM     23  C   UNL     1       0.464   1.395  -0.979  0.00  0.00    +0.004 A 
ATOM     24  C   UNL     1       0.485   0.013  -0.982  0.00  0.00    +0.000 A 
ENDBRANCH  14  22
ENDBRANCH   1  15
TORSDOF 4
