REMARK  Name = ZINC41585665
REMARK  5 active torsions:
REMARK  status: ('A' for Active; 'I' for Inactive)
REMARK    1  A    between atoms: C_6  and  C_7
REMARK    2  A    between atoms: C_16  and  O_32
REMARK    3  A    between atoms: C_17  and  C_18
REMARK    4  A    between atoms: C_18  and  N_19
REMARK    5  A    between atoms: N_22  and  C_25
REMARK                            x       y       z     vdW  Elec       q    Type
REMARK                         _______ _______ _______ _____ _____    ______ ____
ROOT
ATOM      1  C   UNL     1      -1.235  -0.825   0.034  0.00  0.00    +0.064 A 
ATOM      2  C   UNL     1      -2.091  -0.747  -1.019  0.00  0.00    +0.208 A 
ATOM      3  O   UNL     1      -3.245  -1.415  -1.062  0.00  0.00    -0.462 OA
ATOM      4  C   UNL     1      -3.789  -1.964   0.042  0.00  0.00    +0.146 A 
ATOM      5  C   UNL     1      -3.017  -2.132   1.205  0.00  0.00    +0.065 A 
ATOM      6  C   UNL     1      -1.612  -1.678   1.177  0.00  0.00    +0.200 A 
ATOM      7  O   UNL     1      -0.814  -1.986   2.045  0.00  0.00    -0.286 OA
ATOM      8  C   UNL     1      -3.572  -2.710   2.346  0.00  0.00    +0.019 A 
ATOM      9  C   UNL     1      -4.879  -3.109   2.335  0.00  0.00    +0.046 A 
ATOM     10  C   UNL     1      -5.655  -2.942   1.190  0.00  0.00    +0.125 A 
ATOM     11  C   UNL     1      -5.115  -2.373   0.048  0.00  0.00    +0.051 A 
ENDROOT
BRANCH   1  17
ATOM     12  C   UNL     1       0.044   1.315   0.042  0.00  0.00    +0.010 A 
ATOM     13  C   UNL     1       1.239   2.005   0.039  0.00  0.00    +0.016 A 
ATOM     14  C   UNL     1       2.439   1.316   0.026  0.00  0.00    +0.018 A 
ATOM     15  C   UNL     1       2.447  -0.068   0.015  0.00  0.00    +0.016 A 
ATOM     16  C   UNL     1       1.258  -0.768   0.017  0.00  0.00    +0.010 A 
ATOM     17  C   UNL     1       0.047  -0.078   0.031  0.00  0.00    -0.011 A 
ATOM     18 BR   UNL     1       4.073   2.268   0.022  0.00  0.00    -0.050 Br
ENDBRANCH   1  17
BRANCH  10  19
ATOM     19  O   UNL     1      -6.952  -3.340   1.194  0.00  0.00    -0.506 OA
ATOM     20  H   UNL     1      -7.573  -2.655   1.478  0.00  0.00    +0.292 HD
ENDBRANCH  10  19
BRANCH  11  21
ATOM     21  C   UNL     1      -5.966  -2.199  -1.183  0.00  0.00    +0.127 C 
BRANCH  21  22
ATOM     22  N   UNL     1      -5.858  -3.397  -2.027  0.00  0.00    -0.295 NA
ATOM     23  C   UNL     1      -4.495  -3.548  -2.554  0.00  0.00    +0.103 C 
ATOM     24  C   UNL     1      -4.376  -4.895  -3.274  0.00  0.00    +0.120 C 
ATOM     25  N   UNL     1      -5.445  -4.983  -4.280  0.00  0.00    -0.327 N 
ATOM     26  C   UNL     1      -6.825  -4.708  -3.855  0.00  0.00    +0.120 C 
ATOM     27  C   UNL     1      -6.848  -3.368  -3.111  0.00  0.00    +0.103 C 
BRANCH  25  28
ATOM     28  C   UNL     1      -5.156  -5.318  -5.607  0.00  0.00    +0.030 A 
ATOM     29  C   UNL     1      -3.837  -5.464  -6.016  0.00  0.00    +0.026 A 
ATOM     30  C   UNL     1      -3.554  -5.795  -7.326  0.00  0.00    +0.040 A 
ATOM     31  C   UNL     1      -4.584  -5.983  -8.232  0.00  0.00    +0.124 A 
ATOM     32  C   UNL     1      -5.900  -5.839  -7.826  0.00  0.00    +0.040 A 
ATOM     33  C   UNL     1      -6.188  -5.512  -6.516  0.00  0.00    +0.026 A 
ATOM     34  F   UNL     1      -4.305  -6.307  -9.514  0.00  0.00    -0.205 F 
ENDBRANCH  25  28
ENDBRANCH  21  22
ENDBRANCH  11  21
TORSDOF 5
