REMARK  Name = ZINC32690907
REMARK  9 active torsions:
REMARK  status: ('A' for Active; 'I' for Inactive)
REMARK    1  A    between atoms: C_1  and  C_2
REMARK    2  A    between atoms: C_2  and  N_3
REMARK    3  A    between atoms: N_3  and  C_4
REMARK    4  A    between atoms: N_3  and  P_6
REMARK    5  A    between atoms: C_4  and  C_5
REMARK    6  A    between atoms: P_6  and  C_8
REMARK    7  A    between atoms: P_6  and  C_14
REMARK    8  A    between atoms: C_15  and  N_27
REMARK    9  A    between atoms: C_17  and  C_18
REMARK                            x       y       z     vdW  Elec       q    Type
REMARK                         _______ _______ _______ _____ _____    ______ ____
ROOT
ATOM      1  C   UNL     1      -0.499   7.424   0.530  0.00  0.00    -0.002 C 
ATOM      2  C   UNL     1      -1.687   7.692   1.071  0.00  0.00    +0.022 C 
ATOM      3  C   UNL     1      -2.924   7.184   0.448  0.00  0.00    -0.027 C 
ATOM      4  C   UNL     1      -4.103   7.247   1.090  0.00  0.00    +0.013 C 
ATOM      5  C   UNL     1      -2.818   6.589  -0.941  0.00  0.00    +0.037 C 
ATOM      6  C   UNL     1      -1.549   5.726  -0.973  0.00  0.00    +0.009 C 
ATOM      7  C   UNL     1      -0.333   6.622  -0.727  0.00  0.00    +0.040 C 
ENDROOT
BRANCH   2   8
ATOM      8  N   UNL     1      -1.762   8.458   2.237  0.00  0.00    -0.389 NA
ATOM      9  C   UNL     1      -1.230   7.951   3.512  0.00  0.00    +0.113 C 
ATOM     10  C   UNL     1      -0.312   9.029   4.110  0.00  0.00    +0.177 C 
ATOM     11  O   UNL     1      -1.021  10.269   4.167  0.00  0.00    -0.377 OA
ATOM     12  C   UNL     1      -1.412  10.779   2.890  0.00  0.00    +0.177 C 
ATOM     13  C   UNL     1      -2.380   9.793   2.228  0.00  0.00    +0.113 C 
ATOM     14  H   UNL     1      -1.652   7.879   1.308  0.00  0.00    +0.127 HD
ENDBRANCH   2   8
BRANCH   4  15
ATOM     15  C   UNL     1      -4.141   7.245   2.563  0.00  0.00    -0.025 A 
ATOM     16  C   UNL     1      -3.531   6.211   3.279  0.00  0.00    +0.008 A 
ATOM     17  C   UNL     1      -3.567   6.217   4.658  0.00  0.00    +0.001 A 
ATOM     18  C   UNL     1      -4.213   7.239   5.332  0.00  0.00    +0.000 A 
ATOM     19  C   UNL     1      -4.822   8.264   4.630  0.00  0.00    +0.001 A 
ATOM     20  C   UNL     1      -4.791   8.273   3.251  0.00  0.00    +0.008 A 
ENDBRANCH   4  15
BRANCH   1  21
ATOM     21  P   UNL     1       0.987   8.066   1.348  0.00  0.00    +0.051 P 
ATOM     22  S   UNL     1       1.115   7.341   3.060  0.00  0.00    -0.040 S 
BRANCH  21  23
ATOM     23  C   UNL     1       0.881   9.873   1.463  0.00  0.00    -0.000 A 
ATOM     24  C   UNL     1       0.098  10.578   0.569  0.00  0.00    +0.010 A 
ATOM     25  C   UNL     1       0.014  11.955   0.659  0.00  0.00    +0.001 A 
ATOM     26  C   UNL     1       0.721  12.627   1.638  0.00  0.00    +0.000 A 
ATOM     27  C   UNL     1       1.509  11.923   2.529  0.00  0.00    +0.001 A 
ATOM     28  C   UNL     1       1.589  10.546   2.442  0.00  0.00    +0.010 A 
ENDBRANCH  21  23
BRANCH  21  29
ATOM     29  N   UNL     1       2.348   7.639   0.455  0.00  0.00    -0.271 NA
BRANCH  29  31
ATOM     30  C   UNL     1       3.681   5.779   1.327  0.00  0.00    +0.021 C 
ATOM     31  C   UNL     1       2.517   6.180   0.418  0.00  0.00    +0.086 C 
ENDBRANCH  29  31
BRANCH  29  32
ATOM     32  C   UNL     1       2.282   8.195  -0.903  0.00  0.00    +0.086 C 
ATOM     33  C   UNL     1       2.707   9.665  -0.873  0.00  0.00    +0.021 C 
ENDBRANCH  29  32
ENDBRANCH  21  29
ENDBRANCH   1  21
TORSDOF 7
