REMARK  Name = ZINC30863535
REMARK  15 active torsions:
REMARK  status: ('A' for Active; 'I' for Inactive)
REMARK    1  A    between atoms: C_1  and  C_2
REMARK    2  A    between atoms: C_2  and  O_3
REMARK    3  A    between atoms: O_3  and  C_4
REMARK    4  A    between atoms: C_4  and  C_6
REMARK    5  A    between atoms: C_9  and  N_13
REMARK    6  A    between atoms: C_10  and  C_12
REMARK    7  A    between atoms: C_14  and  C_16
REMARK    8  A    between atoms: C_16  and  N_17
REMARK    9  A    between atoms: N_17  and  C_18
REMARK   10  A    between atoms: N_17  and  S_26
REMARK   11  A    between atoms: C_20  and  C_25
REMARK   12  A    between atoms: C_23  and  C_24
REMARK   13  A    between atoms: S_26  and  N_29
REMARK   14  A    between atoms: N_29  and  C_30
REMARK   15  A    between atoms: N_29  and  C_31
REMARK                            x       y       z     vdW  Elec       q    Type
REMARK                         _______ _______ _______ _____ _____    ______ ____
ROOT
ATOM      1  N   UNL     1       0.656  -1.888   1.370  0.00  0.00    -0.284 N 
ATOM      2  C   UNL     1       0.446  -0.563   1.243  0.00  0.00    +0.236 C 
ATOM      3  O   UNL     1       0.577   0.167   2.203  0.00  0.00    -0.274 OA
ATOM      4  H   UNL     1       0.451  -2.561   0.525  0.00  0.00    +0.155 HD
ENDROOT
BRANCH   1   8
ATOM      5  C   UNL     1       2.084  -3.434   4.965  0.00  0.00    +0.059 A 
ATOM      6  C   UNL     1       2.338  -2.102   4.625  0.00  0.00    +0.017 A 
ATOM      7  C   UNL     1       1.865  -1.595   3.436  0.00  0.00    +0.024 A 
ATOM      8  C   UNL     1       1.135  -2.406   2.573  0.00  0.00    +0.036 A 
ATOM      9  C   UNL     1       0.875  -3.730   2.911  0.00  0.00    -0.028 A 
ATOM     10  C   UNL     1       1.349  -4.246   4.096  0.00  0.00    +0.020 A 
ATOM     11  C   UNL     1       0.078  -4.603   1.976  0.00  0.00    +0.045 C 
BRANCH   5  12
ATOM     12  C   UNL     1       2.590  -3.981   6.237  0.00  0.00    +0.339 C 
ATOM     13  O   UNL     1       2.368  -5.139   6.532  0.00  0.00    -0.245 OA
BRANCH  12  14
ATOM     14  O   UNL     1       3.298  -3.198   7.074  0.00  0.00    -0.461 OA
BRANCH  14  16
ATOM     15  C   UNL     1       4.543  -2.768   9.122  0.00  0.00    +0.048 C 
ATOM     16  C   UNL     1       3.764  -3.803   8.309  0.00  0.00    +0.229 C 
ENDBRANCH  14  16
ENDBRANCH  12  14
ENDBRANCH   5  12
ENDBRANCH   1   8
BRANCH   2  17
ATOM     17  C   UNL     1       0.048   0.012  -0.092  0.00  0.00    +0.228 C 
BRANCH  17  18
ATOM     18  N   UNL     1       0.006   1.473  -0.001  0.00  0.00    -0.184 N 
BRANCH  18  19
ATOM     19  C   UNL     1       1.186   2.214  -0.103  0.00  0.00    +0.056 A 
ATOM     20  C   UNL     1       1.966   2.439   1.024  0.00  0.00    +0.028 A 
ATOM     21  C   UNL     1       3.134   3.167   0.920  0.00  0.00    -0.049 A 
ATOM     22  C   UNL     1       3.523   3.681  -0.304  0.00  0.00    +0.004 A 
ATOM     23  C   UNL     1       2.747   3.463  -1.427  0.00  0.00    +0.005 A 
ATOM     24  C   UNL     1       1.579   2.731  -1.330  0.00  0.00    -0.028 A 
ATOM     25  C   UNL     1       0.734   2.494  -2.555  0.00  0.00    +0.046 C 
ATOM     26  C   UNL     1       3.983   3.408   2.141  0.00  0.00    +0.044 C 
ENDBRANCH  18  19
BRANCH  18  27
ATOM     27  S   UNL     1      -1.442   2.248   0.215  0.00  0.00    +0.114 S 
ATOM     28  O   UNL     1      -1.274   3.568  -0.283  0.00  0.00    -0.138 OA
ATOM     29  O   UNL     1      -2.448   1.372  -0.273  0.00  0.00    -0.138 OA
BRANCH  27  30
ATOM     30  N   UNL     1      -1.685   2.385   1.847  0.00  0.00    -0.170 NA
ATOM     31  C   UNL     1      -1.315   3.621   2.541  0.00  0.00    +0.132 C 
ATOM     32  C   UNL     1      -2.269   1.271   2.597  0.00  0.00    +0.132 C 
ENDBRANCH  27  30
ENDBRANCH  18  27
ENDBRANCH  17  18
ENDBRANCH   2  17
TORSDOF 9
