REMARK  Name = ZINC05223847
REMARK  10 active torsions:
REMARK  status: ('A' for Active; 'I' for Inactive)
REMARK    1  A    between atoms: C_1  and  C_2
REMARK    2  A    between atoms: C_4  and  C_35
REMARK    3  A    between atoms: C_6  and  O_8
REMARK    4  A    between atoms: O_8  and  C_9
REMARK    5  A    between atoms: C_15  and  O_34
REMARK    6  A    between atoms: C_16  and  C_24
REMARK    7  A    between atoms: C_19  and  C_20
REMARK    8  A    between atoms: C_24  and  N_60
REMARK    9  A    between atoms: C_26  and  C_33
REMARK   10  A    between atoms: C_29  and  C_32
REMARK                            x       y       z     vdW  Elec       q    Type
REMARK                         _______ _______ _______ _____ _____    ______ ____
ROOT
ATOM      1  C   UNL     1       0.028  -0.656   1.181  0.00  0.00    +0.222 A 
ATOM      2  C   UNL     1       0.041  -2.080   1.196  0.00  0.00    +0.235 A 
ATOM      3  O   UNL     1       0.059  -2.704   2.244  0.00  0.00    -0.283 OA
ATOM      4  C   UNL     1       0.039  -2.768  -0.106  0.00  0.00    +0.068 A 
ATOM      5  C   UNL     1       0.058  -4.160  -0.193  0.00  0.00    +0.019 A 
ATOM      6  C   UNL     1       0.055  -4.762  -1.419  0.00  0.00    +0.046 A 
ATOM      7  C   UNL     1       0.033  -3.994  -2.581  0.00  0.00    +0.122 A 
ATOM      8  C   UNL     1       0.014  -2.611  -2.512  0.00  0.00    +0.020 A 
ATOM      9  C   UNL     1       0.017  -1.984  -1.274  0.00  0.00    +0.144 A 
ATOM     10  O   UNL     1      -0.000  -0.639  -1.177  0.00  0.00    -0.447 OA
ATOM     11  C   UNL     1       0.002  -0.004   0.002  0.00  0.00    +0.254 A 
ENDROOT
BRANCH  11  12
ATOM     12  C   UNL     1      -0.018   1.503   0.010  0.00  0.00    +0.454 C 
ATOM     13  F   UNL     1       1.294   1.987   0.000  0.00  0.00    -0.163 F 
ATOM     14  F   UNL     1      -0.695   1.966  -1.123  0.00  0.00    -0.163 F 
ATOM     15  F   UNL     1      -0.673   1.954   1.161  0.00  0.00    -0.163 F 
ENDBRANCH  11  12
BRANCH   7  16
ATOM     16  O   UNL     1       0.030  -4.607  -3.793  0.00  0.00    -0.506 OA
ATOM     17  H   UNL     1       0.913  -4.772  -4.152  0.00  0.00    +0.292 HD
ENDBRANCH   7  16
BRANCH   1  18
ATOM     18  O   UNL     1       0.035   0.042   2.350  0.00  0.00    -0.448 OA
BRANCH  18  24
ATOM     19  C   UNL     1      -4.840  -0.146   2.212  0.00  0.00    +0.044 C 
ATOM     20  C   UNL     1      -3.557   0.279   2.878  0.00  0.00    -0.047 A 
ATOM     21  C   UNL     1      -3.596   0.986   4.065  0.00  0.00    +0.007 A 
ATOM     22  C   UNL     1      -2.420   1.378   4.678  0.00  0.00    -0.047 A 
ATOM     23  C   UNL     1      -1.203   1.063   4.106  0.00  0.00    +0.049 A 
ATOM     24  C   UNL     1      -1.161   0.353   2.915  0.00  0.00    +0.129 A 
ATOM     25  C   UNL     1      -2.342  -0.034   2.299  0.00  0.00    +0.049 A 
ATOM     26  C   UNL     1      -2.467   2.149   5.973  0.00  0.00    +0.044 C 
ENDBRANCH  18  24
ENDBRANCH   1  18
BRANCH   8  27
ATOM     27  C   UNL     1      -0.009  -1.790  -3.775  0.00  0.00    -0.035 C 
BRANCH  27  35
ATOM     28  C   UNL     1       2.045  -0.627  -3.233  0.00  0.00    -0.047 C 
ATOM     29  C   UNL     1       3.491  -0.403  -3.681  0.00  0.00    +0.099 C 
ATOM     30  O   UNL     1       3.497   0.142  -5.003  0.00  0.00    -0.378 OA
ATOM     31  C   UNL     1       2.846  -0.687  -5.970  0.00  0.00    +0.099 C 
ATOM     32  C   UNL     1       1.393  -0.914  -5.545  0.00  0.00    -0.047 C 
ATOM     33  C   UNL     1       3.569  -2.033  -6.058  0.00  0.00    +0.036 C 
ATOM     34  C   UNL     1       4.178   0.573  -2.723  0.00  0.00    +0.036 C 
ATOM     35  N   UNL     1       1.383  -1.527  -4.201  0.00  0.00    +0.386 N 
ATOM     36  H   UNL     1       1.895  -2.416  -4.235  0.00  0.00    -0.081 HD
ENDBRANCH  27  35
ENDBRANCH   8  27
TORSDOF 6
