REMARK  Name = ZINC45687245
REMARK  8 active torsions:
REMARK  status: ('A' for Active; 'I' for Inactive)
REMARK    1  A    between atoms: C_1  and  C_2
REMARK    2  A    between atoms: C_7  and  C_9
REMARK    3  A    between atoms: C_7  and  C_10
REMARK    4  A    between atoms: C_14  and  N_21
REMARK    5  A    between atoms: C_15  and  O_17
REMARK    6  A    between atoms: O_17  and  C_18
REMARK    7  A    between atoms: C_18  and  C_19
REMARK    8  A    between atoms: C_18  and  C_20
REMARK                            x       y       z     vdW  Elec       q    Type
REMARK                         _______ _______ _______ _____ _____    ______ ____
ROOT
ATOM      1  C   UNL     1      -0.334   1.314   0.300  0.00  0.00    +0.039 C 
ATOM      2  C   UNL     1      -0.112  -0.197   0.201  0.00  0.00    +0.133 C 
ATOM      3  C   UNL     1       0.519  -0.534  -1.155  0.00  0.00    +0.138 C 
ATOM      4  N   UNL     1       0.894  -1.957  -1.151  0.00  0.00    -0.310 N 
ATOM      5  C   UNL     1       1.685  -2.461  -0.018  0.00  0.00    +0.141 C 
ATOM      6  C   UNL     1       0.998  -2.030   1.282  0.00  0.00    +0.080 C 
ATOM      7  O   UNL     1       0.765  -0.620   1.248  0.00  0.00    -0.368 OA
ATOM      8  C   UNL     1      -0.338  -2.764   1.422  0.00  0.00    +0.043 C 
ATOM      9  C   UNL     1       1.896  -2.370   2.473  0.00  0.00    +0.043 C 
ATOM     10  C   UNL     1       0.509  -2.802  -2.190  0.00  0.00    +0.125 A 
ATOM     11  C   UNL     1      -0.044  -2.263  -3.344  0.00  0.00    +0.046 A 
ATOM     12  C   UNL     1      -0.424  -3.110  -4.373  0.00  0.00    +0.031 A 
ATOM     13  C   UNL     1      -0.234  -4.478  -4.210  0.00  0.00    +0.087 A 
ATOM     14  C   UNL     1       0.327  -4.949  -3.026  0.00  0.00    +0.238 A 
ATOM     15  N   UNL     1       0.682  -4.110  -2.067  0.00  0.00    -0.196 NA
ENDROOT
BRANCH  13  16
ATOM     16  N   UNL     1      -0.604  -5.373  -5.226  0.00  0.00    -0.354 N 
ATOM     17  H   UNL     1      -0.995  -5.038  -6.048  0.00  0.00    +0.142 HD
ATOM     18  H   UNL     1      -0.469  -6.326  -5.106  0.00  0.00    +0.142 HD
ENDBRANCH  13  16
BRANCH  14  19
ATOM     19  O   UNL     1       0.516  -6.283  -2.855  0.00  0.00    -0.472 OA
BRANCH  19  20
ATOM     20  C   UNL     1       1.096  -6.704  -1.619  0.00  0.00    +0.169 C 
ATOM     21  C   UNL     1       0.582  -8.100  -1.263  0.00  0.00    +0.051 C 
ATOM     22  C   UNL     1       2.619  -6.741  -1.756  0.00  0.00    +0.051 C 
ENDBRANCH  19  20
ENDBRANCH  14  19
TORSDOF 3
