REMARK  Name = ZINC37606679
REMARK  9 active torsions:
REMARK  status: ('A' for Active; 'I' for Inactive)
REMARK    1  A    between atoms: C_1  and  C_2
REMARK    2  A    between atoms: C_6  and  C_8
REMARK    3  A    between atoms: C_12  and  O_26
REMARK    4  A    between atoms: C_19  and  C_21
REMARK    5  A    between atoms: O_26  and  C_27
REMARK    6  A    between atoms: C_27  and  C_28
REMARK    7  A    between atoms: C_30  and  C_33
REMARK    8  A    between atoms: N_35  and  C_36
REMARK    9  A    between atoms: C_36  and  C_37
REMARK                            x       y       z     vdW  Elec       q    Type
REMARK                         _______ _______ _______ _____ _____    ______ ____
ROOT
ATOM      1  C   UNL     1       0.071  -2.827   2.453  0.00  0.00    +0.137 C 
ATOM      2  C   UNL     1      -1.347  -3.186   2.819  0.00  0.00    -0.016 A 
ATOM      3  C   UNL     1      -2.189  -2.160   3.225  0.00  0.00    +0.051 A 
ATOM      4  C   UNL     1      -3.505  -2.425   3.564  0.00  0.00    +0.122 A 
ATOM      5  C   UNL     1      -3.982  -3.727   3.495  0.00  0.00    +0.046 A 
ATOM      6  C   UNL     1      -3.142  -4.743   3.095  0.00  0.00    +0.007 A 
ATOM      7  C   UNL     1      -1.818  -4.479   2.760  0.00  0.00    -0.040 A 
ATOM      8  C   UNL     1      -0.954  -5.646   2.360  0.00  0.00    +0.054 C 
ATOM      9  C   UNL     1       0.272  -5.172   1.581  0.00  0.00    +0.114 C 
ATOM     10  N   UNL     1       0.871  -4.049   2.319  0.00  0.00    -0.284 N 
ATOM     11  C   UNL     1       2.106  -4.141   2.851  0.00  0.00    +0.283 C 
ATOM     12  O   UNL     1       2.785  -5.130   2.645  0.00  0.00    -0.267 OA
ENDROOT
BRANCH   1  18
ATOM     13  C   UNL     1       1.334   1.209  -0.223  0.00  0.00    +0.044 C 
ATOM     14  C   UNL     1       0.681  -0.146  -0.134  0.00  0.00    -0.050 A 
ATOM     15  C   UNL     1       0.088  -0.703  -1.253  0.00  0.00    +0.003 A 
ATOM     16  C   UNL     1      -0.510  -1.946  -1.171  0.00  0.00    +0.001 A 
ATOM     17  C   UNL     1      -0.516  -2.633   0.028  0.00  0.00    +0.006 A 
ATOM     18  C   UNL     1       0.078  -2.078   1.146  0.00  0.00    -0.022 A 
ATOM     19  C   UNL     1       0.680  -0.836   1.063  0.00  0.00    +0.009 A 
ENDBRANCH   1  18
BRANCH  11  20
ATOM     20  C   UNL     1       2.632  -3.049   3.677  0.00  0.00    +0.189 A 
ATOM     21  C   UNL     1       3.900  -2.958   4.174  0.00  0.00    +0.054 A 
ATOM     22  C   UNL     1       3.964  -1.759   4.901  0.00  0.00    +0.042 A 
ATOM     23  C   UNL     1       2.747  -1.177   4.816  0.00  0.00    +0.196 A 
ATOM     24  O   UNL     1       1.949  -1.955   4.073  0.00  0.00    -0.458 OA
ENDBRANCH  11  20
BRANCH   4  25
ATOM     25  O   UNL     1      -4.325  -1.417   3.962  0.00  0.00    -0.483 OA
BRANCH  25  26
ATOM     26  C   UNL     1      -5.669  -1.768   4.296  0.00  0.00    +0.324 C 
BRANCH  26  27
ATOM     27  C   UNL     1      -6.422  -0.530   4.711  0.00  0.00    +0.234 A 
ATOM     28  N   UNL     1      -7.094   0.245   3.914  0.00  0.00    -0.206 NA
ATOM     29  C   UNL     1      -7.635   1.255   4.648  0.00  0.00    +0.164 A 
ATOM     30  C   UNL     1      -7.258   1.056   5.941  0.00  0.00    +0.230 A 
ATOM     31  O   UNL     1      -6.510  -0.059   5.963  0.00  0.00    -0.444 OA
BRANCH  29  32
ATOM     32  C   UNL     1      -8.471   2.357   4.140  0.00  0.00    +0.266 C 
ATOM     33  O   UNL     1      -8.895   3.202   4.905  0.00  0.00    -0.268 OA
ATOM     34  N   UNL     1      -8.767   2.428   2.827  0.00  0.00    -0.310 N 
ATOM     35  H   UNL     1      -8.428   1.755   2.216  0.00  0.00    +0.149 HD
BRANCH  34  36
ATOM     36  C   UNL     1      -9.598   3.524   2.321  0.00  0.00    +0.108 C 
BRANCH  36  37
ATOM     37  C   UNL     1      -9.779   3.371   0.810  0.00  0.00    +0.006 C 
ATOM     38  C   UNL     1      -9.204   4.470  -0.086  0.00  0.00    +0.005 C 
ATOM     39  C   UNL     1     -10.717   4.355   0.108  0.00  0.00    +0.005 C 
ENDBRANCH  36  37
ENDBRANCH  34  36
ENDBRANCH  29  32
ENDBRANCH  26  27
ENDBRANCH  25  26
ENDBRANCH   4  25
TORSDOF 8
