REMARK  Name = ZINC63635107
REMARK  12 active torsions:
REMARK  status: ('A' for Active; 'I' for Inactive)
REMARK    1  A    between atoms: C_1  and  C_2
REMARK    2  A    between atoms: C_2  and  O_3
REMARK    3  A    between atoms: O_3  and  C_4
REMARK    4  A    between atoms: C_4  and  C_6
REMARK    5  A    between atoms: C_7  and  C_34
REMARK    6  A    between atoms: C_9  and  C_33
REMARK    7  A    between atoms: C_10  and  S_12
REMARK    8  A    between atoms: S_12  and  N_15
REMARK    9  A    between atoms: C_19  and  C_22
REMARK   10  A    between atoms: N_24  and  C_25
REMARK   11  A    between atoms: C_28  and  C_32
REMARK   12  A    between atoms: C_30  and  C_31
REMARK                            x       y       z     vdW  Elec       q    Type
REMARK                         _______ _______ _______ _____ _____    ______ ____
ROOT
ATOM      1  N   UNL     1       1.781   0.258   5.533  0.00  0.00    -0.179 NA
ATOM      2  C   UNL     1       2.130  -0.344   6.827  0.00  0.00    +0.109 C 
ATOM      3  C   UNL     1       3.646  -0.244   7.024  0.00  0.00    +0.018 C 
ATOM      4  C   UNL     1       4.081   1.215   6.872  0.00  0.00    +0.015 C 
ATOM      5  C   UNL     1       3.744   1.706   5.462  0.00  0.00    +0.091 C 
ATOM      6  C   UNL     1       2.234   1.626   5.245  0.00  0.00    +0.121 C 
ENDROOT
BRANCH   5   7
ATOM      7  C   UNL     1       4.202   3.132   5.302  0.00  0.00    +0.222 C 
ATOM      8  O   UNL     1       3.399   4.002   5.040  0.00  0.00    -0.275 OA
ATOM      9  N   UNL     1       5.506   3.442   5.452  0.00  0.00    -0.285 N 
ATOM     10  H   UNL     1       6.136   2.763   5.740  0.00  0.00    +0.155 HD
BRANCH   9  11
ATOM     11  C   UNL     1       5.950   4.743   5.191  0.00  0.00    +0.036 A 
ATOM     12  C   UNL     1       5.238   5.561   4.322  0.00  0.00    +0.024 A 
ATOM     13  C   UNL     1       5.679   6.844   4.067  0.00  0.00    +0.005 A 
ATOM     14  C   UNL     1       6.829   7.315   4.674  0.00  0.00    -0.050 A 
ATOM     15  C   UNL     1       7.540   6.503   5.538  0.00  0.00    +0.008 A 
ATOM     16  C   UNL     1       7.101   5.221   5.803  0.00  0.00    -0.029 A 
ATOM     17  C   UNL     1       7.872   4.340   6.751  0.00  0.00    +0.045 C 
ATOM     18  C   UNL     1       7.308   8.716   4.393  0.00  0.00    +0.044 C 
ENDBRANCH   9  11
ENDBRANCH   5   7
BRANCH   1  19
ATOM     19  S   UNL     1       0.898  -0.591   4.418  0.00  0.00    +0.044 S 
ATOM     20  O   UNL     1       0.344   0.400   3.563  0.00  0.00    -0.157 OA
ATOM     21  O   UNL     1       0.056  -1.435   5.189  0.00  0.00    -0.157 OA
BRANCH  19  26
ATOM     22  C   UNL     1       2.771  -2.601   4.433  0.00  0.00    +0.088 C 
ATOM     23  C   UNL     1       4.085  -2.276   4.431  0.00  0.00    +0.050 C 
ATOM     24  N   UNL     1       4.340  -1.213   3.658  0.00  0.00    -0.258 NA
ATOM     25  C   UNL     1       3.291  -0.723   3.081  0.00  0.00    +0.046 C 
ATOM     26  C   UNL     1       2.119  -1.583   3.514  0.00  0.00    +0.230 C 
ATOM     27  C   UNL     1       3.244   0.464   2.155  0.00  0.00    +0.063 C 
ATOM     28  C   UNL     1       5.138  -3.023   5.209  0.00  0.00    +0.066 C 
BRANCH  22  29
ATOM     29  C   UNL     1       2.143  -3.661   5.133  0.00  0.00    +0.339 C 
ATOM     30  O   UNL     1       2.804  -4.401   5.837  0.00  0.00    -0.245 OA
BRANCH  29  31
ATOM     31  O   UNL     1       0.812  -3.850   5.019  0.00  0.00    -0.462 OA
BRANCH  31  33
ATOM     32  C   UNL     1      -1.263  -4.993   5.499  0.00  0.00    +0.048 C 
ATOM     33  C   UNL     1       0.245  -4.937   5.752  0.00  0.00    +0.229 C 
ENDBRANCH  31  33
ENDBRANCH  29  31
ENDBRANCH  22  29
ENDBRANCH  19  26
ENDBRANCH   1  19
TORSDOF 7
