REMARK  Name = ZINC38547668
REMARK  12 active torsions:
REMARK  status: ('A' for Active; 'I' for Inactive)
REMARK    1  A    between atoms: C_1  and  C_2
REMARK    2  A    between atoms: N_8  and  C_9
REMARK    3  A    between atoms: C_9  and  C_11
REMARK    4  A    between atoms: C_9  and  C_21
REMARK    5  A    between atoms: C_14  and  O_19
REMARK    6  A    between atoms: C_15  and  O_17
REMARK    7  A    between atoms: O_17  and  C_18
REMARK    8  A    between atoms: O_19  and  C_20
REMARK    9  A    between atoms: C_22  and  C_35
REMARK   10  A    between atoms: C_23  and  C_34
REMARK   11  A    between atoms: C_25  and  N_26
REMARK   12  A    between atoms: C_27  and  C_29
REMARK                            x       y       z     vdW  Elec       q    Type
REMARK                         _______ _______ _______ _____ _____    ______ ____
ROOT
ATOM      1  C   UNL     1      -0.344  -2.086   3.903  0.00  0.00    +0.135 C 
ENDROOT
BRANCH   1   9
ATOM      2  C   UNL     1       2.853  -5.979   2.957  0.00  0.00    +0.044 C 
ATOM      3  C   UNL     1       1.845  -5.205   2.146  0.00  0.00    -0.046 A 
ATOM      4  C   UNL     1       1.644  -5.492   0.802  0.00  0.00    +0.021 A 
ATOM      5  C   UNL     1       0.713  -4.765   0.088  0.00  0.00    +0.084 A 
ATOM      6  N   UNL     1       0.015  -3.805   0.666  0.00  0.00    -0.350 N 
ATOM      7  C   UNL     1       0.178  -3.502   1.944  0.00  0.00    +0.097 A 
ATOM      8  C   UNL     1       1.095  -4.198   2.725  0.00  0.00    +0.045 A 
ATOM      9  N   UNL     1      -0.578  -2.483   2.512  0.00  0.00    -0.320 N 
ATOM     10  H   UNL     1      -1.260  -2.035   1.988  0.00  0.00    +0.148 HD
ATOM     11  H   UNL     1      -0.633  -3.310   0.141  0.00  0.00    +0.166 HD
ENDBRANCH   1   9
BRANCH   1  12
ATOM     12  C   UNL     1       0.872  -1.198   3.974  0.00  0.00    +0.009 A 
ATOM     13  C   UNL     1       1.814  -1.373   4.970  0.00  0.00    -0.033 A 
ATOM     14  C   UNL     1       2.896  -0.558   5.005  0.00  0.00    -0.008 A 
ATOM     15  S   UNL     1       2.607   0.504   3.599  0.00  0.00    -0.078 S 
ATOM     16  C   UNL     1       1.065  -0.211   3.054  0.00  0.00    +0.078 A 
ATOM     17  C   UNL     1       4.045  -0.550   5.979  0.00  0.00    +0.052 C 
ATOM     18  C   UNL     1       1.640  -2.456   6.004  0.00  0.00    +0.045 C 
BRANCH  16  19
ATOM     19  N   UNL     1       0.264   0.148   1.968  0.00  0.00    -0.273 N 
ATOM     20  C   UNL     1       0.607   1.198   1.196  0.00  0.00    +0.284 C 
ATOM     21  O   UNL     1       1.661   1.776   1.388  0.00  0.00    -0.266 OA
ATOM     22  H   UNL     1      -0.538  -0.359   1.768  0.00  0.00    +0.156 HD
BRANCH  20  23
ATOM     23  C   UNL     1      -0.290   1.645   0.126  0.00  0.00    +0.189 A 
ATOM     24  C   UNL     1      -0.026   2.630  -0.783  0.00  0.00    +0.054 A 
ATOM     25  C   UNL     1      -1.153   2.723  -1.615  0.00  0.00    +0.042 A 
ATOM     26  C   UNL     1      -2.043   1.803  -1.184  0.00  0.00    +0.196 A 
ATOM     27  O   UNL     1      -1.518   1.152  -0.137  0.00  0.00    -0.458 OA
ENDBRANCH  20  23
ENDBRANCH  16  19
ENDBRANCH   1  12
BRANCH   1  28
ATOM     28  C   UNL     1      -1.545  -1.335   4.419  0.00  0.00    -0.019 A 
ATOM     29  C   UNL     1      -2.253  -0.502   3.574  0.00  0.00    +0.009 A 
ATOM     30  C   UNL     1      -3.355   0.189   4.043  0.00  0.00    +0.050 A 
ATOM     31  C   UNL     1      -3.752   0.045   5.363  0.00  0.00    +0.162 A 
ATOM     32  C   UNL     1      -3.039  -0.794   6.213  0.00  0.00    +0.162 A 
ATOM     33  C   UNL     1      -1.939  -1.487   5.736  0.00  0.00    +0.055 A 
BRANCH  32  34
ATOM     34  O   UNL     1      -3.425  -0.938   7.510  0.00  0.00    -0.491 OA
ATOM     35  C   UNL     1      -2.646  -1.816   8.325  0.00  0.00    +0.277 C 
ENDBRANCH  32  34
BRANCH  31  36
ATOM     36  O   UNL     1      -4.836   0.724   5.826  0.00  0.00    -0.491 OA
ATOM     37  C   UNL     1      -5.519   1.568   4.896  0.00  0.00    +0.277 C 
ENDBRANCH  31  36
ENDBRANCH   1  28
TORSDOF 7
