REMARK  Name = ZINC45727036
REMARK  6 active torsions:
REMARK  status: ('A' for Active; 'I' for Inactive)
REMARK    1  A    between atoms: C_1  and  C_2
REMARK    2  A    between atoms: C_7  and  C_8
REMARK    3  A    between atoms: C_11  and  S_13
REMARK    4  A    between atoms: S_13  and  C_14
REMARK    5  A    between atoms: C_14  and  C_15
REMARK    6  A    between atoms: C_28  and  C_30
REMARK                            x       y       z     vdW  Elec       q    Type
REMARK                         _______ _______ _______ _____ _____    ______ ____
ROOT
ATOM      1  C   UNL     1       0.059   2.109   8.432  0.00  0.00    +0.231 C 
ATOM      2  O   UNL     1       0.086   1.072   9.061  0.00  0.00    -0.274 OA
ATOM      3  N   UNL     1       0.045   3.290   9.082  0.00  0.00    -0.257 N 
ATOM      4  C   UNL     1       0.009   4.496   8.368  0.00  0.00    +0.058 A 
ATOM      5  C   UNL     1      -1.144   4.893   7.710  0.00  0.00    +0.025 A 
ATOM      6  C   UNL     1      -1.168   6.097   7.030  0.00  0.00    +0.002 A 
ATOM      7  C   UNL     1      -0.047   6.907   7.007  0.00  0.00    +0.002 A 
ATOM      8  C   UNL     1       1.110   6.514   7.654  0.00  0.00    +0.025 A 
ATOM      9  C   UNL     1       1.145   5.304   8.328  0.00  0.00    +0.055 A 
ATOM     10  N   UNL     1       2.321   4.859   8.943  0.00  0.00    -0.284 N 
ATOM     11  C   UNL     1       2.297   4.390  10.209  0.00  0.00    +0.219 C 
ATOM     12  O   UNL     1       3.306   3.931  10.701  0.00  0.00    -0.275 OA
ATOM     13  C   UNL     1       1.025   4.433  11.014  0.00  0.00    +0.128 C 
ATOM     14  C   UNL     1       0.062   3.336  10.545  0.00  0.00    +0.194 C 
ATOM     15  H   UNL     1       3.160   4.888   8.456  0.00  0.00    +0.155 HD
ENDROOT
BRANCH  14  16
ATOM     16  C   UNL     1      -1.347   3.636  11.060  0.00  0.00    +0.409 C 
ATOM     17  F   UNL     1      -2.223   2.631  10.635  0.00  0.00    -0.169 F 
ATOM     18  F   UNL     1      -1.333   3.680  12.458  0.00  0.00    -0.169 F 
ATOM     19  F   UNL     1      -1.775   4.870  10.559  0.00  0.00    -0.169 F 
ENDBRANCH  14  16
BRANCH   1  20
ATOM     20  C   UNL     1       0.042   2.077   6.926  0.00  0.00    +0.175 C 
BRANCH  20  21
ATOM     21  S   UNL     1       0.066   0.354   6.357  0.00  0.00    -0.056 S 
BRANCH  21  25
ATOM     22  C   UNL     1       0.026   0.017   2.492  0.00  0.00    +0.249 A 
ATOM     23  N   UNL     1       0.004   1.318   2.648  0.00  0.00    -0.106 NA
ATOM     24  N   UNL     1       0.015   1.598   3.904  0.00  0.00    -0.101 NA
ATOM     25  C   UNL     1       0.043   0.485   4.600  0.00  0.00    +0.278 A 
ATOM     26  O   UNL     1       0.045  -0.538   3.725  0.00  0.00    -0.411 OA
BRANCH  22  33
ATOM     27  C   UNL     1      -0.018   1.503   0.010  0.00  0.00    +0.044 C 
ATOM     28  C   UNL     1       0.002  -0.004   0.002  0.00  0.00    -0.038 A 
ATOM     29  C   UNL     1       0.006  -0.689  -1.196  0.00  0.00    +0.004 A 
ATOM     30  C   UNL     1       0.025  -2.072  -1.205  0.00  0.00    +0.000 A 
ATOM     31  C   UNL     1       0.040  -2.778  -0.015  0.00  0.00    +0.001 A 
ATOM     32  C   UNL     1       0.036  -2.106   1.189  0.00  0.00    +0.013 A 
ATOM     33  C   UNL     1       0.023  -0.710   1.206  0.00  0.00    +0.041 A 
ENDBRANCH  22  33
ENDBRANCH  21  25
ENDBRANCH  20  21
ENDBRANCH   1  20
TORSDOF 5
