REMARK  Name = ZINC06146794
REMARK  6 active torsions:
REMARK  status: ('A' for Active; 'I' for Inactive)
REMARK    1  A    between atoms: C_3  and  C_8
REMARK    2  A    between atoms: N_9  and  N_10
REMARK    3  A    between atoms: C_11  and  C_13
REMARK    4  A    between atoms: C_16  and  N_19
REMARK    5  A    between atoms: N_19  and  S_20
REMARK    6  A    between atoms: S_20  and  C_23
REMARK                            x       y       z     vdW  Elec       q    Type
REMARK                         _______ _______ _______ _____ _____    ______ ____
ROOT
ATOM      1  C   UNL     1       5.043   7.763   0.097  0.00  0.00    +0.038 A 
ATOM      2  C   UNL     1       6.321   7.195   0.116  0.00  0.00    +0.015 A 
ATOM      3  C   UNL     1       7.432   8.005   0.069  0.00  0.00    +0.027 A 
ATOM      4  C   UNL     1       7.286   9.389   0.014  0.00  0.00    +0.074 A 
ATOM      5  C   UNL     1       6.015   9.957   0.001  0.00  0.00    +0.027 A 
ATOM      6  C   UNL     1       4.899   9.153   0.042  0.00  0.00    +0.015 A 
ENDROOT
BRANCH   1   8
ATOM      7  N   UNL     1       3.990   5.558   0.194  0.00  0.00    -0.203 N 
ATOM      8  C   UNL     1       3.850   6.898   0.141  0.00  0.00    +0.263 C 
ATOM      9  O   UNL     1       2.739   7.393   0.130  0.00  0.00    -0.268 OA
ATOM     10  H   UNL     1       4.994   5.111   0.205  0.00  0.00    +0.178 HD
BRANCH   7  12
ATOM     11  C   UNL     1       2.991   3.447   0.288  0.00  0.00    +0.138 C 
ATOM     12  N   UNL     1       2.856   4.737   0.236  0.00  0.00    -0.187 NA
BRANCH  11  15
ATOM     13  C   UNL     1       0.818   0.390   0.428  0.00  0.00    +0.002 A 
ATOM     14  C   UNL     1       1.939   1.193   0.387  0.00  0.00    +0.009 A 
ATOM     15  C   UNL     1       1.797   2.582   0.332  0.00  0.00    -0.004 A 
ATOM     16  C   UNL     1       0.520   3.147   0.319  0.00  0.00    +0.024 A 
ATOM     17  C   UNL     1      -0.592   2.331   0.360  0.00  0.00    +0.018 A 
ATOM     18  C   UNL     1      -0.444   0.955   0.409  0.00  0.00    +0.015 A 
ATOM     19 BR   UNL     1      -2.323   3.094   0.341  0.00  0.00    -0.050 Br
ENDBRANCH  11  15
ENDBRANCH   7  12
ENDBRANCH   1   8
BRANCH   4  20
ATOM     20  N   UNL     1       8.411  10.204  -0.028  0.00  0.00    -0.097 NA
BRANCH  20  21
ATOM     21  S   UNL     1       8.876  11.044   1.321  0.00  0.00    +0.098 S 
ATOM     22  O   UNL     1      10.068  11.738   0.977  0.00  0.00    -0.148 OA
ATOM     23  O   UNL     1       7.718  11.712   1.803  0.00  0.00    -0.148 OA
BRANCH  21  24
ATOM     24  C   UNL     1       9.320   9.858   2.546  0.00  0.00    +0.148 A 
ATOM     25  C   UNL     1      10.543   9.359   2.848  0.00  0.00    +0.037 A 
ATOM     26  C   UNL     1      10.655   8.426   3.861  0.00  0.00    +0.010 A 
ATOM     27  C   UNL     1       9.538   8.037   4.524  0.00  0.00    +0.047 A 
ATOM     28  S   UNL     1       8.275   9.007   3.718  0.00  0.00    -0.077 S 
ENDBRANCH  21  24
ENDBRANCH  20  21
ENDBRANCH   4  20
TORSDOF 6
