REMARK  Name = ZINC22418232
REMARK  9 active torsions:
REMARK  status: ('A' for Active; 'I' for Inactive)
REMARK    1  A    between atoms: C_1  and  N_2
REMARK    2  A    between atoms: N_2  and  C_3
REMARK    3  A    between atoms: N_2  and  C_4
REMARK    4  A    between atoms: C_7  and  C_10
REMARK    5  A    between atoms: C_10  and  C_12
REMARK    6  A    between atoms: C_10  and  N_26
REMARK    7  A    between atoms: C_12  and  N_13
REMARK    8  A    between atoms: C_14  and  C_16
REMARK    9  A    between atoms: C_20  and  N_22
REMARK                            x       y       z     vdW  Elec       q    Type
REMARK                         _______ _______ _______ _____ _____    ______ ____
ROOT
ATOM      1  C   UNL     1      -9.454   2.129   0.833  0.00  0.00    -0.020 C 
ENDROOT
BRANCH   1   2
ATOM      2  N   UNL     1     -10.114   1.101   1.649  0.00  0.00    +0.388 N 
ATOM      3  C   UNL     1     -11.507   1.475   1.944  0.00  0.00    -0.073 C 
ATOM      4  C   UNL     1     -12.242   0.239   2.462  0.00  0.00    +0.017 C 
ATOM      5  C   UNL     1     -11.448  -0.404   3.571  0.00  0.00    -0.048 A 
ATOM      6  C   UNL     1     -12.088  -1.310   4.403  0.00  0.00    +0.004 A 
ATOM      7  C   UNL     1     -11.396  -1.928   5.425  0.00  0.00    +0.000 A 
ATOM      8  C   UNL     1     -10.058  -1.642   5.620  0.00  0.00    +0.000 A 
ATOM      9  C   UNL     1      -9.420  -0.739   4.794  0.00  0.00    +0.002 A 
ATOM     10  C   UNL     1     -10.115  -0.116   3.767  0.00  0.00    -0.061 A 
ATOM     11  C   UNL     1      -9.377   0.865   2.895  0.00  0.00    -0.042 C 
ATOM     12  H   UNL     1     -10.118   0.166   1.069  0.00  0.00    -0.080 HD
ENDBRANCH   1   2
BRANCH   1  16
ATOM     13  C   UNL     1     -10.893   5.990   1.969  0.00  0.00    +0.029 A 
ATOM     14  C   UNL     1     -11.236   5.455   0.733  0.00  0.00    +0.023 A 
ATOM     15  C   UNL     1     -10.769   4.207   0.369  0.00  0.00    +0.004 A 
ATOM     16  C   UNL     1      -9.962   3.490   1.234  0.00  0.00    -0.059 A 
ATOM     17  C   UNL     1      -9.623   4.017   2.466  0.00  0.00    +0.004 A 
ATOM     18  C   UNL     1     -10.082   5.267   2.834  0.00  0.00    +0.023 A 
BRANCH  13  20
ATOM     19  C   UNL     1     -12.114   8.065   1.380  0.00  0.00    +0.129 C 
ATOM     20  N   UNL     1     -11.364   7.251   2.340  0.00  0.00    -0.336 N 
ATOM     21  C   UNL     1     -11.108   7.761   3.689  0.00  0.00    +0.129 C 
ENDBRANCH  13  20
ENDBRANCH   1  16
BRANCH   1  22
ATOM     22  C   UNL     1      -7.942   2.063   1.055  0.00  0.00    +0.094 C 
BRANCH  22  23
ATOM     23  N   UNL     1      -7.467   0.705   0.780  0.00  0.00    -0.313 N 
ATOM     24  C   UNL     1      -6.158   0.409   0.910  0.00  0.00    +0.244 C 
ATOM     25  O   UNL     1      -5.372   1.270   1.256  0.00  0.00    -0.270 OA
ATOM     26  H   UNL     1      -8.178  -0.074   0.467  0.00  0.00    +0.149 HD
BRANCH  24  27
ATOM     27  C   UNL     1      -5.679  -0.961   0.632  0.00  0.00    +0.039 A 
ATOM     28  C   UNL     1      -6.579  -1.950   0.229  0.00  0.00    +0.014 A 
ATOM     29  C   UNL     1      -6.127  -3.228  -0.022  0.00  0.00    +0.023 A 
ATOM     30  C   UNL     1      -4.781  -3.529   0.112  0.00  0.00    +0.071 A 
ATOM     31  C   UNL     1      -3.883  -2.551   0.506  0.00  0.00    +0.145 A 
ATOM     32  C   UNL     1      -4.324  -1.270   0.766  0.00  0.00    +0.047 A 
ATOM     33 CL   UNL     1      -4.218  -5.138  -0.214  0.00  0.00    -0.081 Cl
BRANCH  31  34
ATOM     34  N   UNL     1      -2.447  -2.880   0.647  0.00  0.00    +0.058 N 
ATOM     35  O   UNL     1      -1.656  -2.021   0.994  0.00  0.00    -0.126 OA
ATOM     36  O   UNL     1      -2.056  -4.011   0.418  0.00  0.00    -0.126 OA
ENDBRANCH  31  34
ENDBRANCH  24  27
ENDBRANCH  22  23
ENDBRANCH   1  22
TORSDOF 7
