REMARK  Name = ZINC63925999
REMARK  9 active torsions:
REMARK  status: ('A' for Active; 'I' for Inactive)
REMARK    1  A    between atoms: C_4  and  C_7
REMARK    2  A    between atoms: C_7  and  C_8
REMARK    3  A    between atoms: N_10  and  C_11
REMARK    4  A    between atoms: C_11  and  C_12
REMARK    5  A    between atoms: C_12  and  C_13
REMARK    6  A    between atoms: N_15  and  C_16
REMARK    7  A    between atoms: C_16  and  C_17
REMARK    8  A    between atoms: C_17  and  C_19
REMARK    9  A    between atoms: C_17  and  C_26
REMARK                            x       y       z     vdW  Elec       q    Type
REMARK                         _______ _______ _______ _____ _____    ______ ____
ROOT
ATOM      1  C   UNL     1       9.152  -3.745   5.987  0.00  0.00    +0.116 C 
ENDROOT
BRANCH   1   4
ATOM      2  C   UNL     1       7.553  -2.852   4.381  0.00  0.00    +0.215 C 
ATOM      3  O   UNL     1       6.874  -2.472   5.312  0.00  0.00    -0.276 OA
ATOM      4  N   UNL     1       8.711  -3.500   4.612  0.00  0.00    -0.314 N 
ATOM      5  H   UNL     1       9.254  -3.804   3.867  0.00  0.00    +0.149 HD
BRANCH   2   6
ATOM      6  C   UNL     1       7.099  -2.600   2.966  0.00  0.00    +0.114 C 
BRANCH   6   7
ATOM      7  C   UNL     1       5.764  -1.853   2.984  0.00  0.00    +0.113 C 
BRANCH   7  10
ATOM      8  C   UNL     1       4.164  -0.959   1.377  0.00  0.00    +0.217 C 
ATOM      9  O   UNL     1       3.486  -0.579   2.308  0.00  0.00    -0.275 OA
ATOM     10  N   UNL     1       5.323  -1.607   1.608  0.00  0.00    -0.315 N 
ATOM     11  H   UNL     1       5.866  -1.911   0.864  0.00  0.00    +0.149 HD
BRANCH   8  12
ATOM     12  C   UNL     1       3.711  -0.707  -0.038  0.00  0.00    +0.130 C 
BRANCH  12  16
ATOM     13  C   UNL     1      -0.017   1.378   0.010  0.00  0.00    +0.000 A 
ATOM     14  C   UNL     1       1.171   2.086   0.002  0.00  0.00    +0.000 A 
ATOM     15  C   UNL     1       2.377   1.411  -0.013  0.00  0.00    +0.004 A 
ATOM     16  C   UNL     1       2.396   0.029  -0.020  0.00  0.00    -0.039 A 
ATOM     17  C   UNL     1       1.208  -0.679  -0.012  0.00  0.00    +0.004 A 
ATOM     18  C   UNL     1       0.002  -0.004   0.002  0.00  0.00    +0.000 A 
ENDBRANCH  12  16
ENDBRANCH   8  12
ENDBRANCH   7  10
ENDBRANCH   6   7
ENDBRANCH   2   6
ENDBRANCH   1   4
BRANCH   1  19
ATOM     19  C   UNL     1      10.487  -4.492   5.970  0.00  0.00    +0.066 C 
BRANCH  19  20
ATOM     20  C   UNL     1      11.001  -4.636   7.379  0.00  0.00    -0.033 C 
ATOM     21  C   UNL     1      12.165  -4.157   7.873  0.00  0.00    -0.000 A 
ATOM     22  C   UNL     1      13.260  -3.388   7.269  0.00  0.00    +0.010 A 
ATOM     23  C   UNL     1      14.321  -3.046   8.035  0.00  0.00    +0.001 A 
ATOM     24  C   UNL     1      14.401  -3.406   9.387  0.00  0.00    +0.002 A 
ATOM     25  C   UNL     1      13.435  -4.112  10.012  0.00  0.00    +0.026 A 
ATOM     26  C   UNL     1      12.274  -4.525   9.303  0.00  0.00    +0.043 A 
ATOM     27  N   UNL     1      11.218  -5.205   9.678  0.00  0.00    -0.380 N 
ATOM     28  C   UNL     1      10.316  -5.341   8.529  0.00  0.00    +0.145 C 
ATOM     29  H   UNL     1      11.058  -5.557  10.568  0.00  0.00    +0.160 HD
ENDBRANCH  19  20
BRANCH  19  30
ATOM     30  C   UNL     1      10.291  -5.858   5.364  0.00  0.00    -0.020 A 
ATOM     31  C   UNL     1       9.411  -6.752   5.946  0.00  0.00    +0.006 A 
ATOM     32  C   UNL     1       9.230  -8.005   5.391  0.00  0.00    +0.000 A 
ATOM     33  C   UNL     1       9.930  -8.365   4.254  0.00  0.00    +0.001 A 
ATOM     34  C   UNL     1      10.810  -7.473   3.672  0.00  0.00    +0.020 A 
ATOM     35  C   UNL     1      10.987  -6.216   4.224  0.00  0.00    +0.045 A 
ATOM     36 CL   UNL     1      12.087  -5.092   3.489  0.00  0.00    -0.083 Cl
ENDBRANCH  19  30
ENDBRANCH   1  19
TORSDOF 9
