REMARK  Name = ZINC39355366
REMARK  10 active torsions:
REMARK  status: ('A' for Active; 'I' for Inactive)
REMARK    1  A    between atoms: C_1  and  C_2
REMARK    2  A    between atoms: C_4  and  C_9
REMARK    3  A    between atoms: N_6  and  C_8
REMARK    4  A    between atoms: C_9  and  N_10
REMARK    5  A    between atoms: N_10  and  C_11
REMARK    6  A    between atoms: N_10  and  C_12
REMARK    7  A    between atoms: C_12  and  C_14
REMARK    8  A    between atoms: C_12  and  C_22
REMARK    9  A    between atoms: C_14  and  C_15
REMARK   10  A    between atoms: C_28  and  C_30
REMARK                            x       y       z     vdW  Elec       q    Type
REMARK                         _______ _______ _______ _____ _____    ______ ____
ROOT
ATOM      1  C   UNL     1      -5.760   0.273  -0.641  0.00  0.00    -0.061 C 
ENDROOT
BRANCH   1   2
ATOM      2  C   UNL     1      -5.489   1.699  -1.126  0.00  0.00    -0.021 C 
ATOM      3  C   UNL     1      -5.437   2.645   0.075  0.00  0.00    +0.021 C 
ATOM      4  C   UNL     1      -5.131   4.065  -0.411  0.00  0.00    +0.108 C 
ATOM      5  N   UNL     1      -6.121   4.439  -1.431  0.00  0.00    -0.296 N 
ATOM      6  C   UNL     1      -6.316   3.550  -2.584  0.00  0.00    +0.108 C 
ATOM      7  C   UNL     1      -6.609   2.136  -2.074  0.00  0.00    +0.021 C 
ATOM      8  C   UNL     1      -6.836   5.575  -1.310  0.00  0.00    +0.263 C 
ATOM      9  O   UNL     1      -7.735   5.814  -2.093  0.00  0.00    -0.268 OA
BRANCH   8  10
ATOM     10  C   UNL     1      -6.528   6.526  -0.231  0.00  0.00    +0.103 A 
ATOM     11  H   UNL     1      -4.513   6.129   0.207  0.00  0.00    +0.166 HD
ATOM     12  C   UNL     1      -7.402   7.416   0.307  0.00  0.00    +0.040 A 
ATOM     13  C   UNL     1      -6.717   8.139   1.313  0.00  0.00    +0.000 A 
ATOM     14  C   UNL     1      -7.097   9.165   2.188  0.00  0.00    +0.010 A 
ATOM     15  C   UNL     1      -6.189   9.674   3.071  0.00  0.00    +0.001 A 
ATOM     16  C   UNL     1      -4.890   9.186   3.111  0.00  0.00    +0.002 A 
ATOM     17  C   UNL     1      -4.492   8.178   2.260  0.00  0.00    +0.026 A 
ATOM     18  C   UNL     1      -5.400   7.642   1.351  0.00  0.00    +0.047 A 
ATOM     19  N   UNL     1      -5.307   6.652   0.402  0.00  0.00    -0.351 N 
ENDBRANCH   8  10
ENDBRANCH   1   2
BRANCH   1  20
ATOM     20  N   UNL     1      -4.591  -0.223   0.099  0.00  0.00    +0.383 N 
ATOM     21  C   UNL     1      -3.406  -0.171  -0.767  0.00  0.00    -0.095 C 
ATOM     22  H   UNL     1      -4.439   0.354   0.912  0.00  0.00    -0.081 HD
BRANCH  20  23
ATOM     23  C   UNL     1      -4.830  -1.610   0.519  0.00  0.00    -0.045 C 
BRANCH  23  26
ATOM     24  C   UNL     1      -1.929  -2.804  -0.314  0.00  0.00    +0.030 C 
ATOM     25  C   UNL     1      -2.683  -3.183   0.963  0.00  0.00    +0.095 C 
ATOM     26  C   UNL     1      -3.664  -2.094   1.341  0.00  0.00    -0.053 C 
ATOM     27  C   UNL     1      -3.301  -1.650   2.527  0.00  0.00    +0.086 C 
ATOM     28  N   UNL     1      -2.185  -2.311   3.001  0.00  0.00    -0.277 N 
ATOM     29  N   UNL     1      -1.755  -3.255   2.109  0.00  0.00    -0.234 NA
ATOM     30  C   UNL     1      -1.546  -2.038   4.291  0.00  0.00    +0.149 C 
ATOM     31  H   UNL     1      -0.806  -3.073   1.818  0.00  0.00    +0.145 HD
ENDBRANCH  23  26
ENDBRANCH  20  23
ENDBRANCH   1  20
BRANCH   1  32
ATOM     32  C   UNL     1      -6.983   0.271   0.278  0.00  0.00    +0.023 C 
BRANCH  32  33
ATOM     33  C   UNL     1      -8.236   0.376  -0.554  0.00  0.00    -0.014 A 
ATOM     34  C   UNL     1      -9.027   1.507  -0.473  0.00  0.00    +0.006 A 
ATOM     35  C   UNL     1     -10.175   1.603  -1.235  0.00  0.00    +0.000 A 
ATOM     36  C   UNL     1     -10.535   0.569  -2.079  0.00  0.00    +0.003 A 
ATOM     37  C   UNL     1      -9.746  -0.562  -2.162  0.00  0.00    +0.038 A 
ATOM     38  C   UNL     1      -8.592  -0.658  -1.403  0.00  0.00    +0.126 A 
ATOM     39  F   UNL     1      -7.817  -1.761  -1.486  0.00  0.00    -0.205 F 
ENDBRANCH  32  33
ENDBRANCH   1  32
TORSDOF 7
