REMARK  Name = ZINC21536050
REMARK  3 active torsions:
REMARK  status: ('A' for Active; 'I' for Inactive)
REMARK    1  A    between atoms: C_1  and  C_2
REMARK    2  A    between atoms: C_7  and  N_8
REMARK    3  A    between atoms: C_24  and  C_26
REMARK                            x       y       z     vdW  Elec       q    Type
REMARK                         _______ _______ _______ _____ _____    ______ ____
ROOT
ATOM      1  N   UNL     1      -2.423   1.039   0.019  0.00  0.00    -0.269 N 
ATOM      2  C   UNL     1      -2.412  -0.304  -0.090  0.00  0.00    +0.308 C 
ATOM      3  O   UNL     1      -1.355  -0.904  -0.099  0.00  0.00    -0.252 OA
ATOM      4  N   UNL     1      -3.573  -0.982  -0.189  0.00  0.00    -0.268 N 
ATOM      5  C   UNL     1      -4.870  -0.282  -0.175  0.00  0.00    +0.147 C 
ATOM      6  C   UNL     1      -5.891  -1.009   0.649  0.00  0.00    -0.006 A 
ATOM      7  C   UNL     1      -6.295  -0.511   1.871  0.00  0.00    +0.007 A 
ATOM      8  C   UNL     1      -7.320  -1.130   2.563  0.00  0.00    +0.000 A 
ATOM      9  C   UNL     1      -7.942  -2.248   2.037  0.00  0.00    +0.002 A 
ATOM     10  C   UNL     1      -7.524  -2.767   0.826  0.00  0.00    +0.026 A 
ATOM     11  C   UNL     1      -6.485  -2.160   0.141  0.00  0.00    +0.051 A 
ATOM     12  N   UNL     1      -6.000  -2.691  -1.064  0.00  0.00    -0.318 N 
ATOM     13  C   UNL     1      -6.690  -3.130  -2.147  0.00  0.00    +0.091 A 
ATOM     14  C   UNL     1      -5.797  -3.557  -3.067  0.00  0.00    +0.020 A 
ATOM     15  C   UNL     1      -4.506  -3.372  -2.525  0.00  0.00    +0.025 A 
ATOM     16  C   UNL     1      -4.659  -2.841  -1.301  0.00  0.00    +0.049 A 
ATOM     17  C   UNL     1      -3.591  -2.453  -0.311  0.00  0.00    +0.155 C 
ATOM     18  H   UNL     1      -3.379   1.575   0.121  0.00  0.00    +0.156 HD
ENDROOT
BRANCH   1  25
ATOM     19  C   UNL     1      -2.353   3.584   1.291  0.00  0.00    +0.045 C 
ATOM     20  C   UNL     1      -1.141   2.998   0.613  0.00  0.00    -0.029 A 
ATOM     21  C   UNL     1       0.047   3.703   0.590  0.00  0.00    +0.005 A 
ATOM     22  C   UNL     1       1.159   3.166  -0.032  0.00  0.00    +0.000 A 
ATOM     23  C   UNL     1       1.086   1.923  -0.633  0.00  0.00    +0.002 A 
ATOM     24  C   UNL     1      -0.099   1.214  -0.615  0.00  0.00    +0.023 A 
ATOM     25  C   UNL     1      -1.220   1.753   0.004  0.00  0.00    +0.038 A 
ENDBRANCH   1  25
BRANCH  17  26
ATOM     26  C   UNL     1      -3.899  -3.067   1.031  0.00  0.00    -0.021 A 
ATOM     27  C   UNL     1      -3.513  -2.422   2.191  0.00  0.00    +0.007 A 
ATOM     28  C   UNL     1      -3.800  -2.982   3.421  0.00  0.00    +0.020 A 
ATOM     29  C   UNL     1      -4.464  -4.194   3.492  0.00  0.00    +0.041 A 
ATOM     30  C   UNL     1      -4.845  -4.842   2.330  0.00  0.00    +0.020 A 
ATOM     31  C   UNL     1      -4.562  -4.278   1.101  0.00  0.00    +0.007 A 
ATOM     32 CL   UNL     1      -4.818  -4.902   5.037  0.00  0.00    -0.084 Cl
ENDBRANCH  17  26
TORSDOF 2
