REMARK  Name = ZINC09601871
REMARK  11 active torsions:
REMARK  status: ('A' for Active; 'I' for Inactive)
REMARK    1  A    between atoms: C_1  and  C_2
REMARK    2  A    between atoms: C_5  and  C_8
REMARK    3  A    between atoms: C_8  and  S_9
REMARK    4  A    between atoms: S_9  and  C_10
REMARK    5  A    between atoms: C_23  and  C_26
REMARK    6  A    between atoms: C_28  and  O_36
REMARK    7  A    between atoms: C_29  and  O_34
REMARK    8  A    between atoms: C_30  and  O_32
REMARK    9  A    between atoms: O_32  and  C_33
REMARK   10  A    between atoms: O_34  and  C_35
REMARK   11  A    between atoms: O_36  and  C_37
REMARK                            x       y       z     vdW  Elec       q    Type
REMARK                         _______ _______ _______ _____ _____    ______ ____
ROOT
ATOM      1  C   UNL     1      -5.004  -0.168   0.015  0.00  0.00    +0.213 A 
ATOM      2  N   UNL     1      -4.827   0.828   0.878  0.00  0.00    -0.184 NA
ATOM      3  C   UNL     1      -3.644   1.413   0.956  0.00  0.00    +0.248 A 
ATOM      4  C   UNL     1      -2.606   0.962   0.110  0.00  0.00    +0.156 A 
ATOM      5  N   UNL     1      -2.847  -0.037  -0.725  0.00  0.00    -0.141 NA
ATOM      6  N   UNL     1      -4.014  -0.581  -0.766  0.00  0.00    -0.122 NA
ATOM      7  C   UNL     1      -1.280   1.611   0.173  0.00  0.00    +0.028 A 
ATOM      8  C   UNL     1      -0.108   0.866   0.241  0.00  0.00    +0.012 A 
ATOM      9  C   UNL     1       1.113   1.510   0.269  0.00  0.00    +0.001 A 
ATOM     10  C   UNL     1       1.178   2.892   0.235  0.00  0.00    +0.002 A 
ATOM     11  C   UNL     1       0.020   3.646   0.179  0.00  0.00    +0.024 A 
ATOM     12  C   UNL     1      -1.210   3.016   0.156  0.00  0.00    +0.039 A 
ATOM     13  N   UNL     1      -2.403   3.747   0.128  0.00  0.00    -0.305 N 
ATOM     14  C   UNL     1      -3.270   3.732   1.291  0.00  0.00    +0.294 C 
ATOM     15  O   UNL     1      -3.411   2.422   1.828  0.00  0.00    -0.449 OA
ATOM     16  H   UNL     1      -2.652   4.254  -0.660  0.00  0.00    +0.150 HD
ENDROOT
BRANCH  14  17
ATOM     17  C   UNL     1      -2.682   4.635   2.344  0.00  0.00    +0.018 A 
ATOM     18  C   UNL     1      -2.771   4.286   3.679  0.00  0.00    +0.058 A 
ATOM     19  C   UNL     1      -2.226   5.111   4.651  0.00  0.00    +0.166 A 
ATOM     20  C   UNL     1      -1.600   6.295   4.283  0.00  0.00    +0.204 A 
ATOM     21  C   UNL     1      -1.517   6.646   2.941  0.00  0.00    +0.166 A 
ATOM     22  C   UNL     1      -2.059   5.812   1.974  0.00  0.00    +0.058 A 
BRANCH  21  23
ATOM     23  O   UNL     1      -0.904   7.803   2.576  0.00  0.00    -0.491 OA
ATOM     24  C   UNL     1      -0.855   8.099   1.179  0.00  0.00    +0.277 C 
ENDBRANCH  21  23
BRANCH  20  25
ATOM     25  O   UNL     1      -1.069   7.111   5.235  0.00  0.00    -0.488 OA
ATOM     26  C   UNL     1      -1.927   8.115   5.780  0.00  0.00    +0.277 C 
ENDBRANCH  20  25
BRANCH  19  27
ATOM     27  O   UNL     1      -2.310   4.764   5.964  0.00  0.00    -0.491 OA
ATOM     28  C   UNL     1      -2.968   3.533   6.268  0.00  0.00    +0.277 C 
ENDBRANCH  19  27
ENDBRANCH  14  17
BRANCH   1  29
ATOM     29  S   UNL     1      -6.578  -0.952  -0.093  0.00  0.00    -0.080 S 
BRANCH  29  30
ATOM     30  C   UNL     1      -6.232  -2.177  -1.379  0.00  0.00    +0.112 C 
BRANCH  30  35
ATOM     31  C   UNL     1     -10.990  -5.292  -2.406  0.00  0.00    +0.044 C 
ATOM     32  C   UNL     1      -9.749  -4.479  -2.139  0.00  0.00    -0.050 A 
ATOM     33  C   UNL     1      -9.514  -3.320  -2.854  0.00  0.00    +0.003 A 
ATOM     34  C   UNL     1      -8.375  -2.575  -2.609  0.00  0.00    +0.005 A 
ATOM     35  C   UNL     1      -7.473  -2.989  -1.647  0.00  0.00    -0.037 A 
ATOM     36  C   UNL     1      -7.705  -4.151  -0.935  0.00  0.00    +0.005 A 
ATOM     37  C   UNL     1      -8.846  -4.894  -1.177  0.00  0.00    +0.003 A 
ENDBRANCH  30  35
ENDBRANCH  29  30
ENDBRANCH   1  29
TORSDOF 7
