REMARK  Name = ZINC09094774
REMARK  7 active torsions:
REMARK  status: ('A' for Active; 'I' for Inactive)
REMARK    1  A    between atoms: C_1  and  C_2
REMARK    2  A    between atoms: C_5  and  N_9
REMARK    3  A    between atoms: C_12  and  C_30
REMARK    4  A    between atoms: C_13  and  C_29
REMARK    5  A    between atoms: C_14  and  C_16
REMARK    6  A    between atoms: N_18  and  N_19
REMARK    7  A    between atoms: C_20  and  C_21
REMARK                            x       y       z     vdW  Elec       q    Type
REMARK                         _______ _______ _______ _____ _____    ______ ____
ROOT
ATOM      1  N   UNL     1      -0.960   3.825  -2.700  0.00  0.00    -0.195 N 
ATOM      2  C   UNL     1      -1.242   2.508  -2.741  0.00  0.00    +0.290 A 
ATOM      3  O   UNL     1      -2.370   2.123  -2.996  0.00  0.00    -0.264 OA
ATOM      4  C   UNL     1      -0.167   1.547  -2.465  0.00  0.00    +0.123 A 
ATOM      5  C   UNL     1       1.093   2.068  -2.188  0.00  0.00    +0.004 A 
ATOM      6  C   UNL     1       1.241   3.471  -2.187  0.00  0.00    +0.152 A 
ATOM      7  N   UNL     1       0.219   4.258  -2.440  0.00  0.00    -0.158 NA
ATOM      8  C   UNL     1       2.263   1.163  -1.899  0.00  0.00    +0.048 C 
ENDROOT
BRANCH   1  13
ATOM      9  C   UNL     1      -5.097   7.565  -3.740  0.00  0.00    +0.045 C 
ATOM     10  C   UNL     1      -3.998   6.571  -3.464  0.00  0.00    -0.032 A 
ATOM     11  C   UNL     1      -2.786   6.682  -4.121  0.00  0.00    +0.007 A 
ATOM     12  C   UNL     1      -1.775   5.777  -3.866  0.00  0.00    +0.028 A 
ATOM     13  C   UNL     1      -1.980   4.746  -2.956  0.00  0.00    +0.071 A 
ATOM     14  C   UNL     1      -3.198   4.637  -2.298  0.00  0.00    +0.048 A 
ATOM     15  C   UNL     1      -4.204   5.550  -2.553  0.00  0.00    +0.046 A 
ATOM     16 CL   UNL     1      -5.727   5.414  -1.731  0.00  0.00    -0.083 Cl
ENDBRANCH   1  13
BRANCH   6  17
ATOM     17  C   UNL     1       2.563   4.065  -1.897  0.00  0.00    +0.284 C 
ATOM     18  O   UNL     1       3.493   3.350  -1.575  0.00  0.00    -0.267 OA
ATOM     19  N   UNL     1       2.738   5.398  -1.989  0.00  0.00    -0.202 N 
ATOM     20  H   UNL     1       1.980   5.975  -2.173  0.00  0.00    +0.178 HD
BRANCH  19  21
ATOM     21  N   UNL     1       4.014   5.950  -1.819  0.00  0.00    -0.187 NA
ATOM     22  C   UNL     1       4.168   7.239  -1.811  0.00  0.00    +0.139 C 
BRANCH  22  23
ATOM     23  C   UNL     1       2.989   8.122  -1.744  0.00  0.00    +0.013 A 
ATOM     24  C   UNL     1       1.809   7.673  -1.145  0.00  0.00    +0.012 A 
ATOM     25  C   UNL     1       0.710   8.503  -1.086  0.00  0.00    +0.021 A 
ATOM     26  C   UNL     1       0.773   9.780  -1.618  0.00  0.00    +0.042 A 
ATOM     27  C   UNL     1       1.938  10.233  -2.212  0.00  0.00    +0.040 A 
ATOM     28  C   UNL     1       3.048   9.414  -2.275  0.00  0.00    +0.051 A 
ATOM     29 CL   UNL     1       4.511   9.985  -3.015  0.00  0.00    -0.083 Cl
ATOM     30 CL   UNL     1      -0.616  10.819  -1.538  0.00  0.00    -0.083 Cl
ENDBRANCH  22  23
ENDBRANCH  19  21
ENDBRANCH   6  17
BRANCH   4  31
ATOM     31  C   UNL     1      -0.404   0.134  -2.486  0.00  0.00    +0.105 C 
ATOM     32  N   UNL     1      -0.591  -0.986  -2.503  0.00  0.00    -0.191 NA
ENDBRANCH   4  31
TORSDOF 5
