REMARK  Name = ZINC37920418
REMARK  3 active torsions:
REMARK  status: ('A' for Active; 'I' for Inactive)
REMARK    1  A    between atoms: C_12  and  C_13
REMARK    2  A    between atoms: N_15  and  C_16
REMARK    3  A    between atoms: C_16  and  C_17
REMARK                            x       y       z     vdW  Elec       q    Type
REMARK                         _______ _______ _______ _____ _____    ______ ____
ROOT
ATOM      1  C   UNL     1      -0.017   1.374   0.010  0.00  0.00    +0.027 A 
ATOM      2  C   UNL     1       1.184   2.080   0.002  0.00  0.00    +0.013 A 
ATOM      3  C   UNL     1       2.407   1.390  -0.013  0.00  0.00    +0.048 A 
ATOM      4  C   UNL     1       2.406  -0.001  -0.021  0.00  0.00    +0.042 A 
ATOM      5  C   UNL     1       1.211  -0.688  -0.014  0.00  0.00    +0.034 A 
ATOM      6  C   UNL     1       0.002  -0.004   0.002  0.00  0.00    +0.033 A 
ATOM      7 BR   UNL     1      -1.625  -0.968   0.013  0.00  0.00    -0.049 Br
ATOM      8 BR   UNL     1       1.218  -2.579  -0.025  0.00  0.00    -0.049 Br
ATOM      9  N   UNL     1       3.414   2.334  -0.018  0.00  0.00    -0.360 N 
ATOM     10  H   UNL     1       4.362   2.131  -0.028  0.00  0.00    +0.165 HD
ATOM     11  C   UNL     1       2.891   3.584  -0.006  0.00  0.00    +0.096 A 
ATOM     12  C   UNL     1       1.529   3.514   0.007  0.00  0.00    +0.062 A 
ENDROOT
BRANCH  12  13
ATOM     13  C   UNL     1       0.590   4.644   0.022  0.00  0.00    +0.246 C 
ATOM     14  O   UNL     1      -0.609   4.439   0.033  0.00  0.00    -0.270 OA
ATOM     15  N   UNL     1       1.058   5.908   0.025  0.00  0.00    -0.304 N 
ATOM     16  H   UNL     1       2.014   6.071   0.017  0.00  0.00    +0.149 HD
BRANCH  15  17
ATOM     17  C   UNL     1       0.122   7.035   0.041  0.00  0.00    +0.182 C 
BRANCH  17  18
ATOM     18  C   UNL     1       0.894   8.329   0.041  0.00  0.00    +0.168 A 
ATOM     19  N   UNL     1       1.280   9.000  -1.044  0.00  0.00    -0.218 NA
ATOM     20  H   UNL     1       2.386  10.804   1.202  0.00  0.00    +0.190 HD
ATOM     21  C   UNL     1       1.929  10.080  -0.690  0.00  0.00    +0.216 A 
ATOM     22  N   UNL     1       1.971  10.120   0.653  0.00  0.00    -0.265 N 
ATOM     23  N   UNL     1       1.289   8.978   1.104  0.00  0.00    -0.156 NA
ENDBRANCH  17  18
ENDBRANCH  15  17
ENDBRANCH  12  13
TORSDOF 3
