REMARK  Name = ZINC36507384
REMARK  14 active torsions:
REMARK  status: ('A' for Active; 'I' for Inactive)
REMARK    1  A    between atoms: C_1  and  C_2
REMARK    2  A    between atoms: C_2  and  C_3
REMARK    3  A    between atoms: C_3  and  C_4
REMARK    4  A    between atoms: C_4  and  C_5
REMARK    5  A    between atoms: N_7  and  C_8
REMARK    6  A    between atoms: N_7  and  C_14
REMARK    7  A    between atoms: C_8  and  C_9
REMARK    8  A    between atoms: C_14  and  C_16
REMARK    9  A    between atoms: C_14  and  C_25
REMARK   10  A    between atoms: C_19  and  N_22
REMARK   11  A    between atoms: N_27  and  C_28
REMARK   12  A    between atoms: C_28  and  S_29
REMARK   13  A    between atoms: S_29  and  C_32
REMARK   14  A    between atoms: C_35  and  C_38
REMARK                            x       y       z     vdW  Elec       q    Type
REMARK                         _______ _______ _______ _____ _____    ______ ____
ROOT
ATOM      1  C   UNL     1       1.613  -3.586  -3.795  0.00  0.00    +0.193 C 
ENDROOT
BRANCH   1   2
ATOM      2  C   UNL     1       0.344  -4.274  -3.363  0.00  0.00    -0.018 A 
ATOM      3  C   UNL     1       0.253  -4.826  -2.099  0.00  0.00    +0.008 A 
ATOM      4  C   UNL     1      -0.912  -5.456  -1.702  0.00  0.00    +0.033 A 
ATOM      5  C   UNL     1      -1.985  -5.534  -2.569  0.00  0.00    +0.126 A 
ATOM      6  C   UNL     1      -1.895  -4.981  -3.833  0.00  0.00    +0.033 A 
ATOM      7  C   UNL     1      -0.732  -4.347  -4.228  0.00  0.00    +0.008 A 
BRANCH   5   8
ATOM      8  N   UNL     1      -3.232  -6.210  -2.145  0.00  0.00    +0.056 N 
ATOM      9  O   UNL     1      -3.311  -6.694  -1.040  0.00  0.00    -0.126 OA
ATOM     10  O   UNL     1      -4.171  -6.278  -2.904  0.00  0.00    -0.126 OA
ENDBRANCH   5   8
ENDBRANCH   1   2
BRANCH   1  11
ATOM     11  C   UNL     1       2.683  -4.618  -4.045  0.00  0.00    +0.239 C 
ATOM     12  O   UNL     1       3.185  -5.209  -3.113  0.00  0.00    -0.273 OA
ATOM     13  N   UNL     1       3.082  -4.884  -5.305  0.00  0.00    -0.294 N 
ATOM     14  H   UNL     1       2.680  -4.411  -6.051  0.00  0.00    +0.150 HD
BRANCH  13  15
ATOM     15  C   UNL     1       4.121  -5.887  -5.548  0.00  0.00    +0.278 C 
BRANCH  15  16
ATOM     16  S   UNL     1       3.346  -7.484  -5.918  0.00  0.00    +0.013 S 
ATOM     17  O   UNL     1       4.340  -8.454  -6.219  0.00  0.00    -0.168 OA
ATOM     18  O   UNL     1       2.325  -7.764  -4.970  0.00  0.00    -0.168 OA
BRANCH  16  19
ATOM     19  C   UNL     1       2.491  -7.231  -7.438  0.00  0.00    +0.090 A 
ATOM     20  C   UNL     1       1.180  -6.793  -7.429  0.00  0.00    +0.027 A 
ATOM     21  C   UNL     1       0.509  -6.594  -8.621  0.00  0.00    +0.005 A 
ATOM     22  C   UNL     1       1.150  -6.834  -9.823  0.00  0.00    -0.050 A 
ATOM     23  C   UNL     1       2.461  -7.272  -9.832  0.00  0.00    +0.005 A 
ATOM     24  C   UNL     1       3.133  -7.467  -8.639  0.00  0.00    +0.027 A 
ATOM     25  C   UNL     1       0.418  -6.619 -11.123  0.00  0.00    +0.044 C 
ENDBRANCH  16  19
ENDBRANCH  15  16
ENDBRANCH  13  15
ENDBRANCH   1  11
BRANCH   1  28
ATOM     26  C   UNL     1       1.336  -1.565  -2.463  0.00  0.00    +0.217 C 
ATOM     27  O   UNL     1       0.322  -1.329  -3.086  0.00  0.00    -0.276 OA
ATOM     28  N   UNL     1       2.056  -2.670  -2.741  0.00  0.00    -0.279 N 
BRANCH  26  29
ATOM     29  C   UNL     1       1.792  -0.622  -1.379  0.00  0.00    +0.096 C 
BRANCH  29  30
ATOM     30  C   UNL     1       0.805   0.542  -1.268  0.00  0.00    +0.009 C 
BRANCH  30  32
ATOM     31  C   UNL     1       0.280   2.663  -0.056  0.00  0.00    +0.004 C 
ATOM     32  C   UNL     1       1.267   1.499  -0.168  0.00  0.00    -0.003 C 
ENDBRANCH  30  32
ENDBRANCH  29  30
ENDBRANCH  26  29
BRANCH  28  33
ATOM     33  C   UNL     1       3.281  -2.955  -1.990  0.00  0.00    +0.183 C 
BRANCH  33  34
ATOM     34  C   UNL     1       2.926  -3.626  -0.688  0.00  0.00    +0.122 A 
ATOM     35  C   UNL     1       3.291  -4.866  -0.317  0.00  0.00    +0.046 A 
ATOM     36  C   UNL     1       2.745  -5.087   0.969  0.00  0.00    +0.041 A 
ATOM     37  C   UNL     1       2.080  -3.968   1.307  0.00  0.00    +0.195 A 
ATOM     38  O   UNL     1       2.198  -3.084   0.302  0.00  0.00    -0.466 OA
ENDBRANCH  33  34
ENDBRANCH  28  33
ENDBRANCH   1  28
TORSDOF 12
