REMARK  Name = ZINC14369514
REMARK  5 active torsions:
REMARK  status: ('A' for Active; 'I' for Inactive)
REMARK    1  A    between atoms: C_3  and  C_24
REMARK    2  A    between atoms: C_5  and  N_7
REMARK    3  A    between atoms: C_8  and  C_10
REMARK    4  A    between atoms: C_11  and  C_12
REMARK    5  A    between atoms: C_15  and  N_18
REMARK                            x       y       z     vdW  Elec       q    Type
REMARK                         _______ _______ _______ _____ _____    ______ ____
ROOT
ATOM      1  N   UNL     1       2.959   4.038  -0.047  0.00  0.00    -0.282 N 
ATOM      2  C   UNL     1       4.178   3.480   0.100  0.00  0.00    +0.241 C 
ATOM      3  O   UNL     1       4.290   2.269   0.156  0.00  0.00    -0.270 OA
ATOM      4  H   UNL     1       2.876   4.998  -0.154  0.00  0.00    +0.155 HD
ENDROOT
BRANCH   1   9
ATOM      5  C   UNL     1      -0.496   2.908   0.524  0.00  0.00    +0.002 A 
ATOM      6  C   UNL     1      -0.460   1.643  -0.028  0.00  0.00    +0.012 A 
ATOM      7  C   UNL     1       0.719   1.165  -0.602  0.00  0.00    +0.021 A 
ATOM      8  C   UNL     1       1.861   1.965  -0.606  0.00  0.00    +0.035 A 
ATOM      9  C   UNL     1       1.817   3.232  -0.045  0.00  0.00    +0.034 A 
ATOM     10  C   UNL     1       0.636   3.701   0.519  0.00  0.00    +0.023 A 
BRANCH   7  11
ATOM     11  C   UNL     1       0.758  -0.188  -1.198  0.00  0.00    +0.164 A 
ATOM     12  N   UNL     1      -0.082  -1.174  -0.964  0.00  0.00    -0.129 NA
ATOM     13  N   UNL     1       0.249  -2.203  -1.662  0.00  0.00    -0.134 NA
ATOM     14  C   UNL     1       1.312  -1.937  -2.369  0.00  0.00    +0.134 A 
ATOM     15  N   UNL     1       1.676  -0.657  -2.092  0.00  0.00    -0.311 N 
ATOM     16  C   UNL     1       2.830   0.058  -2.638  0.00  0.00    +0.125 C 
ATOM     17  C   UNL     1       3.166  -0.504  -4.022  0.00  0.00    +0.022 C 
ATOM     18  C   UNL     1       4.147  -1.668  -3.881  0.00  0.00    +0.002 C 
ATOM     19  C   UNL     1       3.526  -2.796  -3.064  0.00  0.00    +0.008 C 
ATOM     20  C   UNL     1       2.019  -2.857  -3.331  0.00  0.00    +0.076 C 
ENDBRANCH   7  11
ENDBRANCH   1   9
BRANCH   2  21
ATOM     21  C   UNL     1       5.364   4.329   0.194  0.00  0.00    +0.068 C 
ATOM     22  C   UNL     1       6.584   3.770   0.341  0.00  0.00    +0.013 C 
BRANCH  22  23
ATOM     23  C   UNL     1       7.777   4.624   0.435  0.00  0.00    -0.025 A 
ATOM     24  C   UNL     1       7.651   6.016   0.365  0.00  0.00    +0.010 A 
ATOM     25  C   UNL     1       8.770   6.812   0.459  0.00  0.00    +0.024 A 
ATOM     26  C   UNL     1      10.027   6.234   0.612  0.00  0.00    +0.036 A 
ATOM     27  C   UNL     1      10.157   4.850   0.675  0.00  0.00    +0.024 A 
ATOM     28  C   UNL     1       9.043   4.047   0.588  0.00  0.00    +0.010 A 
BRANCH  26  29
ATOM     29  N   UNL     1      11.159   7.044   0.701  0.00  0.00    -0.271 N 
ATOM     30  C   UNL     1      12.536   6.540   0.745  0.00  0.00    +0.114 C 
ATOM     31  C   UNL     1      13.388   7.716   1.274  0.00  0.00    +0.029 C 
ATOM     32  C   UNL     1      12.534   8.936   0.859  0.00  0.00    +0.098 C 
ATOM     33  C   UNL     1      11.128   8.387   0.752  0.00  0.00    +0.220 C 
ATOM     34  O   UNL     1      10.120   9.061   0.720  0.00  0.00    -0.275 OA
ENDBRANCH  26  29
ENDBRANCH  22  23
ENDBRANCH   2  21
TORSDOF 5
