REMARK  Name = ZINC07061182
REMARK  7 active torsions:
REMARK  status: ('A' for Active; 'I' for Inactive)
REMARK    1  A    between atoms: C_1  and  C_2
REMARK    2  A    between atoms: C_2  and  C_29
REMARK    3  A    between atoms: C_13  and  C_15
REMARK    4  A    between atoms: C_15  and  O_16
REMARK    5  A    between atoms: O_16  and  C_17
REMARK    6  A    between atoms: C_17  and  C_19
REMARK    7  A    between atoms: C_19  and  C_22
REMARK                            x       y       z     vdW  Elec       q    Type
REMARK                         _______ _______ _______ _____ _____    ______ ____
ROOT
ATOM      1  C   UNL     1      -2.306   2.335  -3.313  0.00  0.00    +0.042 C 
ATOM      2  C   UNL     1      -0.870   1.922  -3.641  0.00  0.00    +0.113 C 
ATOM      3  C   UNL     1      -0.874   0.969  -4.803  0.00  0.00    +0.241 C 
ATOM      4  O   UNL     1      -1.735   1.064  -5.652  0.00  0.00    -0.273 OA
ATOM      5  N   UNL     1       0.062   0.007  -4.911  0.00  0.00    -0.282 N 
ATOM      6  C   UNL     1       1.035  -0.158  -3.919  0.00  0.00    +0.055 A 
ATOM      7  C   UNL     1       2.156  -0.939  -4.149  0.00  0.00    +0.025 A 
ATOM      8  C   UNL     1       3.101  -1.097  -3.152  0.00  0.00    +0.002 A 
ATOM      9  C   UNL     1       2.933  -0.480  -1.925  0.00  0.00    +0.002 A 
ATOM     10  C   UNL     1       1.818   0.304  -1.688  0.00  0.00    +0.025 A 
ATOM     11  C   UNL     1       0.870   0.467  -2.682  0.00  0.00    +0.059 A 
ATOM     12  N   UNL     1      -0.270   1.259  -2.473  0.00  0.00    -0.253 N 
ATOM     13  C   UNL     1      -0.801   1.403  -1.243  0.00  0.00    +0.258 C 
ATOM     14  O   UNL     1      -1.843   2.007  -1.099  0.00  0.00    -0.271 OA
ATOM     15  C   UNL     1      -0.049   3.161  -4.004  0.00  0.00    +0.042 C 
ATOM     16  H   UNL     1       0.062  -0.578  -5.684  0.00  0.00    +0.155 HD
ENDROOT
BRANCH  13  17
ATOM     17  C   UNL     1      -0.100   0.814  -0.046  0.00  0.00    +0.328 C 
BRANCH  17  18
ATOM     18  O   UNL     1      -0.982   0.866   1.106  0.00  0.00    -0.455 OA
BRANCH  18  19
ATOM     19  C   UNL     1      -0.505   0.377   2.261  0.00  0.00    +0.318 C 
ATOM     20  O   UNL     1       0.613  -0.079   2.309  0.00  0.00    -0.250 OA
BRANCH  19  21
ATOM     21  C   UNL     1      -1.364   0.396   3.499  0.00  0.00    +0.093 C 
ATOM     22  C   UNL     1      -0.948   1.335   4.633  0.00  0.00    +0.024 C 
ATOM     23  C   UNL     1      -0.764  -0.176   4.785  0.00  0.00    +0.024 C 
BRANCH  21  24
ATOM     24  C   UNL     1      -2.840   0.192   3.270  0.00  0.00    -0.031 A 
ATOM     25  C   UNL     1      -3.595  -0.496   4.201  0.00  0.00    +0.006 A 
ATOM     26  C   UNL     1      -4.949  -0.679   3.994  0.00  0.00    +0.020 A 
ATOM     27  C   UNL     1      -5.547  -0.181   2.849  0.00  0.00    +0.041 A 
ATOM     28  C   UNL     1      -4.790   0.503   1.915  0.00  0.00    +0.020 A 
ATOM     29  C   UNL     1      -3.436   0.689   2.126  0.00  0.00    +0.006 A 
ATOM     30 CL   UNL     1      -7.247  -0.415   2.585  0.00  0.00    -0.084 Cl
ENDBRANCH  21  24
ENDBRANCH  19  21
ENDBRANCH  18  19
ENDBRANCH  17  18
ENDBRANCH  13  17
TORSDOF 5
