REMARK  Name = ZINC40994429
REMARK  11 active torsions:
REMARK  status: ('A' for Active; 'I' for Inactive)
REMARK    1  A    between atoms: C_1  and  C_2
REMARK    2  A    between atoms: C_5  and  C_36
REMARK    3  A    between atoms: C_6  and  O_8
REMARK    4  A    between atoms: O_8  and  C_9
REMARK    5  A    between atoms: C_9  and  C_11
REMARK    6  A    between atoms: C_9  and  C_12
REMARK    7  A    between atoms: N_14  and  C_15
REMARK    8  A    between atoms: C_16  and  C_24
REMARK    9  A    between atoms: C_26  and  C_29
REMARK   10  A    between atoms: C_36  and  C_37
REMARK   11  A    between atoms: C_36  and  C_38
REMARK                            x       y       z     vdW  Elec       q    Type
REMARK                         _______ _______ _______ _____ _____    ______ ____
ROOT
ATOM      1  C   UNL     1      -1.089  -2.932   6.980  0.00  0.00    +0.085 A 
ATOM      2  C   UNL     1      -1.287  -2.531   8.293  0.00  0.00    +0.071 A 
ATOM      3  C   UNL     1      -1.887  -3.482   9.211  0.00  0.00    -0.023 A 
ATOM      4  C   UNL     1      -2.204  -4.692   8.696  0.00  0.00    -0.004 A 
ATOM      5  S   UNL     1      -1.726  -4.598   6.992  0.00  0.00    -0.077 S 
ATOM      6  C   UNL     1      -2.827  -5.848   9.414  0.00  0.00    +0.043 C 
ATOM      7  C   UNL     1      -2.720  -5.596  10.925  0.00  0.00    +0.005 C 
ATOM      8  C   UNL     1      -3.183  -4.166  11.218  0.00  0.00    +0.005 C 
ATOM      9  C   UNL     1      -2.159  -3.167  10.679  0.00  0.00    +0.037 C 
ENDROOT
BRANCH   2  10
ATOM     10  C   UNL     1      -0.900  -1.185   8.741  0.00  0.00    +0.261 A 
ATOM     11  N   UNL     1      -0.356  -0.248   7.993  0.00  0.00    -0.187 NA
ATOM     12  C   UNL     1      -0.136   0.852   8.728  0.00  0.00    +0.202 A 
ATOM     13  N   UNL     1      -0.538   0.630   9.956  0.00  0.00    -0.056 NA
ATOM     14  O   UNL     1      -1.046  -0.695   9.986  0.00  0.00    -0.332 OA
BRANCH  12  15
ATOM     15  C   UNL     1       0.465   2.115   8.232  0.00  0.00    +0.023 A 
ATOM     16  C   UNL     1       0.848   2.229   6.897  0.00  0.00    +0.014 A 
ATOM     17  C   UNL     1       1.406   3.405   6.439  0.00  0.00    +0.039 A 
ATOM     18  C   UNL     1       1.585   4.472   7.306  0.00  0.00    +0.123 A 
ATOM     19  C   UNL     1       1.205   4.363   8.634  0.00  0.00    +0.039 A 
ATOM     20  C   UNL     1       0.642   3.192   9.098  0.00  0.00    +0.014 A 
ATOM     21  F   UNL     1       2.132   5.622   6.854  0.00  0.00    -0.205 F 
ENDBRANCH  12  15
ENDBRANCH   2  10
BRANCH   1  24
ATOM     22  C   UNL     1      -0.438  -2.785   4.706  0.00  0.00    +0.258 C 
ATOM     23  O   UNL     1      -0.825  -3.921   4.533  0.00  0.00    -0.271 OA
ATOM     24  N   UNL     1      -0.541  -2.216   5.923  0.00  0.00    -0.276 N 
ATOM     25  H   UNL     1      -0.233  -1.307   6.062  0.00  0.00    +0.155 HD
BRANCH  22  26
ATOM     26  C   UNL     1       0.156  -2.008   3.559  0.00  0.00    +0.256 C 
ATOM     27  C   UNL     1       1.630  -1.718   3.850  0.00  0.00    +0.062 C 
BRANCH  26  28
ATOM     28  O   UNL     1       0.050  -2.776   2.358  0.00  0.00    -0.480 OA
BRANCH  28  34
ATOM     29  C   UNL     1       0.425   1.475  -0.012  0.00  0.00    +0.044 C 
ATOM     30  C   UNL     1       0.214  -0.018  -0.009  0.00  0.00    -0.047 A 
ATOM     31  C   UNL     1       0.005  -0.688  -1.200  0.00  0.00    +0.004 A 
ATOM     32  C   UNL     1      -0.189  -2.057  -1.200  0.00  0.00    +0.008 A 
ATOM     33  C   UNL     1      -0.174  -2.758  -0.010  0.00  0.00    -0.003 A 
ATOM     34  C   UNL     1       0.035  -2.088   1.186  0.00  0.00    +0.125 A 
ATOM     35  C   UNL     1       0.236  -0.715   1.184  0.00  0.00    +0.049 A 
BRANCH  33  36
ATOM     36  C   UNL     1      -0.386  -4.250  -0.011  0.00  0.00    +0.016 C 
ATOM     37  C   UNL     1      -1.757  -4.570  -0.611  0.00  0.00    +0.012 C 
ATOM     38  C   UNL     1       0.706  -4.920  -0.847  0.00  0.00    +0.012 C 
ENDBRANCH  33  36
ENDBRANCH  28  34
ENDBRANCH  26  28
ENDBRANCH  22  26
ENDBRANCH   1  24
TORSDOF 7
