REMARK  Name = ZINC36398078
REMARK  10 active torsions:
REMARK  status: ('A' for Active; 'I' for Inactive)
REMARK    1  A    between atoms: C_1  and  C_2
REMARK    2  A    between atoms: C_5  and  C_30
REMARK    3  A    between atoms: C_6  and  O_8
REMARK    4  A    between atoms: O_8  and  C_9
REMARK    5  A    between atoms: C_9  and  C_10
REMARK    6  A    between atoms: N_12  and  C_13
REMARK    7  A    between atoms: C_17  and  C_20
REMARK    8  A    between atoms: C_18  and  C_19
REMARK    9  A    between atoms: C_30  and  C_31
REMARK   10  A    between atoms: C_30  and  C_32
REMARK                            x       y       z     vdW  Elec       q    Type
REMARK                         _______ _______ _______ _____ _____    ______ ____
ROOT
ATOM      1  C   UNL     1      -0.016  -3.325   7.069  0.00  0.00    +0.037 A 
ATOM      2  C   UNL     1       0.017  -4.693   6.830  0.00  0.00    +0.023 A 
ATOM      3  C   UNL     1      -0.055  -5.585   7.884  0.00  0.00    +0.003 A 
ATOM      4  C   UNL     1      -0.160  -5.122   9.180  0.00  0.00    +0.012 A 
ATOM      5  C   UNL     1      -0.194  -3.750   9.430  0.00  0.00    +0.024 A 
ATOM      6  C   UNL     1      -0.116  -2.850   8.368  0.00  0.00    -0.019 A 
ATOM      7  C   UNL     1      -0.146  -1.367   8.630  0.00  0.00    +0.046 C 
ENDROOT
BRANCH   5   8
ATOM      8  C   UNL     1      -0.307  -3.252  10.818  0.00  0.00    +0.165 A 
ATOM      9  N   UNL     1      -1.166  -2.359  11.264  0.00  0.00    -0.129 NA
ATOM     10  N   UNL     1      -0.983  -2.172  12.525  0.00  0.00    -0.134 NA
ATOM     11  C   UNL     1      -0.010  -2.929  12.950  0.00  0.00    +0.134 A 
ATOM     12  N   UNL     1       0.455  -3.633  11.884  0.00  0.00    -0.311 N 
ATOM     13  C   UNL     1       1.561  -4.590  11.888  0.00  0.00    +0.125 C 
ATOM     14  C   UNL     1       1.677  -5.225  13.276  0.00  0.00    +0.022 C 
ATOM     15  C   UNL     1       2.604  -4.383  14.152  0.00  0.00    +0.002 C 
ATOM     16  C   UNL     1       2.039  -2.978  14.334  0.00  0.00    +0.008 C 
ATOM     17  C   UNL     1       0.514  -3.033  14.359  0.00  0.00    +0.076 C 
ENDBRANCH   5   8
BRANCH   1  20
ATOM     18  C   UNL     1       0.642  -2.798   4.845  0.00  0.00    +0.255 C 
ATOM     19  O   UNL     1       1.194  -3.875   4.764  0.00  0.00    -0.272 OA
ATOM     20  N   UNL     1       0.057  -2.425   6.000  0.00  0.00    -0.282 N 
ATOM     21  H   UNL     1      -0.314  -1.534   6.090  0.00  0.00    +0.155 HD
BRANCH  18  22
ATOM     22  C   UNL     1       0.611  -1.877   3.652  0.00  0.00    +0.324 C 
BRANCH  22  23
ATOM     23  O   UNL     1       1.293  -2.492   2.557  0.00  0.00    -0.482 OA
BRANCH  23  29
ATOM     24  C   UNL     1       0.208   1.546   0.040  0.00  0.00    +0.044 C 
ATOM     25  C   UNL     1       0.840   0.181   0.132  0.00  0.00    -0.047 A 
ATOM     26  C   UNL     1       1.486  -0.356  -0.967  0.00  0.00    +0.004 A 
ATOM     27  C   UNL     1       2.067  -1.608  -0.886  0.00  0.00    +0.008 A 
ATOM     28  C   UNL     1       2.004  -2.325   0.293  0.00  0.00    -0.003 A 
ATOM     29  C   UNL     1       1.357  -1.788   1.396  0.00  0.00    +0.125 A 
ATOM     30  C   UNL     1       0.779  -0.529   1.314  0.00  0.00    +0.049 A 
BRANCH  28  31
ATOM     31  C   UNL     1       2.637  -3.690   0.380  0.00  0.00    +0.016 C 
ATOM     32  C   UNL     1       1.992  -4.618  -0.651  0.00  0.00    +0.012 C 
ATOM     33  C   UNL     1       4.136  -3.576   0.098  0.00  0.00    +0.012 C 
ENDBRANCH  28  31
ENDBRANCH  23  29
ENDBRANCH  22  23
ENDBRANCH  18  22
ENDBRANCH   1  20
TORSDOF 6
