REMARK  Name = ZINC04188182
REMARK  12 active torsions:
REMARK  status: ('A' for Active; 'I' for Inactive)
REMARK    1  A    between atoms: C_1  and  C_2
REMARK    2  A    between atoms: C_2  and  O_3
REMARK    3  A    between atoms: O_3  and  C_4
REMARK    4  A    between atoms: C_6  and  C_12
REMARK    5  A    between atoms: C_9  and  O_10
REMARK    6  A    between atoms: O_10  and  C_11
REMARK    7  A    between atoms: C_21  and  O_29
REMARK    8  A    between atoms: C_22  and  O_26
REMARK    9  A    between atoms: O_26  and  C_27
REMARK   10  A    between atoms: C_27  and  C_28
REMARK   11  A    between atoms: O_29  and  C_30
REMARK   12  A    between atoms: C_30  and  C_31
REMARK                            x       y       z     vdW  Elec       q    Type
REMARK                         _______ _______ _______ _____ _____    ______ ____
ROOT
ATOM      1  C   UNL     1      -1.873   5.220   2.047  0.00  0.00    +0.008 C 
ATOM      2  C   UNL     1      -0.989   6.044   1.155  0.00  0.00    +0.014 A 
ATOM      3  C   UNL     1      -0.874   7.382   1.097  0.00  0.00    +0.022 A 
ATOM      4  C   UNL     1       0.088   7.681   0.108  0.00  0.00    +0.020 A 
ATOM      5  C   UNL     1       0.525   6.507  -0.403  0.00  0.00    +0.091 A 
ATOM      6  N   UNL     1      -0.132   5.509   0.232  0.00  0.00    -0.321 N 
ATOM      7  C   UNL     1      -0.048   4.114   0.067  0.00  0.00    +0.051 A 
ATOM      8  C   UNL     1       1.163   3.452   0.031  0.00  0.00    +0.075 A 
ATOM      9  C   UNL     1       1.182   2.065   0.002  0.00  0.00    +0.164 A 
ATOM     10  C   UNL     1      -0.016   1.356   0.009  0.00  0.00    +0.162 A 
ATOM     11  C   UNL     1      -1.228   2.029   0.019  0.00  0.00    +0.053 A 
ATOM     12  C   UNL     1      -1.248   3.410   0.031  0.00  0.00    -0.037 A 
ATOM     13  C   UNL     1      -2.536   4.173  -0.032  0.00  0.00    -0.043 C 
ATOM     14  N   UNL     1      -3.006   4.657   1.282  0.00  0.00    +0.390 N 
ATOM     15  H   UNL     1      -3.716   5.385   1.142  0.00  0.00    -0.084 HD
ATOM     16  H   UNL     1      -3.415   3.875   1.806  0.00  0.00    -0.084 HD
ENDROOT
BRANCH   1  19
ATOM     17  C   UNL     1      -2.307   6.860   5.423  0.00  0.00    +0.162 A 
ATOM     18  C   UNL     1      -1.814   6.062   4.403  0.00  0.00    +0.051 A 
ATOM     19  C   UNL     1      -2.410   6.088   3.156  0.00  0.00    -0.052 A 
ATOM     20  C   UNL     1      -3.494   6.914   2.922  0.00  0.00    +0.006 A 
ATOM     21  C   UNL     1      -3.994   7.708   3.937  0.00  0.00    +0.049 A 
ATOM     22  C   UNL     1      -3.401   7.686   5.189  0.00  0.00    +0.162 A 
BRANCH  22  23
ATOM     23  O   UNL     1      -3.888   8.472   6.187  0.00  0.00    -0.491 OA
ATOM     24  C   UNL     1      -5.014   9.294   5.875  0.00  0.00    +0.277 C 
ENDBRANCH  22  23
BRANCH  17  25
ATOM     25  O   UNL     1      -1.722   6.835   6.651  0.00  0.00    -0.489 OA
BRANCH  25  27
ATOM     26  C   UNL     1      -0.083   6.069   8.253  0.00  0.00    +0.048 C 
ATOM     27  C   UNL     1      -0.603   5.962   6.818  0.00  0.00    +0.226 C 
ENDBRANCH  25  27
ENDBRANCH  17  25
ENDBRANCH   1  19
BRANCH  10  28
ATOM     28  O   UNL     1       0.002  -0.004   0.002  0.00  0.00    -0.489 OA
BRANCH  28  29
ATOM     29  C   UNL     1      -1.262  -0.670   0.011  0.00  0.00    +0.226 C 
ATOM     30  C   UNL     1      -1.041  -2.184   0.000  0.00  0.00    +0.048 C 
ENDBRANCH  28  29
ENDBRANCH  10  28
BRANCH   9  31
ATOM     31  O   UNL     1       2.367   1.400  -0.034  0.00  0.00    -0.489 OA
BRANCH  31  32
ATOM     32  C   UNL     1       3.556   2.193  -0.040  0.00  0.00    +0.226 C 
ATOM     33  C   UNL     1       4.780   1.276  -0.082  0.00  0.00    +0.048 C 
ENDBRANCH  31  32
ENDBRANCH   9  31
TORSDOF 8
