REMARK  Name = ZINC12682714
REMARK  6 active torsions:
REMARK  status: ('A' for Active; 'I' for Inactive)
REMARK    1  A    between atoms: C_1  and  C_2
REMARK    2  A    between atoms: C_9  and  C_11
REMARK    3  A    between atoms: C_11  and  O_13
REMARK    4  A    between atoms: O_13  and  C_14
REMARK    5  A    between atoms: C_14  and  C_15
REMARK    6  A    between atoms: N_17  and  C_18
REMARK                            x       y       z     vdW  Elec       q    Type
REMARK                         _______ _______ _______ _____ _____    ______ ____
ROOT
ATOM      1  C   UNL     1       0.045   2.398   8.195  0.00  0.00    +0.255 C 
ATOM      2  O   UNL     1       1.035   1.903   7.699  0.00  0.00    -0.272 OA
ATOM      3  N   UNL     1       0.002   2.636   9.521  0.00  0.00    -0.283 N 
ATOM      4  H   UNL     1      -0.762   3.092   9.907  0.00  0.00    +0.155 HD
ENDROOT
BRANCH   3   5
ATOM      5  C   UNL     1       1.056   2.227  10.337  0.00  0.00    +0.034 A 
ATOM      6  C   UNL     1       0.799   1.786  11.630  0.00  0.00    +0.024 A 
ATOM      7  C   UNL     1       1.834   1.373  12.445  0.00  0.00    +0.014 A 
ATOM      8  C   UNL     1       3.147   1.407  11.976  0.00  0.00    +0.033 A 
ATOM      9  C   UNL     1       3.411   1.858  10.669  0.00  0.00    +0.035 A 
ATOM     10  C   UNL     1       2.362   2.266   9.855  0.00  0.00    +0.035 A 
ATOM     11  C   UNL     1       4.801   1.895  10.166  0.00  0.00    +0.195 C 
ATOM     12  O   UNL     1       5.030   2.284   9.038  0.00  0.00    -0.287 OA
ATOM     13  C   UNL     1       5.911   1.458  11.038  0.00  0.00    +0.033 A 
ATOM     14  C   UNL     1       7.223   1.489  10.574  0.00  0.00    +0.012 A 
ATOM     15  C   UNL     1       8.256   1.078  11.397  0.00  0.00    +0.001 A 
ATOM     16  C   UNL     1       7.995   0.636  12.681  0.00  0.00    +0.001 A 
ATOM     17  C   UNL     1       6.697   0.598  13.159  0.00  0.00    +0.012 A 
ATOM     18  C   UNL     1       5.645   1.008  12.343  0.00  0.00    +0.033 A 
ATOM     19  C   UNL     1       4.256   0.971  12.846  0.00  0.00    +0.195 C 
ATOM     20  O   UNL     1       4.027   0.582  13.974  0.00  0.00    -0.287 OA
ENDBRANCH   3   5
BRANCH   1  21
ATOM     21  C   UNL     1      -1.138   2.747   7.328  0.00  0.00    +0.328 C 
BRANCH  21  22
ATOM     22  O   UNL     1      -0.847   2.397   5.949  0.00  0.00    -0.451 OA
BRANCH  22  23
ATOM     23  C   UNL     1      -1.810   2.647   5.038  0.00  0.00    +0.346 C 
ATOM     24  O   UNL     1      -2.864   3.144   5.387  0.00  0.00    -0.244 OA
BRANCH  23  32
ATOM     25  C   UNL     1      -2.992   1.579  -2.366  0.00  0.00    +0.008 C 
ATOM     26  C   UNL     1      -2.266   1.320  -1.045  0.00  0.00    -0.009 C 
ATOM     27  C   UNL     1      -0.769   1.588  -1.226  0.00  0.00    +0.009 C 
ATOM     28  C   UNL     1      -0.021   1.070   0.011  0.00  0.00    +0.043 C 
ATOM     29  C   UNL     1      -0.729   1.566   1.234  0.00  0.00    -0.006 A 
ATOM     30  C   UNL     1      -1.986   2.099   1.298  0.00  0.00    -0.036 A 
ATOM     31  C   UNL     1      -2.433   2.493   2.548  0.00  0.00    +0.026 A 
ATOM     32  C   UNL     1      -1.587   2.319   3.629  0.00  0.00    +0.097 A 
ATOM     33  S   UNL     1      -0.151   1.593   2.855  0.00  0.00    -0.086 S 
ATOM     34  C   UNL     1      -2.833   2.241   0.036  0.00  0.00    +0.039 C 
ENDBRANCH  23  32
ENDBRANCH  22  23
ENDBRANCH  21  22
ENDBRANCH   1  21
TORSDOF 5
