REMARK  Name = ZINC09234306
REMARK  5 active torsions:
REMARK  status: ('A' for Active; 'I' for Inactive)
REMARK    1  A    between atoms: C_1  and  C_2
REMARK    2  A    between atoms: C_9  and  C_27
REMARK    3  A    between atoms: C_11  and  C_18
REMARK    4  A    between atoms: C_21  and  N_24
REMARK    5  A    between atoms: C_27  and  C_29
REMARK                            x       y       z     vdW  Elec       q    Type
REMARK                         _______ _______ _______ _____ _____    ______ ____
ROOT
ATOM      1  C   UNL     1      -4.831   3.174  -5.328  0.00  0.00    +0.044 C 
ATOM      2  C   UNL     1      -4.021   4.096  -4.454  0.00  0.00    -0.050 A 
ATOM      3  C   UNL     1      -4.277   5.455  -4.456  0.00  0.00    +0.005 A 
ATOM      4  C   UNL     1      -3.538   6.304  -3.659  0.00  0.00    +0.024 A 
ATOM      5  C   UNL     1      -2.528   5.798  -2.843  0.00  0.00    +0.036 A 
ATOM      6  C   UNL     1      -2.282   4.428  -2.847  0.00  0.00    -0.027 A 
ATOM      7  C   UNL     1      -3.021   3.584  -3.646  0.00  0.00    +0.008 A 
ATOM      8  C   UNL     1      -1.154   4.208  -1.876  0.00  0.00    +0.052 C 
ATOM      9  C   UNL     1       0.057   3.569  -2.568  0.00  0.00    +0.069 C 
ATOM     10  C   UNL     1      -0.134   2.058  -2.310  0.00  0.00    +0.016 C 
ATOM     11  C   UNL     1      -0.975   1.989  -1.024  0.00  0.00    -0.047 C 
ATOM     12  C   UNL     1      -1.232   3.938   0.523  0.00  0.00    -0.005 C 
ATOM     13  S   UNL     1      -0.761   2.463   1.531  0.00  0.00    -0.181 S 
ATOM     14  C   UNL     1      -0.095   1.457   0.131  0.00  0.00    +0.052 C 
ATOM     15  C   UNL     1      -0.817   5.582  -1.359  0.00  0.00    +0.212 C 
ATOM     16  O   UNL     1       0.045   5.859  -0.552  0.00  0.00    -0.277 OA
ATOM     17  N   UNL     1      -1.656   6.442  -1.964  0.00  0.00    -0.286 N 
ATOM     18  H   UNL     1      -1.655   7.400  -1.808  0.00  0.00    +0.155 HD
ATOM     19  N   UNL     1      -1.594   3.324  -0.810  0.00  0.00    +0.401 N 
ATOM     20  H   UNL     1      -2.615   3.221  -0.854  0.00  0.00    -0.078 HD
ENDROOT
BRANCH  10  21
ATOM     21  C   UNL     1       1.199   1.387  -2.103  0.00  0.00    -0.045 A 
ATOM     22  C   UNL     1       1.366   0.059  -2.448  0.00  0.00    +0.006 A 
ATOM     23  C   UNL     1       2.590  -0.555  -2.263  0.00  0.00    +0.033 A 
ATOM     24  C   UNL     1       3.645   0.156  -1.722  0.00  0.00    +0.126 A 
ATOM     25  C   UNL     1       3.477   1.482  -1.372  0.00  0.00    +0.033 A 
ATOM     26  C   UNL     1       2.254   2.098  -1.562  0.00  0.00    +0.006 A 
BRANCH  24  27
ATOM     27  N   UNL     1       4.955  -0.503  -1.519  0.00  0.00    +0.056 N 
ATOM     28  O   UNL     1       5.885   0.123  -1.043  0.00  0.00    -0.126 OA
ATOM     29  O   UNL     1       5.103  -1.672  -1.828  0.00  0.00    -0.126 OA
ENDBRANCH  24  27
ENDBRANCH  10  21
BRANCH   9  30
ATOM     30  C   UNL     1       0.038   3.861  -4.046  0.00  0.00    +0.166 C 
ATOM     31  O   UNL     1      -0.553   3.122  -4.803  0.00  0.00    -0.292 OA
BRANCH  30  32
ATOM     32  C   UNL     1       0.738   5.045  -4.571  0.00  0.00    +0.018 A 
ATOM     33  C   UNL     1       1.417   5.904  -3.701  0.00  0.00    +0.011 A 
ATOM     34  C   UNL     1       2.076   7.007  -4.201  0.00  0.00    +0.001 A 
ATOM     35  C   UNL     1       2.057   7.272  -5.559  0.00  0.00    +0.000 A 
ATOM     36  C   UNL     1       1.382   6.430  -6.426  0.00  0.00    +0.001 A 
ATOM     37  C   UNL     1       0.724   5.319  -5.942  0.00  0.00    +0.011 A 
ENDBRANCH  30  32
ENDBRANCH   9  30
TORSDOF 4
