REMARK  Name = ZINC09671784
REMARK  9 active torsions:
REMARK  status: ('A' for Active; 'I' for Inactive)
REMARK    1  A    between atoms: C_1  and  C_2
REMARK    2  A    between atoms: C_3  and  C_16
REMARK    3  A    between atoms: C_4  and  C_15
REMARK    4  A    between atoms: N_5  and  C_7
REMARK    5  A    between atoms: C_7  and  C_8
REMARK    6  A    between atoms: C_16  and  N_61
REMARK    7  A    between atoms: C_17  and  N_61
REMARK    8  A    between atoms: C_18  and  C_19
REMARK    9  A    between atoms: C_18  and  N_61
REMARK                            x       y       z     vdW  Elec       q    Type
REMARK                         _______ _______ _______ _____ _____    ______ ____
ROOT
ATOM      1  C   UNL     1       1.341   7.391   4.667  0.00  0.00    -0.095 C 
ATOM      2  N   UNL     1       0.100   6.587   4.671  0.00  0.00    +0.384 N 
ATOM      3  H   UNL     1      -0.425   6.779   3.810  0.00  0.00    -0.081 HD
ENDROOT
BRANCH   2   4
ATOM      4  C   UNL     1       0.431   5.147   4.720  0.00  0.00    -0.039 C 
BRANCH   4   7
ATOM      5  C   UNL     1       3.543   5.189   4.123  0.00  0.00    +0.068 C 
ATOM      6  C   UNL     1       2.463   4.773   3.158  0.00  0.00    +0.062 A 
ATOM      7  C   UNL     1       1.090   4.755   3.423  0.00  0.00    -0.021 A 
ATOM      8  C   UNL     1       0.456   4.329   2.305  0.00  0.00    +0.038 A 
ATOM      9  N   UNL     1       1.396   4.077   1.370  0.00  0.00    -0.264 N 
ATOM     10  N   UNL     1       2.648   4.367   1.928  0.00  0.00    -0.176 NA
ATOM     11  C   UNL     1      -1.032   4.163   2.136  0.00  0.00    +0.065 C 
BRANCH   9  12
ATOM     12  C   UNL     1       1.150   3.592   0.010  0.00  0.00    +0.180 C 
BRANCH  12  13
ATOM     13  C   UNL     1       1.171   2.086   0.002  0.00  0.00    -0.008 A 
ATOM     14  C   UNL     1      -0.017   1.378   0.010  0.00  0.00    +0.007 A 
ATOM     15  C   UNL     1       0.002  -0.004   0.002  0.00  0.00    +0.000 A 
ATOM     16  C   UNL     1       1.208  -0.680  -0.013  0.00  0.00    +0.001 A 
ATOM     17  C   UNL     1       2.396   0.027  -0.021  0.00  0.00    +0.020 A 
ATOM     18  C   UNL     1       2.378   1.410  -0.013  0.00  0.00    +0.046 A 
ATOM     19 CL   UNL     1       3.870   2.298  -0.023  0.00  0.00    -0.083 Cl
ENDBRANCH  12  13
ENDBRANCH   9  12
ENDBRANCH   4   7
ENDBRANCH   2   4
BRANCH   2  20
ATOM     20  C   UNL     1      -0.735   6.953   5.834  0.00  0.00    -0.022 C 
BRANCH  20  21
ATOM     21  C   UNL     1      -1.239   8.361   5.647  0.00  0.00    +0.033 A 
ATOM     22  C   UNL     1      -2.583   8.607   5.468  0.00  0.00    +0.092 A 
ATOM     23  C   UNL     1      -3.032   9.918   5.302  0.00  0.00    +0.259 A 
ATOM     24  O   UNL     1      -4.222  10.142   5.149  0.00  0.00    -0.267 OA
ATOM     25  N   UNL     1      -2.135  10.950   5.304  0.00  0.00    -0.259 N 
ATOM     26  C   UNL     1      -2.449  12.292   5.141  0.00  0.00    +0.039 A 
ATOM     27  C   UNL     1      -1.452  13.186   5.169  0.00  0.00    +0.013 A 
ATOM     28  S   UNL     1      -0.003  12.195   5.425  0.00  0.00    -0.054 S 
ATOM     29  C   UNL     1      -0.822  10.616   5.482  0.00  0.00    +0.181 A 
ATOM     30  N   UNL     1      -0.393   9.389   5.645  0.00  0.00    -0.229 NA
ATOM     31  C   UNL     1      -1.542  14.670   5.018  0.00  0.00    +0.044 C 
ATOM     32  C   UNL     1      -2.930  15.016   4.458  0.00  0.00    +0.006 C 
ATOM     33  C   UNL     1      -3.985  14.244   5.255  0.00  0.00    +0.006 C 
ATOM     34  C   UNL     1      -3.891  12.752   4.934  0.00  0.00    +0.055 C 
ENDBRANCH  20  21
ENDBRANCH   2  20
TORSDOF 6
