REMARK  Name = ZINC43554477
REMARK  8 active torsions:
REMARK  status: ('A' for Active; 'I' for Inactive)
REMARK    1  A    between atoms: C_1  and  C_2
REMARK    2  A    between atoms: C_5  and  O_32
REMARK    3  A    between atoms: C_7  and  C_29
REMARK    4  A    between atoms: C_7  and  C_30
REMARK    5  A    between atoms: C_17  and  C_19
REMARK    6  A    between atoms: C_19  and  C_20
REMARK    7  A    between atoms: N_22  and  C_23
REMARK    8  A    between atoms: C_30  and  O_31
REMARK                            x       y       z     vdW  Elec       q    Type
REMARK                         _______ _______ _______ _____ _____    ______ ____
ROOT
ATOM      1  C   UNL     1       0.371   1.304   0.048  0.00  0.00    +0.012 C 
ATOM      2  C   UNL     1      -0.059  -0.168  -0.046  0.00  0.00    -0.020 C 
ATOM      3  C   UNL     1      -1.582  -0.230  -0.044  0.00  0.00    +0.010 C 
ATOM      4  C   UNL     1      -2.109   0.421   1.235  0.00  0.00    +0.032 C 
ATOM      5  C   UNL     1      -1.571  -0.258   2.481  0.00  0.00    +0.123 C 
ATOM      6  C   UNL     1      -0.072  -0.507   2.480  0.00  0.00    +0.021 C 
ATOM      7  C   UNL     1       0.473  -0.976   1.132  0.00  0.00    +0.011 C 
ATOM      8  C   UNL     1       0.079  -2.459   0.983  0.00  0.00    +0.049 C 
ATOM      9  C   UNL     1       0.103  -2.899  -0.436  0.00  0.00    +0.013 A 
ATOM     10  C   UNL     1       0.282  -2.138  -1.544  0.00  0.00    +0.032 A 
ATOM     11  N   UNL     1       0.243  -2.800  -2.695  0.00  0.00    -0.341 N 
ATOM     12  C   UNL     1       0.048  -4.102  -2.740  0.00  0.00    +0.134 A 
ATOM     13  S   UNL     1      -0.096  -4.524  -1.116  0.00  0.00    -0.059 S 
ATOM     14  N   UNL     1      -0.021  -4.923  -3.854  0.00  0.00    -0.339 N 
ATOM     15  C   UNL     1       0.533  -0.654  -1.372  0.00  0.00    +0.051 C 
ATOM     16  C   UNL     1       0.671   0.730   3.003  0.00  0.00    +0.016 C 
ATOM     17  H   UNL     1       0.081  -4.546  -4.742  0.00  0.00    +0.144 HD
ATOM     18  H   UNL     1      -0.171  -5.876  -3.747  0.00  0.00    +0.144 HD
ATOM     19  H   UNL     1       0.371  -2.330  -3.533  0.00  0.00    +0.167 HD
ENDROOT
BRANCH   5  20
ATOM     20  O   UNL     1      -2.273  -1.486   2.704  0.00  0.00    -0.391 OA
ATOM     21  H   UNL     1      -3.226  -1.377   2.830  0.00  0.00    +0.210 HD
ENDBRANCH   5  20
BRANCH  15  22
ATOM     22  C   UNL     1      -0.048   0.139  -2.538  0.00  0.00    +0.106 C 
BRANCH  22  23
ATOM     23  C   UNL     1       0.704  -0.198  -3.800  0.00  0.00    +0.218 C 
ATOM     24  O   UNL     1       1.705  -0.880  -3.745  0.00  0.00    -0.275 OA
ATOM     25  N   UNL     1       0.263   0.258  -4.989  0.00  0.00    -0.285 N 
ATOM     26  H   UNL     1      -0.499   0.857  -5.027  0.00  0.00    +0.155 HD
BRANCH  25  27
ATOM     27  C   UNL     1       0.905  -0.132  -6.169  0.00  0.00    +0.033 A 
ATOM     28  C   UNL     1       0.168  -0.335  -7.328  0.00  0.00    +0.023 A 
ATOM     29  C   UNL     1       0.804  -0.720  -8.492  0.00  0.00    +0.002 A 
ATOM     30  C   UNL     1       2.175  -0.904  -8.503  0.00  0.00    +0.000 A 
ATOM     31  C   UNL     1       2.912  -0.703  -7.351  0.00  0.00    +0.002 A 
ATOM     32  C   UNL     1       2.282  -0.312  -6.186  0.00  0.00    +0.023 A 
ENDBRANCH  25  27
ENDBRANCH  22  23
ENDBRANCH  15  22
BRANCH   6  33
ATOM     33  C   UNL     1       0.202  -1.618   3.528  0.00  0.00    +0.165 C 
BRANCH  33  34
ATOM     34  O   UNL     1      -0.238  -1.179   4.815  0.00  0.00    -0.394 OA
ATOM     35  H   UNL     1      -0.097  -1.825   5.520  0.00  0.00    +0.209 HD
ENDBRANCH  33  34
ENDBRANCH   6  33
TORSDOF 6
