REMARK  Name = ZINC38555873
REMARK  12 active torsions:
REMARK  status: ('A' for Active; 'I' for Inactive)
REMARK    1  A    between atoms: C_1  and  O_2
REMARK    2  A    between atoms: O_2  and  C_3
REMARK    3  A    between atoms: C_7  and  N_17
REMARK    4  A    between atoms: C_8  and  C_13
REMARK    5  A    between atoms: C_13  and  O_15
REMARK    6  A    between atoms: O_15  and  C_16
REMARK    7  A    between atoms: C_18  and  C_20
REMARK    8  A    between atoms: C_20  and  N_21
REMARK    9  A    between atoms: C_26  and  O_33
REMARK   10  A    between atoms: C_27  and  O_31
REMARK   11  A    between atoms: O_31  and  C_32
REMARK   12  A    between atoms: O_33  and  C_34
REMARK                            x       y       z     vdW  Elec       q    Type
REMARK                         _______ _______ _______ _____ _____    ______ ____
ROOT
ATOM      1  N   UNL     1      -5.702  -3.308   0.472  0.00  0.00    -0.288 N 
ATOM      2  C   UNL     1      -6.520  -2.248   0.627  0.00  0.00    +0.200 C 
ATOM      3  O   UNL     1      -6.091  -1.124   0.473  0.00  0.00    -0.278 OA
ATOM      4  H   UNL     1      -6.060  -4.208   0.523  0.00  0.00    +0.155 HD
ENDROOT
BRANCH   1   9
ATOM      5  C   UNL     1      -1.170  -5.577  -0.728  0.00  0.00    +0.122 A 
ATOM      6  C   UNL     1      -2.422  -6.193  -0.575  0.00  0.00    +0.046 A 
ATOM      7  C   UNL     1      -3.528  -5.480  -0.259  0.00  0.00    +0.015 A 
ATOM      8  C   UNL     1      -3.433  -4.078  -0.075  0.00  0.00    +0.018 A 
ATOM      9  C   UNL     1      -4.372  -3.115   0.244  0.00  0.00    +0.053 C 
ATOM     10  C   UNL     1      -3.620  -1.804   0.287  0.00  0.00    +0.234 C 
ATOM     11  N   UNL     1      -2.225  -2.127  -0.029  0.00  0.00    -0.367 N 
ATOM     12  C   UNL     1      -2.121  -3.426  -0.235  0.00  0.00    +0.048 A 
ATOM     13  C   UNL     1      -1.007  -4.236  -0.561  0.00  0.00    +0.071 A 
ATOM     14  H   UNL     1      -1.496  -1.489  -0.078  0.00  0.00    +0.161 HD
BRANCH   5  16
ATOM     15  C   UNL     1      -0.317  -7.741  -1.211  0.00  0.00    +0.277 C 
ATOM     16  O   UNL     1      -0.094  -6.339  -1.046  0.00  0.00    -0.495 OA
ENDBRANCH   5  16
BRANCH  10  17
ATOM     17  C   UNL     1      -3.715  -1.196   1.663  0.00  0.00    +0.335 C 
ATOM     18  O   UNL     1      -3.002  -1.599   2.551  0.00  0.00    -0.248 OA
BRANCH  17  19
ATOM     19  O   UNL     1      -4.591  -0.207   1.900  0.00  0.00    -0.466 OA
ATOM     20  C   UNL     1      -4.627   0.322   3.227  0.00  0.00    +0.280 C 
ENDBRANCH  17  19
ENDBRANCH  10  17
ENDBRANCH   1   9
BRANCH   2  21
ATOM     21  C   UNL     1      -7.967  -2.459   0.991  0.00  0.00    +0.019 C 
BRANCH  21  22
ATOM     22  N   UNL     1      -8.639  -1.157   1.100  0.00  0.00    +0.388 N 
ATOM     23  C   UNL     1     -10.022  -1.355   1.561  0.00  0.00    -0.073 C 
ATOM     24  C   UNL     1     -10.602   0.003   1.960  0.00  0.00    +0.017 C 
ATOM     25  C   UNL     1     -10.386   0.997   0.848  0.00  0.00    -0.044 A 
ATOM     26  C   UNL     1     -11.125   2.170   0.855  0.00  0.00    +0.053 A 
ATOM     27  C   UNL     1     -10.955   3.110  -0.147  0.00  0.00    +0.162 A 
ATOM     28  C   UNL     1     -10.035   2.872  -1.165  0.00  0.00    +0.162 A 
ATOM     29  C   UNL     1      -9.302   1.700  -1.167  0.00  0.00    +0.051 A 
ATOM     30  C   UNL     1      -9.477   0.760  -0.162  0.00  0.00    -0.057 A 
ATOM     31  C   UNL     1      -8.662  -0.506  -0.212  0.00  0.00    -0.042 C 
ATOM     32  H   UNL     1      -8.143  -0.575   1.758  0.00  0.00    -0.081 HD
BRANCH  28  33
ATOM     33  O   UNL     1      -9.859   3.790  -2.153  0.00  0.00    -0.491 OA
ATOM     34  C   UNL     1      -8.899   3.478  -3.164  0.00  0.00    +0.277 C 
ENDBRANCH  28  33
BRANCH  27  35
ATOM     35  O   UNL     1     -11.681   4.259  -0.137  0.00  0.00    -0.491 OA
ATOM     36  C   UNL     1     -12.605   4.433   0.940  0.00  0.00    +0.277 C 
ENDBRANCH  27  35
ENDBRANCH  21  22
ENDBRANCH   2  21
TORSDOF 8
