REMARK  Name = ZINC35964326
REMARK  13 active torsions:
REMARK  status: ('A' for Active; 'I' for Inactive)
REMARK    1  A    between atoms: C_1  and  C_2
REMARK    2  A    between atoms: C_2  and  N_3
REMARK    3  A    between atoms: C_6  and  C_11
REMARK    4  A    between atoms: N_19  and  C_21
REMARK    5  A    between atoms: C_21  and  C_23
REMARK    6  A    between atoms: C_21  and  C_27
REMARK    7  A    between atoms: C_23  and  C_24
REMARK    8  A    between atoms: C_24  and  C_25
REMARK    9  A    between atoms: C_24  and  C_26
REMARK   10  A    between atoms: C_32  and  C_35
REMARK   11  A    between atoms: C_35  and  O_37
REMARK   12  A    between atoms: O_37  and  C_38
REMARK   13  A    between atoms: C_38  and  C_39
REMARK                            x       y       z     vdW  Elec       q    Type
REMARK                         _______ _______ _______ _____ _____    ______ ____
ROOT
ATOM      1  N   UNL     1       0.732  -2.281   1.096  0.00  0.00    -0.257 N 
ATOM      2  C   UNL     1      -0.307  -2.194   1.977  0.00  0.00    +0.042 C 
ATOM      3  C   UNL     1      -1.557  -2.555   1.622  0.00  0.00    +0.058 C 
ATOM      4  C   UNL     1      -1.770  -3.061   0.209  0.00  0.00    +0.142 C 
ATOM      5  N   UNL     1      -0.585  -3.117  -0.664  0.00  0.00    -0.288 N 
ATOM      6  C   UNL     1       0.601  -2.715  -0.165  0.00  0.00    +0.307 C 
ATOM      7  O   UNL     1       1.583  -2.753  -0.879  0.00  0.00    -0.252 OA
ATOM      8  C   UNL     1      -2.446  -2.375   2.702  0.00  0.00    +0.247 C 
ATOM      9  O   UNL     1      -3.637  -2.622   2.661  0.00  0.00    -0.270 OA
ATOM     10  N   UNL     1      -1.805  -1.894   3.783  0.00  0.00    -0.281 N 
ATOM     11  C   UNL     1      -0.390  -1.738   3.417  0.00  0.00    +0.160 C 
ATOM     12  H   UNL     1      -0.657  -3.431  -1.579  0.00  0.00    +0.151 HD
ENDROOT
BRANCH   4  13
ATOM     13  C   UNL     1      -2.348  -4.450   0.295  0.00  0.00    -0.023 A 
ATOM     14  C   UNL     1      -1.521  -5.529   0.546  0.00  0.00    +0.006 A 
ATOM     15  C   UNL     1      -2.052  -6.803   0.625  0.00  0.00    +0.000 A 
ATOM     16  C   UNL     1      -3.409  -6.998   0.453  0.00  0.00    +0.000 A 
ATOM     17  C   UNL     1      -4.237  -5.919   0.203  0.00  0.00    +0.000 A 
ATOM     18  C   UNL     1      -3.706  -4.644   0.128  0.00  0.00    +0.006 A 
ENDBRANCH   4  13
BRANCH   1  20
ATOM     19  C   UNL     1       2.259  -0.379   1.273  0.00  0.00    +0.025 C 
ATOM     20  C   UNL     1       2.062  -1.870   1.551  0.00  0.00    +0.111 C 
ENDBRANCH   1  20
BRANCH  10  21
ATOM     21  C   UNL     1      -2.406  -1.585   5.082  0.00  0.00    +0.163 C 
BRANCH  21  22
ATOM     22  C   UNL     1      -2.865  -2.861   5.740  0.00  0.00    +0.236 C 
ATOM     23  O   UNL     1      -2.909  -3.890   5.102  0.00  0.00    -0.274 OA
ATOM     24  N   UNL     1      -3.226  -2.857   7.039  0.00  0.00    -0.300 N 
ATOM     25  C   UNL     1      -3.301  -1.597   7.792  0.00  0.00    +0.108 C 
ATOM     26  C   UNL     1      -4.687  -1.489   8.435  0.00  0.00    +0.033 C 
ATOM     27  C   UNL     1      -4.954  -2.740   9.275  0.00  0.00    +0.101 C 
ATOM     28  C   UNL     1      -4.936  -3.976   8.373  0.00  0.00    +0.033 C 
ATOM     29  C   UNL     1      -3.559  -4.112   7.727  0.00  0.00    +0.108 C 
BRANCH  27  30
ATOM     30  C   UNL     1      -6.303  -2.621   9.937  0.00  0.00    +0.310 C 
ATOM     31  O   UNL     1      -6.980  -1.637   9.756  0.00  0.00    -0.251 OA
BRANCH  30  32
ATOM     32  O   UNL     1      -6.751  -3.609  10.728  0.00  0.00    -0.465 OA
BRANCH  32  33
ATOM     33  C   UNL     1      -8.038  -3.429  11.323  0.00  0.00    +0.229 C 
ATOM     34  C   UNL     1      -8.376  -4.649  12.184  0.00  0.00    +0.048 C 
ENDBRANCH  32  33
ENDBRANCH  30  32
ENDBRANCH  27  30
ENDBRANCH  21  22
BRANCH  21  35
ATOM     35  C   UNL     1      -3.604  -0.655   4.882  0.00  0.00    +0.035 C 
BRANCH  35  36
ATOM     36  C   UNL     1      -3.115   0.708   4.389  0.00  0.00    -0.015 C 
ATOM     37  C   UNL     1      -2.677   0.595   2.927  0.00  0.00    +0.007 C 
ATOM     38  C   UNL     1      -4.249   1.729   4.503  0.00  0.00    +0.007 C 
ENDBRANCH  35  36
ENDBRANCH  21  35
ENDBRANCH  10  21
TORSDOF 9
