REMARK  Name = ZINC20238761
REMARK  5 active torsions:
REMARK  status: ('A' for Active; 'I' for Inactive)
REMARK    1  A    between atoms: C_1  and  C_2
REMARK    2  A    between atoms: C_7  and  C_8
REMARK    3  A    between atoms: C_14  and  C_15
REMARK    4  A    between atoms: C_18  and  S_20
REMARK    5  A    between atoms: S_20  and  C_21
REMARK                            x       y       z     vdW  Elec       q    Type
REMARK                         _______ _______ _______ _____ _____    ______ ____
ROOT
ATOM      1  C   UNL     1       1.939   0.046   2.353  0.00  0.00    +0.130 C 
ATOM      2  N   UNL     1       1.492   1.260   2.568  0.00  0.00    -0.164 NA
ATOM      3  N   UNL     1       1.314   1.735   3.850  0.00  0.00    -0.152 N 
ATOM      4  C   UNL     1       0.755   2.983   4.197  0.00  0.00    +0.153 C 
ATOM      5  N   UNL     1      -0.037   3.662   3.405  0.00  0.00    -0.283 NA
ATOM      6  C   UNL     1       1.153   3.451   5.550  0.00  0.00    +0.084 C 
ATOM      7  C   UNL     1       1.319   4.804   5.837  0.00  0.00    +0.063 C 
ATOM      8  C   UNL     1       1.362   2.407   6.575  0.00  0.00    +0.273 C 
ATOM      9  O   UNL     1       1.237   2.660   7.763  0.00  0.00    -0.268 OA
ATOM     10  N   UNL     1       1.694   1.167   6.161  0.00  0.00    -0.152 NA
ATOM     11  C   UNL     1       1.693   0.899   4.880  0.00  0.00    +0.181 C 
ATOM     12  S   UNL     1       2.169  -0.573   4.014  0.00  0.00    -0.033 S 
ATOM     13  H   UNL     1      -0.325   3.278   2.562  0.00  0.00    +0.188 HD
ENDROOT
BRANCH   1  20
ATOM     14  C   UNL     1       1.437   1.445  -0.129  0.00  0.00    +0.044 C 
ATOM     15  C   UNL     1       1.945   0.026  -0.139  0.00  0.00    -0.041 A 
ATOM     16  C   UNL     1       2.180  -0.616  -1.337  0.00  0.00    +0.004 A 
ATOM     17  C   UNL     1       2.646  -1.918  -1.347  0.00  0.00    +0.000 A 
ATOM     18  C   UNL     1       2.880  -2.585  -0.158  0.00  0.00    +0.001 A 
ATOM     19  C   UNL     1       2.648  -1.954   1.047  0.00  0.00    +0.011 A 
ATOM     20  C   UNL     1       2.183  -0.638   1.064  0.00  0.00    +0.012 A 
ENDBRANCH   1  20
BRANCH   7  21
ATOM     21  C   UNL     1       1.323   5.743   4.801  0.00  0.00    +0.130 A 
ATOM     22  C   UNL     1       1.358   7.125   4.952  0.00  0.00    +0.050 A 
ATOM     23  C   UNL     1       1.349   7.669   3.672  0.00  0.00    +0.057 A 
ATOM     24  C   UNL     1       1.310   6.614   2.783  0.00  0.00    +0.167 A 
ATOM     25  O   UNL     1       1.301   5.466   3.478  0.00  0.00    -0.449 OA
BRANCH  24  26
ATOM     26  S   UNL     1       1.284   6.753   1.026  0.00  0.00    -0.051 S 
BRANCH  26  27
ATOM     27  C   UNL     1       2.977   6.603   0.562  0.00  0.00    +0.023 A 
ATOM     28  C   UNL     1       3.936   6.313   1.510  0.00  0.00    +0.016 A 
ATOM     29  C   UNL     1       5.275   6.192   1.153  0.00  0.00    +0.002 A 
ATOM     30  C   UNL     1       5.677   6.358  -0.138  0.00  0.00    +0.008 A 
ATOM     31  C   UNL     1       4.732   6.655  -1.134  0.00  0.00    -0.017 A 
ATOM     32  C   UNL     1       3.364   6.774  -0.785  0.00  0.00    -0.004 A 
ATOM     33  C   UNL     1       2.421   7.065  -1.783  0.00  0.00    +0.009 A 
ATOM     34  C   UNL     1       2.830   7.223  -3.072  0.00  0.00    +0.001 A 
ATOM     35  C   UNL     1       4.174   7.100  -3.417  0.00  0.00    +0.001 A 
ATOM     36  C   UNL     1       5.118   6.831  -2.474  0.00  0.00    +0.008 A 
ENDBRANCH  26  27
ENDBRANCH  24  26
ENDBRANCH   7  21
TORSDOF 4
