REMARK  Name = ZINC21878078
REMARK  14 active torsions:
REMARK  status: ('A' for Active; 'I' for Inactive)
REMARK    1  A    between atoms: C_1  and  C_2
REMARK    2  A    between atoms: C_2  and  C_3
REMARK    3  A    between atoms: C_3  and  C_4
REMARK    4  A    between atoms: C_4  and  N_5
REMARK    5  A    between atoms: C_10  and  C_24
REMARK    6  A    between atoms: C_14  and  C_15
REMARK    7  A    between atoms: C_14  and  C_16
REMARK    8  A    between atoms: N_18  and  C_19
REMARK    9  A    between atoms: N_26  and  C_27
REMARK   10  A    between atoms: C_27  and  C_28
REMARK   11  A    between atoms: C_31  and  O_36
REMARK   12  A    between atoms: C_32  and  O_34
REMARK   13  A    between atoms: O_34  and  C_35
REMARK   14  A    between atoms: O_36  and  C_37
REMARK                            x       y       z     vdW  Elec       q    Type
REMARK                         _______ _______ _______ _____ _____    ______ ____
ROOT
ATOM      1  N   UNL     1       6.516  -0.845  -0.106  0.00  0.00    -0.281 N 
ATOM      2  C   UNL     1       5.916   0.345   0.136  0.00  0.00    +0.266 C 
ATOM      3  O   UNL     1       6.547   1.319   0.500  0.00  0.00    -0.268 OA
ATOM      4  C   UNL     1       4.458   0.396  -0.065  0.00  0.00    +0.124 A 
ATOM      5  C   UNL     1       3.595   1.437  -0.096  0.00  0.00    +0.067 A 
ATOM      6  C   UNL     1       2.325   0.858  -0.321  0.00  0.00    +0.148 A 
ATOM      7  N   UNL     1       2.492  -0.452  -0.401  0.00  0.00    -0.166 NA
ATOM      8  N   UNL     1       3.722  -0.756  -0.252  0.00  0.00    -0.256 N 
ATOM      9  C   UNL     1       4.363  -2.077  -0.240  0.00  0.00    +0.179 C 
ATOM     10  C   UNL     1       5.800  -1.944  -0.744  0.00  0.00    +0.130 C 
ATOM     11  C   UNL     1       5.775  -1.709  -2.255  0.00  0.00    +0.044 C 
ENDROOT
BRANCH  10  12
ATOM     12  C   UNL     1       6.535  -3.231  -0.466  0.00  0.00    +0.238 C 
ATOM     13  O   UNL     1       6.779  -3.998  -1.373  0.00  0.00    -0.273 OA
ATOM     14  N   UNL     1       6.920  -3.529   0.791  0.00  0.00    -0.311 N 
ATOM     15  H   UNL     1       6.627  -2.875   1.626  0.00  0.00    +0.149 HD
BRANCH  14  16
ATOM     16  C   UNL     1       7.731  -4.722   1.045  0.00  0.00    +0.073 C 
ATOM     17  C   UNL     1       6.816  -5.948   1.250  0.00  0.00    +0.022 C 
ATOM     18  C   UNL     1       7.527  -6.771   2.354  0.00  0.00    +0.002 C 
ATOM     19  C   UNL     1       8.077  -5.673   3.299  0.00  0.00    +0.002 C 
ATOM     20  C   UNL     1       8.532  -4.548   2.346  0.00  0.00    +0.022 C 
ENDBRANCH  14  16
ENDBRANCH  10  12
BRANCH   6  21
ATOM     21  C   UNL     1       1.043   1.584  -0.439  0.00  0.00    +0.264 C 
ATOM     22  O   UNL     1       1.020   2.795  -0.342  0.00  0.00    -0.268 OA
ATOM     23  N   UNL     1      -0.099   0.903  -0.655  0.00  0.00    -0.306 N 
ATOM     24  H   UNL     1      -0.079  -0.194  -0.739  0.00  0.00    +0.149 HD
BRANCH  23  25
ATOM     25  C   UNL     1      -1.369   1.623  -0.779  0.00  0.00    +0.140 C 
BRANCH  25  26
ATOM     26  C   UNL     1      -2.484   0.638  -1.022  0.00  0.00    -0.027 A 
ATOM     27  C   UNL     1      -3.164   0.088   0.049  0.00  0.00    +0.009 A 
ATOM     28  C   UNL     1      -4.187  -0.815  -0.168  0.00  0.00    +0.050 A 
ATOM     29  C   UNL     1      -4.533  -1.173  -1.462  0.00  0.00    +0.162 A 
ATOM     30  C   UNL     1      -3.848  -0.620  -2.539  0.00  0.00    +0.162 A 
ATOM     31  C   UNL     1      -2.827   0.290  -2.315  0.00  0.00    +0.054 A 
BRANCH  30  32
ATOM     32  O   UNL     1      -4.184  -0.967  -3.811  0.00  0.00    -0.491 OA
ATOM     33  C   UNL     1      -3.438  -0.359  -4.868  0.00  0.00    +0.277 C 
ENDBRANCH  30  32
BRANCH  29  34
ATOM     34  O   UNL     1      -5.539  -2.061  -1.678  0.00  0.00    -0.491 OA
ATOM     35  C   UNL     1      -6.198  -2.588  -0.524  0.00  0.00    +0.277 C 
ENDBRANCH  29  34
ENDBRANCH  25  26
ENDBRANCH  23  25
ENDBRANCH   6  21
BRANCH   1  36
ATOM     36  C   UNL     1       7.917  -1.032   0.280  0.00  0.00    +0.109 C 
BRANCH  36  37
ATOM     37  C   UNL     1       8.827  -0.490  -0.824  0.00  0.00    +0.019 C 
BRANCH  37  39
ATOM     38  C   UNL     1      11.200  -0.143  -1.525  0.00  0.00    +0.004 C 
ATOM     39  C   UNL     1      10.290  -0.685  -0.421  0.00  0.00    -0.002 C 
ENDBRANCH  37  39
ENDBRANCH  36  37
ENDBRANCH   1  36
TORSDOF 10
