REMARK  Name = ZINC63624986
REMARK  6 active torsions:
REMARK  status: ('A' for Active; 'I' for Inactive)
REMARK    1  A    between atoms: C_1  and  C_2
REMARK    2  A    between atoms: C_5  and  C_8
REMARK    3  A    between atoms: N_22  and  S_23
REMARK    4  A    between atoms: S_23  and  C_26
REMARK    5  A    between atoms: C_31  and  O_32
REMARK    6  A    between atoms: O_32  and  C_33
REMARK                            x       y       z     vdW  Elec       q    Type
REMARK                         _______ _______ _______ _____ _____    ______ ____
ROOT
ATOM      1  C   UNL     1       0.059  -4.275  -0.021  0.00  0.00    +0.136 C 
ATOM      2  C   UNL     1       1.502  -4.776   0.113  0.00  0.00    +0.129 C 
ATOM      3  C   UNL     1       1.937  -4.470   1.540  0.00  0.00    -0.035 C 
ATOM      4  C   UNL     1       3.040  -3.737   1.447  0.00  0.00    -0.001 A 
ATOM      5  C   UNL     1       3.949  -3.201   2.473  0.00  0.00    +0.010 A 
ATOM      6  C   UNL     1       4.999  -2.466   2.018  0.00  0.00    +0.001 A 
ATOM      7  C   UNL     1       5.231  -2.214   0.662  0.00  0.00    +0.002 A 
ATOM      8  C   UNL     1       4.450  -2.671  -0.348  0.00  0.00    +0.026 A 
ATOM      9  C   UNL     1       3.317  -3.461   0.004  0.00  0.00    +0.043 A 
ATOM     10  N   UNL     1       2.416  -4.045  -0.766  0.00  0.00    -0.376 N 
ATOM     11  C   UNL     1       1.136  -4.906   2.743  0.00  0.00    +0.050 C 
ATOM     12  C   UNL     1      -0.314  -4.450   2.498  0.00  0.00    +0.114 C 
ATOM     13  N   UNL     1      -0.707  -4.790   1.125  0.00  0.00    -0.167 NA
ATOM     14  H   UNL     1       2.359  -4.000  -1.733  0.00  0.00    +0.160 HD
ENDROOT
BRANCH   1  19
ATOM     15  C   UNL     1      -0.012   1.503   0.009  0.00  0.00    +0.044 C 
ATOM     16  C   UNL     1       0.006  -0.004   0.001  0.00  0.00    -0.050 A 
ATOM     17  C   UNL     1       0.491  -0.695   1.096  0.00  0.00    +0.003 A 
ATOM     18  C   UNL     1       0.508  -2.077   1.089  0.00  0.00    +0.005 A 
ATOM     19  C   UNL     1       0.040  -2.768  -0.013  0.00  0.00    -0.026 A 
ATOM     20  C   UNL     1      -0.445  -2.078  -1.108  0.00  0.00    +0.005 A 
ATOM     21  C   UNL     1      -0.466  -0.695  -1.099  0.00  0.00    +0.003 A 
ENDBRANCH   1  19
BRANCH  13  22
ATOM     22  S   UNL     1      -2.022  -5.761   0.862  0.00  0.00    +0.065 S 
ATOM     23  O   UNL     1      -2.852  -5.639   2.010  0.00  0.00    -0.153 OA
ATOM     24  O   UNL     1      -2.487  -5.470  -0.448  0.00  0.00    -0.153 OA
BRANCH  22  25
ATOM     25  C   UNL     1      -1.444  -7.425   0.834  0.00  0.00    +0.148 A 
ATOM     26  C   UNL     1      -1.852  -8.316   1.808  0.00  0.00    +0.052 A 
ATOM     27  C   UNL     1      -1.398  -9.622   1.786  0.00  0.00    +0.043 A 
ATOM     28  C   UNL     1      -0.534 -10.040   0.788  0.00  0.00    +0.024 A 
ATOM     29  C   UNL     1      -0.124  -9.152  -0.188  0.00  0.00    +0.049 A 
ATOM     30  C   UNL     1      -0.583  -7.843  -0.170  0.00  0.00    +0.146 A 
ATOM     31 CL   UNL     1      -1.911 -10.739   3.011  0.00  0.00    -0.083 Cl
BRANCH  30  32
ATOM     32  O   UNL     1      -0.185  -6.970  -1.133  0.00  0.00    -0.493 OA
ATOM     33  C   UNL     1       0.702  -7.470  -2.136  0.00  0.00    +0.277 C 
ENDBRANCH  30  32
ENDBRANCH  22  25
ENDBRANCH  13  22
TORSDOF 4
