REMARK  Name = ZINC39702026
REMARK  5 active torsions:
REMARK  status: ('A' for Active; 'I' for Inactive)
REMARK    1  A    between atoms: C_1  and  O_2
REMARK    2  A    between atoms: O_2  and  C_3
REMARK    3  A    between atoms: C_8  and  C_9
REMARK    4  A    between atoms: C_12  and  C_15
REMARK    5  A    between atoms: C_17  and  C_28
REMARK                            x       y       z     vdW  Elec       q    Type
REMARK                         _______ _______ _______ _____ _____    ______ ____
ROOT
ATOM      1  C   UNL     1      -2.767  -5.202  -0.507  0.00  0.00    +0.154 C 
ATOM      2  C   UNL     1      -2.626  -6.700  -0.694  0.00  0.00    -0.014 C 
ATOM      3  C   UNL     1      -3.200  -7.253  -1.842  0.00  0.00    +0.002 A 
ATOM      4  C   UNL     1      -3.116  -8.639  -2.094  0.00  0.00    +0.025 A 
ATOM      5  C   UNL     1      -3.685  -9.151  -3.220  0.00  0.00    +0.019 A 
ATOM      6  C   UNL     1      -4.350  -8.334  -4.132  0.00  0.00    +0.017 A 
ATOM      7  C   UNL     1      -4.463  -6.990  -3.943  0.00  0.00    +0.025 A 
ATOM      8  C   UNL     1      -3.900  -6.392  -2.801  0.00  0.00    +0.041 A 
ATOM      9  N   UNL     1      -4.012  -5.072  -2.618  0.00  0.00    -0.284 N 
ATOM     10  C   UNL     1      -3.514  -4.437  -1.576  0.00  0.00    +0.230 C 
ATOM     11  O   UNL     1      -3.655  -3.232  -1.475  0.00  0.00    -0.274 OA
ATOM     12 BR   UNL     1      -3.569 -11.009  -3.553  0.00  0.00    -0.050 Br
ATOM     13  H   UNL     1      -4.486  -4.554  -3.287  0.00  0.00    +0.155 HD
ENDROOT
BRANCH   2  14
ATOM     14  C   UNL     1      -1.942  -7.504   0.253  0.00  0.00    -0.020 A 
ATOM     15  C   UNL     1      -0.778  -8.196  -0.118  0.00  0.00    +0.008 A 
ATOM     16  C   UNL     1      -0.121  -8.974   0.810  0.00  0.00    +0.001 A 
ATOM     17  C   UNL     1      -0.605  -9.074   2.104  0.00  0.00    +0.000 A 
ATOM     18  C   UNL     1      -1.752  -8.395   2.479  0.00  0.00    +0.001 A 
ATOM     19  C   UNL     1      -2.421  -7.608   1.569  0.00  0.00    +0.008 A 
ENDBRANCH   2  14
BRANCH   1  22
ATOM     20  C   UNL     1       0.429  -3.058  -0.461  0.00  0.00    +0.243 C 
ATOM     21  C   UNL     1      -1.050  -3.186  -0.024  0.00  0.00    +0.107 C 
ATOM     22  C   UNL     1      -1.382  -4.616  -0.402  0.00  0.00    +0.078 C 
ATOM     23  N   UNL     1      -0.290  -5.241  -0.618  0.00  0.00    -0.092 NA
ATOM     24  O   UNL     1       0.858  -4.435  -0.436  0.00  0.00    -0.385 OA
BRANCH  20  30
ATOM     25  C   UNL     1       1.275  -0.851   0.376  0.00  0.00    +0.127 A 
ATOM     26  C   UNL     1       1.994  -0.090   1.286  0.00  0.00    +0.046 A 
ATOM     27  C   UNL     1       2.651  -0.706   2.333  0.00  0.00    +0.004 A 
ATOM     28  C   UNL     1       2.593  -2.080   2.474  0.00  0.00    +0.001 A 
ATOM     29  C   UNL     1       1.878  -2.841   1.568  0.00  0.00    +0.011 A 
ATOM     30  C   UNL     1       1.214  -2.229   0.522  0.00  0.00    +0.037 A 
BRANCH  25  32
ATOM     31  C   UNL     1       0.733   1.176  -0.744  0.00  0.00    +0.277 C 
ATOM     32  O   UNL     1       0.626  -0.246  -0.655  0.00  0.00    -0.495 OA
ENDBRANCH  25  32
ENDBRANCH  20  30
ENDBRANCH   1  22
TORSDOF 4
