REMARK  Name = ZINC47557805
REMARK  8 active torsions:
REMARK  status: ('A' for Active; 'I' for Inactive)
REMARK    1  A    between atoms: C_1  and  C_2
REMARK    2  A    between atoms: C_2  and  C_3
REMARK    3  A    between atoms: C_2  and  N_15
REMARK    4  A    between atoms: C_16  and  C_18
REMARK    5  A    between atoms: C_20  and  O_27
REMARK    6  A    between atoms: C_21  and  O_25
REMARK    7  A    between atoms: O_25  and  C_26
REMARK    8  A    between atoms: O_27  and  C_28
REMARK                            x       y       z     vdW  Elec       q    Type
REMARK                         _______ _______ _______ _____ _____    ______ ____
ROOT
ATOM      1  N   UNL     1       0.711  -0.489   1.189  0.00  0.00    -0.305 N 
ATOM      2  C   UNL     1       2.054  -0.600   1.174  0.00  0.00    +0.245 C 
ATOM      3  O   UNL     1       2.677  -0.297   0.175  0.00  0.00    -0.270 OA
ATOM      4  H   UNL     1       0.213  -0.731   1.986  0.00  0.00    +0.150 HD
ENDROOT
BRANCH   2   5
ATOM      5  C   UNL     1       2.768  -1.089   2.369  0.00  0.00    +0.042 A 
ATOM      6  C   UNL     1       4.161  -1.198   2.357  0.00  0.00    +0.062 A 
ATOM      7  C   UNL     1       4.825  -1.657   3.478  0.00  0.00    +0.164 A 
ATOM      8  C   UNL     1       4.106  -2.009   4.619  0.00  0.00    +0.180 A 
ATOM      9  C   UNL     1       2.721  -1.901   4.632  0.00  0.00    +0.087 A 
ATOM     10  C   UNL     1       2.053  -1.437   3.518  0.00  0.00    +0.037 A 
ATOM     11 CL   UNL     1       1.830  -2.341   6.055  0.00  0.00    -0.080 Cl
BRANCH   8  12
ATOM     12  O   UNL     1       4.760  -2.460   5.721  0.00  0.00    -0.490 OA
ATOM     13  C   UNL     1       5.170  -1.481   6.678  0.00  0.00    +0.277 C 
ENDBRANCH   8  12
BRANCH   7  14
ATOM     14  O   UNL     1       6.181  -1.764   3.469  0.00  0.00    -0.491 OA
ATOM     15  C   UNL     1       6.853  -1.386   2.267  0.00  0.00    +0.277 C 
ENDBRANCH   7  14
ENDBRANCH   2   5
BRANCH   1  17
ATOM     16  C   UNL     1      -0.019   1.526   0.010  0.00  0.00    +0.033 C 
ATOM     17  C   UNL     1       0.002  -0.004   0.002  0.00  0.00    +0.100 C 
BRANCH  17  18
ATOM     18  C   UNL     1      -1.412  -0.526   0.013  0.00  0.00    -0.025 A 
ATOM     19  C   UNL     1      -2.121  -0.570   1.201  0.00  0.00    +0.007 A 
ATOM     20  C   UNL     1      -3.417  -1.046   1.221  0.00  0.00    +0.028 A 
ATOM     21  C   UNL     1      -4.011  -1.482   0.046  0.00  0.00    +0.067 A 
ATOM     22  C   UNL     1      -3.295  -1.438  -1.153  0.00  0.00    +0.067 A 
ATOM     23  C   UNL     1      -1.996  -0.953  -1.164  0.00  0.00    +0.033 A 
ATOM     24  N   UNL     1      -4.139  -1.932  -2.144  0.00  0.00    -0.306 N 
ATOM     25  H   UNL     1      -3.918  -2.023  -3.084  0.00  0.00    +0.170 HD
ATOM     26  C   UNL     1      -5.314  -2.262  -1.575  0.00  0.00    +0.325 A 
ATOM     27  O   UNL     1      -6.272  -2.725  -2.165  0.00  0.00    -0.247 OA
ATOM     28  N   UNL     1      -5.267  -2.002  -0.255  0.00  0.00    -0.306 N 
ATOM     29  H   UNL     1      -5.986  -2.151   0.379  0.00  0.00    +0.170 HD
ENDBRANCH  17  18
ENDBRANCH   1  17
TORSDOF 5
