REMARK  Name = ZINC14110960
REMARK  9 active torsions:
REMARK  status: ('A' for Active; 'I' for Inactive)
REMARK    1  A    between atoms: C_1  and  C_2
REMARK    2  A    between atoms: C_7  and  N_8
REMARK    3  A    between atoms: C_9  and  C_11
REMARK    4  A    between atoms: C_11  and  N_12
REMARK    5  A    between atoms: C_13  and  C_15
REMARK    6  A    between atoms: C_15  and  N_44
REMARK    7  A    between atoms: C_16  and  N_44
REMARK    8  A    between atoms: C_17  and  C_18
REMARK    9  A    between atoms: C_17  and  N_44
REMARK                            x       y       z     vdW  Elec       q    Type
REMARK                         _______ _______ _______ _____ _____    ______ ____
ROOT
ATOM      1  N   UNL     1       2.407   1.044  -0.032  0.00  0.00    -0.308 N 
ATOM      2  C   UNL     1       3.671   1.511  -0.051  0.00  0.00    +0.197 C 
ATOM      3  O   UNL     1       3.876   2.706  -0.055  0.00  0.00    -0.278 OA
ATOM      4  H   UNL     1       2.243   0.088  -0.029  0.00  0.00    +0.149 HD
ENDROOT
BRANCH   1   5
ATOM      5  C   UNL     1       1.280   1.980  -0.015  0.00  0.00    +0.200 C 
BRANCH   5   7
ATOM      6  N   UNL     1      -1.191   1.867   0.018  0.00  0.00    -0.284 N 
ATOM      7  C   UNL     1      -0.014   1.209   0.005  0.00  0.00    +0.234 C 
ATOM      8  O   UNL     1       0.003  -0.004   0.005  0.00  0.00    -0.274 OA
ATOM      9  H   UNL     1      -1.205   2.833   0.099  0.00  0.00    +0.155 HD
BRANCH   6  16
ATOM     10  C   UNL     1      -3.546   3.040   1.100  0.00  0.00    +0.046 C 
ATOM     11  C   UNL     1      -3.564   1.691   0.428  0.00  0.00    -0.028 A 
ATOM     12  C   UNL     1      -4.749   0.989   0.320  0.00  0.00    +0.020 A 
ATOM     13  C   UNL     1      -4.765  -0.252  -0.291  0.00  0.00    +0.018 A 
ATOM     14  C   UNL     1      -3.597  -0.791  -0.800  0.00  0.00    +0.017 A 
ATOM     15  C   UNL     1      -2.411  -0.091  -0.699  0.00  0.00    +0.024 A 
ATOM     16  C   UNL     1      -2.391   1.155  -0.086  0.00  0.00    +0.036 A 
ATOM     17 BR   UNL     1      -6.387  -1.214  -0.431  0.00  0.00    -0.050 Br
ENDBRANCH   6  16
ENDBRANCH   5   7
ENDBRANCH   1   5
BRANCH   2  18
ATOM     18  C   UNL     1       4.830   0.547  -0.069  0.00  0.00    +0.019 C 
BRANCH  18  20
ATOM     19  C   UNL     1       6.278   2.047   1.162  0.00  0.00    -0.095 C 
ATOM     20  N   UNL     1       6.090   1.318  -0.110  0.00  0.00    +0.387 N 
ATOM     21  H   UNL     1       6.041   1.997  -0.879  0.00  0.00    -0.081 HD
BRANCH  20  22
ATOM     22  C   UNL     1       7.231   0.409  -0.344  0.00  0.00    -0.035 C 
BRANCH  22  23
ATOM     23  C   UNL     1       8.466   1.234  -0.601  0.00  0.00    -0.025 A 
ATOM     24  C   UNL     1       9.386   1.689   0.283  0.00  0.00    +0.011 A 
ATOM     25  C   UNL     1      10.452   2.437  -0.183  0.00  0.00    +0.028 A 
ATOM     26  C   UNL     1      10.543   2.692  -1.512  0.00  0.00    +0.078 A 
ATOM     27  S   UNL     1       9.099   1.858  -2.149  0.00  0.00    -0.084 S 
ATOM     28 CL   UNL     1      11.754   3.591  -2.372  0.00  0.00    -0.076 Cl
ENDBRANCH  22  23
ENDBRANCH  20  22
ENDBRANCH  18  20
ENDBRANCH   2  18
TORSDOF 7
