REMARK  Name = ZINC13014174
REMARK  7 active torsions:
REMARK  status: ('A' for Active; 'I' for Inactive)
REMARK    1  A    between atoms: C_1  and  N_58
REMARK    2  A    between atoms: C_2  and  N_58
REMARK    3  A    between atoms: C_3  and  C_5
REMARK    4  A    between atoms: C_3  and  C_26
REMARK    5  A    between atoms: C_3  and  N_58
REMARK    6  A    between atoms: C_5  and  N_6
REMARK    7  A    between atoms: C_14  and  C_16
REMARK                            x       y       z     vdW  Elec       q    Type
REMARK                         _______ _______ _______ _____ _____    ______ ____
ROOT
ATOM      1  N   UNL     1      -5.215  -0.127  -2.511  0.00  0.00    -0.330 N 
ATOM      2  C   UNL     1      -5.831   0.011  -1.280  0.00  0.00    +0.131 A 
ATOM      3  C   UNL     1      -5.092   0.290  -0.092  0.00  0.00    +0.051 A 
ATOM      4  C   UNL     1      -3.655   0.467   0.024  0.00  0.00    -0.025 A 
ATOM      5  C   UNL     1      -3.172   0.724   1.261  0.00  0.00    -0.004 A 
ATOM      6  S   UNL     1      -4.595   0.745   2.323  0.00  0.00    -0.073 S 
ATOM      7  C   UNL     1      -5.833   0.409   1.112  0.00  0.00    +0.114 A 
ATOM      8  N   UNL     1      -7.141   0.276   1.175  0.00  0.00    -0.220 NA
ATOM      9  C   UNL     1      -7.775   0.016   0.029  0.00  0.00    +0.164 A 
ATOM     10  N   UNL     1      -7.147  -0.109  -1.133  0.00  0.00    -0.212 NA
ATOM     11  C   UNL     1      -1.739   0.943   1.653  0.00  0.00    +0.043 C 
ATOM     12  C   UNL     1      -0.847   0.467   0.498  0.00  0.00    +0.005 C 
ATOM     13  C   UNL     1      -1.386   1.047  -0.813  0.00  0.00    +0.005 C 
ATOM     14  C   UNL     1      -2.710   0.373  -1.172  0.00  0.00    +0.037 C 
ATOM     15  H   UNL     1      -4.247  -0.107  -2.575  0.00  0.00    +0.147 HD
ENDROOT
BRANCH   9  16
ATOM     16  C   UNL     1      -9.249  -0.141   0.056  0.00  0.00    +0.037 A 
ATOM     17  C   UNL     1      -9.954  -0.024   1.258  0.00  0.00    +0.014 A 
ATOM     18  C   UNL     1     -11.330  -0.174   1.228  0.00  0.00    +0.020 A 
ATOM     19  C   UNL     1     -11.956  -0.442   0.025  0.00  0.00    +0.111 A 
ATOM     20  N   UNL     1     -11.263  -0.552  -1.093  0.00  0.00    -0.263 NA
ATOM     21  C   UNL     1      -9.954  -0.413  -1.115  0.00  0.00    +0.122 A 
ENDBRANCH   9  16
BRANCH   1  22
ATOM     22  C   UNL     1      -6.025  -0.302  -3.720  0.00  0.00    +0.092 C 
BRANCH  22  23
ATOM     23  C   UNL     1      -5.105  -0.531  -4.921  0.00  0.00    -0.021 C 
BRANCH  23  24
ATOM     24  C   UNL     1      -5.930  -0.593  -6.180  0.00  0.00    -0.059 A 
ATOM     25  C   UNL     1      -6.385   0.573  -6.767  0.00  0.00    +0.002 A 
ATOM     26  C   UNL     1      -7.138   0.516  -7.925  0.00  0.00    +0.000 A 
ATOM     27  C   UNL     1      -7.445  -0.708  -8.491  0.00  0.00    +0.000 A 
ATOM     28  C   UNL     1      -6.994  -1.874  -7.901  0.00  0.00    +0.000 A 
ATOM     29  C   UNL     1      -6.237  -1.817  -6.746  0.00  0.00    +0.002 A 
ENDBRANCH  23  24
BRANCH  23  32
ATOM     30  C   UNL     1      -3.637   0.711  -6.392  0.00  0.00    -0.096 C 
ATOM     31  C   UNL     1      -4.739   1.833  -4.551  0.00  0.00    -0.096 C 
ATOM     32  N   UNL     1      -4.121   0.569  -5.003  0.00  0.00    +0.382 N 
ATOM     33  H   UNL     1      -3.325   0.350  -4.392  0.00  0.00    -0.082 HD
ENDBRANCH  23  32
ENDBRANCH  22  23
ENDBRANCH   1  22
TORSDOF 5
