REMARK  Name = ZINC44156705
REMARK  7 active torsions:
REMARK  status: ('A' for Active; 'I' for Inactive)
REMARK    1  A    between atoms: C_1  and  C_2
REMARK    2  A    between atoms: C_2  and  O_3
REMARK    3  A    between atoms: O_3  and  C_4
REMARK    4  A    between atoms: C_4  and  C_6
REMARK    5  A    between atoms: C_7  and  C_15
REMARK    6  A    between atoms: C_15  and  S_16
REMARK    7  A    between atoms: S_16  and  C_17
REMARK                            x       y       z     vdW  Elec       q    Type
REMARK                         _______ _______ _______ _____ _____    ______ ____
ROOT
ATOM      1  C   UNL     1       1.450  -2.345  -2.519  0.00  0.00    +0.217 A 
ATOM      2  C   UNL     1       1.610  -3.668  -2.789  0.00  0.00    +0.023 A 
ATOM      3  C   UNL     1       2.331  -3.738  -4.059  0.00  0.00    +0.025 A 
ATOM      4  C   UNL     1       2.792  -4.785  -4.861  0.00  0.00    +0.012 A 
ATOM      5  C   UNL     1       3.450  -4.508  -6.025  0.00  0.00    +0.001 A 
ATOM      6  C   UNL     1       3.665  -3.193  -6.415  0.00  0.00    +0.004 A 
ATOM      7  C   UNL     1       3.219  -2.145  -5.639  0.00  0.00    +0.047 A 
ATOM      8  C   UNL     1       2.546  -2.403  -4.450  0.00  0.00    +0.136 A 
ATOM      9  O   UNL     1       2.001  -1.609  -3.508  0.00  0.00    -0.448 OA
ENDROOT
BRANCH   1  10
ATOM     10  C   UNL     1       0.776  -1.800  -1.335  0.00  0.00    +0.375 C 
ATOM     11  O   UNL     1       0.312  -2.551  -0.499  0.00  0.00    -0.241 OA
BRANCH  10  12
ATOM     12  O   UNL     1       0.671  -0.465  -1.174  0.00  0.00    -0.459 OA
BRANCH  12  14
ATOM     13  C   UNL     1      -0.019   1.526   0.010  0.00  0.00    +0.048 C 
ATOM     14  C   UNL     1       0.002  -0.004   0.002  0.00  0.00    +0.229 C 
ENDBRANCH  12  14
ENDBRANCH  10  12
ENDBRANCH   1  10
BRANCH   2  15
ATOM     15  C   UNL     1       1.140  -4.827  -1.948  0.00  0.00    +0.115 C 
BRANCH  15  16
ATOM     16  S   UNL     1      -0.536  -5.300  -2.456  0.00  0.00    -0.099 S 
BRANCH  16  17
ATOM     17  C   UNL     1      -0.938  -6.649  -1.395  0.00  0.00    +0.127 A 
ATOM     18  C   UNL     1      -2.189  -7.299  -1.498  0.00  0.00    +0.017 A 
ATOM     19  C   UNL     1      -3.163  -6.922  -2.428  0.00  0.00    +0.011 A 
ATOM     20  C   UNL     1      -4.348  -7.598  -2.468  0.00  0.00    +0.001 A 
ATOM     21  C   UNL     1      -4.601  -8.656  -1.599  0.00  0.00    +0.001 A 
ATOM     22  C   UNL     1      -3.673  -9.050  -0.681  0.00  0.00    +0.010 A 
ATOM     23  C   UNL     1      -2.446  -8.377  -0.613  0.00  0.00    +0.005 A 
ATOM     24  C   UNL     1      -1.438  -8.725   0.307  0.00  0.00    +0.143 A 
ATOM     25  N   UNL     1      -0.314  -8.046   0.309  0.00  0.00    -0.156 NA
ATOM     26  N   UNL     1      -0.072  -7.075  -0.491  0.00  0.00    -0.142 NA
ENDBRANCH  16  17
ENDBRANCH  15  16
ENDBRANCH   2  15
TORSDOF 6
