REMARK  Name = ZINC37053589
REMARK  5 active torsions:
REMARK  status: ('A' for Active; 'I' for Inactive)
REMARK    1  A    between atoms: C_1  and  N_2
REMARK    2  A    between atoms: N_2  and  C_3
REMARK    3  A    between atoms: N_2  and  S_4
REMARK    4  A    between atoms: S_4  and  C_7
REMARK    5  A    between atoms: C_8  and  N_15
REMARK                            x       y       z     vdW  Elec       q    Type
REMARK                         _______ _______ _______ _____ _____    ______ ____
ROOT
ATOM      1  C   UNL     1       1.644  -1.142  -2.032  0.00  0.00    +0.144 A 
ATOM      2  C   UNL     1       2.296  -0.158  -2.765  0.00  0.00    +0.054 A 
ATOM      3  C   UNL     1       3.660  -0.264  -3.005  0.00  0.00    +0.044 A 
ATOM      4  C   UNL     1       4.365  -1.347  -2.514  0.00  0.00    +0.044 A 
ATOM      5  C   UNL     1       3.713  -2.325  -1.784  0.00  0.00    +0.042 A 
ATOM      6  C   UNL     1       2.355  -2.220  -1.539  0.00  0.00    +0.070 A 
ATOM      7 CL   UNL     1       1.542  -3.445  -0.617  0.00  0.00    -0.081 Cl
ATOM      8 CL   UNL     1       6.070  -1.481  -2.813  0.00  0.00    -0.083 Cl
ENDROOT
BRANCH   1   9
ATOM      9  S   UNL     1      -0.086  -1.011  -1.725  0.00  0.00    +0.064 S 
ATOM     10  O   UNL     1      -0.527  -2.303  -1.329  0.00  0.00    -0.153 OA
ATOM     11  O   UNL     1      -0.645  -0.323  -2.836  0.00  0.00    -0.153 OA
BRANCH   9  13
ATOM     12  C   UNL     1      -0.421   1.424  -0.596  0.00  0.00    +0.131 C 
ATOM     13  N   UNL     1      -0.277  -0.022  -0.411  0.00  0.00    -0.183 NA
ATOM     14  C   UNL     1      -0.301  -0.594   0.938  0.00  0.00    +0.131 C 
ENDBRANCH   9  13
ENDBRANCH   1   9
BRANCH   2  15
ATOM     15  N   UNL     1       1.582   0.935  -3.261  0.00  0.00    -0.356 N 
ATOM     16  H   UNL     1       0.679   1.106  -2.949  0.00  0.00    +0.142 HD
ATOM     17  H   UNL     1       1.988   1.522  -3.917  0.00  0.00    +0.142 HD
ENDBRANCH   2  15
TORSDOF 3
