REMARK  Name = ZINC13192438
REMARK  13 active torsions:
REMARK  status: ('A' for Active; 'I' for Inactive)
REMARK    1  A    between atoms: C_1  and  C_2
REMARK    2  A    between atoms: C_5  and  N_9
REMARK    3  A    between atoms: C_7  and  C_8
REMARK    4  A    between atoms: C_10  and  C_33
REMARK    5  A    between atoms: C_12  and  C_15
REMARK    6  A    between atoms: C_13  and  C_14
REMARK    7  A    between atoms: C_15  and  C_17
REMARK    8  A    between atoms: C_17  and  S_18
REMARK    9  A    between atoms: S_18  and  C_19
REMARK   10  A    between atoms: C_22  and  C_28
REMARK   11  A    between atoms: N_23  and  C_24
REMARK   12  A    between atoms: C_24  and  C_25
REMARK   13  A    between atoms: C_25  and  C_26
REMARK                            x       y       z     vdW  Elec       q    Type
REMARK                         _______ _______ _______ _____ _____    ______ ____
ROOT
ATOM      1  C   UNL     1       3.730  10.700  -0.194  0.00  0.00    +0.175 C 
ATOM      2  O   UNL     1       4.872  10.449  -0.519  0.00  0.00    -0.291 OA
ENDROOT
BRANCH   1   6
ATOM      3  N   UNL     1       3.357  14.287   0.244  0.00  0.00    -0.317 N 
ATOM      4  C   UNL     1       2.081  13.899   0.543  0.00  0.00    +0.022 A 
ATOM      5  C   UNL     1       1.991  12.562   0.440  0.00  0.00    +0.034 A 
ATOM      6  C   UNL     1       3.323  12.086   0.044  0.00  0.00    +0.039 A 
ATOM      7  C   UNL     1       4.116  13.214  -0.053  0.00  0.00    +0.031 A 
ATOM      8  C   UNL     1       5.575  13.240  -0.427  0.00  0.00    +0.064 C 
ATOM      9  C   UNL     1       0.954  14.823   0.927  0.00  0.00    +0.064 C 
BRANCH   3  14
ATOM     10  C   UNL     1       5.200  19.654   0.267  0.00  0.00    +0.044 C 
ATOM     11  C   UNL     1       4.710  18.229   0.261  0.00  0.00    -0.047 A 
ATOM     12  C   UNL     1       5.223  17.319   1.168  0.00  0.00    +0.005 A 
ATOM     13  C   UNL     1       4.777  16.013   1.164  0.00  0.00    +0.026 A 
ATOM     14  C   UNL     1       3.812  15.613   0.249  0.00  0.00    +0.047 A 
ATOM     15  C   UNL     1       3.303  16.527  -0.663  0.00  0.00    +0.029 A 
ATOM     16  C   UNL     1       3.750  17.834  -0.651  0.00  0.00    -0.046 A 
ATOM     17  C   UNL     1       3.193  18.829  -1.637  0.00  0.00    +0.044 C 
ENDBRANCH   3  14
ENDBRANCH   1   6
BRANCH   1  18
ATOM     18  C   UNL     1       2.729   9.584  -0.036  0.00  0.00    +0.157 C 
BRANCH  18  19
ATOM     19  S   UNL     1       3.530   8.001  -0.397  0.00  0.00    -0.078 S 
BRANCH  19  20
ATOM     20  C   UNL     1       2.172   6.907  -0.142  0.00  0.00    +0.192 A 
ATOM     21  N   UNL     1       0.953   7.246   0.210  0.00  0.00    -0.122 NA
ATOM     22  N   UNL     1       0.212   6.201   0.307  0.00  0.00    -0.128 NA
ATOM     23  C   UNL     1       0.914   5.126   0.021  0.00  0.00    +0.172 A 
ATOM     24  N   UNL     1       2.193   5.545  -0.271  0.00  0.00    -0.301 N 
BRANCH  23  25
ATOM     25  C   UNL     1       0.426   3.737   0.018  0.00  0.00    +0.056 A 
ATOM     26  C   UNL     1      -0.866   3.275   0.028  0.00  0.00    +0.019 A 
ATOM     27  C   UNL     1      -1.081   1.915   0.017  0.00  0.00    +0.008 A 
ATOM     28  C   UNL     1      -0.013   1.076   0.008  0.00  0.00    +0.046 A 
ATOM     29  S   UNL     1       1.361   2.216   0.001  0.00  0.00    -0.094 S 
ENDBRANCH  23  25
BRANCH  24  30
ATOM     30  C   UNL     1       3.336   4.708  -0.643  0.00  0.00    +0.137 C 
BRANCH  30  31
ATOM     31  C   UNL     1       3.375   4.546  -2.164  0.00  0.00    +0.147 C 
BRANCH  31  32
ATOM     32  C   UNL     1       4.551   3.685  -2.547  0.00  0.00    +0.358 C 
ATOM     33  O   UNL     1       5.283   3.246  -1.692  0.00  0.00    -0.246 OA
ATOM     34  O   UNL     1       4.785   3.405  -3.839  0.00  0.00    -0.246 OA
ENDBRANCH  31  32
ENDBRANCH  30  31
ENDBRANCH  24  30
ENDBRANCH  19  20
ENDBRANCH  18  19
ENDBRANCH   1  18
TORSDOF 9
