REMARK  Name = ZINC03670542
REMARK  6 active torsions:
REMARK  status: ('A' for Active; 'I' for Inactive)
REMARK    1  A    between atoms: C_6  and  N_7
REMARK    2  A    between atoms: C_17  and  C_18
REMARK    3  A    between atoms: C_17  and  O_29
REMARK    4  A    between atoms: N_20  and  C_21
REMARK    5  A    between atoms: C_21  and  C_22
REMARK    6  A    between atoms: C_22  and  C_23
REMARK                            x       y       z     vdW  Elec       q    Type
REMARK                         _______ _______ _______ _____ _____    ______ ____
ROOT
ATOM      1  N   UNL     1      -2.442   6.182   0.059  0.00  0.00    -0.214 N 
ATOM      2  C   UNL     1      -1.267   6.703  -0.339  0.00  0.00    +0.314 C 
ATOM      3  O   UNL     1      -1.236   7.869  -0.682  0.00  0.00    -0.252 OA
ATOM      4  N   UNL     1      -0.130   5.997  -0.374  0.00  0.00    -0.269 N 
ATOM      5  C   UNL     1      -0.058   4.654  -0.002  0.00  0.00    +0.043 A 
ATOM      6  C   UNL     1       1.147   3.966  -0.057  0.00  0.00    +0.025 A 
ATOM      7  C   UNL     1       1.198   2.637   0.316  0.00  0.00    +0.017 A 
ATOM      8  C   UNL     1       0.054   1.987   0.744  0.00  0.00    +0.018 A 
ATOM      9  C   UNL     1      -1.152   2.667   0.795  0.00  0.00    +0.025 A 
ATOM     10  C   UNL     1      -1.203   3.993   0.429  0.00  0.00    +0.034 A 
ATOM     11  C   UNL     1      -2.497   4.771   0.477  0.00  0.00    +0.247 C 
ATOM     12 BR   UNL     1       0.135   0.167   1.251  0.00  0.00    -0.050 Br
ATOM     13  H   UNL     1       0.681   6.439  -0.672  0.00  0.00    +0.156 HD
ENDROOT
BRANCH   1  19
ATOM     14  C   UNL     1      -4.466   6.954  -1.010  0.00  0.00    +0.025 A 
ATOM     15  C   UNL     1      -5.608   7.730  -0.991  0.00  0.00    +0.022 A 
ATOM     16  C   UNL     1      -5.883   8.532   0.102  0.00  0.00    +0.041 A 
ATOM     17  C   UNL     1      -5.017   8.555   1.182  0.00  0.00    +0.022 A 
ATOM     18  C   UNL     1      -3.876   7.777   1.170  0.00  0.00    +0.025 A 
ATOM     19  C   UNL     1      -3.598   6.971   0.073  0.00  0.00    +0.041 A 
ATOM     20 CL   UNL     1      -7.317   9.511   0.121  0.00  0.00    -0.084 Cl
ENDBRANCH   1  19
BRANCH  11  21
ATOM     21  C   UNL     1      -3.015   4.725   1.891  0.00  0.00    +0.269 C 
ATOM     22  O   UNL     1      -4.059   4.158   2.137  0.00  0.00    -0.270 OA
ATOM     23  N   UNL     1      -2.319   5.315   2.883  0.00  0.00    -0.311 N 
ATOM     24  H   UNL     1      -1.485   5.769   2.687  0.00  0.00    +0.149 HD
BRANCH  23  25
ATOM     25  C   UNL     1      -2.823   5.271   4.258  0.00  0.00    +0.108 C 
BRANCH  25  26
ATOM     26  C   UNL     1      -1.851   6.010   5.181  0.00  0.00    +0.049 C 
BRANCH  26  27
ATOM     27  C   UNL     1      -2.369   5.964   6.596  0.00  0.00    -0.072 C 
ATOM     28  C   UNL     1      -1.933   5.025   7.372  0.00  0.00    -0.028 C 
ATOM     29  C   UNL     1      -2.360   4.848   8.800  0.00  0.00    +0.027 C 
ATOM     30  C   UNL     1      -3.025   6.126   9.314  0.00  0.00    +0.004 C 
ATOM     31  C   UNL     1      -4.081   6.569   8.293  0.00  0.00    +0.005 C 
ATOM     32  C   UNL     1      -3.363   7.008   7.015  0.00  0.00    +0.030 C 
ENDBRANCH  26  27
ENDBRANCH  25  26
ENDBRANCH  23  25
ENDBRANCH  11  21
BRANCH  11  33
ATOM     33  O   UNL     1      -3.445   4.101  -0.356  0.00  0.00    -0.360 OA
ATOM     34  H   UNL     1      -3.633   3.192  -0.086  0.00  0.00    +0.213 HD
ENDBRANCH  11  33
TORSDOF 6
