REMARK  Name = ZINC59427903
REMARK  9 active torsions:
REMARK  status: ('A' for Active; 'I' for Inactive)
REMARK    1  A    between atoms: C_1  and  C_2
REMARK    2  A    between atoms: C_2  and  O_3
REMARK    3  A    between atoms: O_3  and  C_4
REMARK    4  A    between atoms: C_4  and  C_6
REMARK    5  A    between atoms: C_7  and  C_33
REMARK    6  A    between atoms: C_14  and  C_15
REMARK    7  A    between atoms: C_20  and  O_21
REMARK    8  A    between atoms: C_24  and  C_26
REMARK    9  A    between atoms: C_29  and  C_32
REMARK                            x       y       z     vdW  Elec       q    Type
REMARK                         _______ _______ _______ _____ _____    ______ ____
ROOT
ATOM      1  C   UNL     1      -2.824  -1.816  -1.427  0.00  0.00    +0.085 C 
ATOM      2  C   UNL     1      -2.936  -3.162  -1.637  0.00  0.00    +0.053 C 
ATOM      3  N   UNL     1      -4.103  -3.774  -1.479  0.00  0.00    -0.228 NA
ATOM      4  C   UNL     1      -5.215  -3.183  -1.124  0.00  0.00    +0.178 A 
ATOM      5  N   UNL     1      -5.322  -1.836  -0.865  0.00  0.00    -0.275 N 
ATOM      6  C   UNL     1      -6.515  -1.343  -0.508  0.00  0.00    +0.268 A 
ATOM      7  O   UNL     1      -6.658  -0.158  -0.269  0.00  0.00    -0.266 OA
ATOM      8  C   UNL     1      -7.647  -2.275  -0.415  0.00  0.00    +0.081 A 
ATOM      9  C   UNL     1      -8.941  -2.032  -0.080  0.00  0.00    +0.032 C 
ATOM     10  S   UNL     1      -6.861  -3.815  -0.862  0.00  0.00    -0.046 S 
ATOM     11  C   UNL     1      -4.061  -1.056  -1.008  0.00  0.00    +0.162 C 
ATOM     12  C   UNL     1      -1.724  -3.958  -2.050  0.00  0.00    +0.066 C 
ENDROOT
BRANCH   9  13
ATOM     13  C   UNL     1      -9.953  -3.080  -0.254  0.00  0.00    +0.019 A 
ATOM     14  C   UNL     1      -9.700  -4.172  -1.092  0.00  0.00    +0.026 A 
ATOM     15  C   UNL     1     -10.656  -5.152  -1.250  0.00  0.00    +0.019 A 
ATOM     16  C   UNL     1     -11.868  -5.062  -0.582  0.00  0.00    +0.019 A 
ATOM     17  C   UNL     1     -12.130  -3.990   0.249  0.00  0.00    +0.047 A 
ATOM     18  C   UNL     1     -11.180  -2.997   0.425  0.00  0.00    +0.124 A 
ATOM     19 BR   UNL     1     -10.314  -6.627  -2.383  0.00  0.00    -0.050 Br
BRANCH  18  20
ATOM     20  O   UNL     1     -11.436  -1.946   1.245  0.00  0.00    -0.506 OA
ATOM     21  H   UNL     1     -11.856  -1.195   0.803  0.00  0.00    +0.292 HD
ENDBRANCH  18  20
ENDBRANCH   9  13
BRANCH  11  22
ATOM     22  C   UNL     1      -3.770  -0.389   0.312  0.00  0.00    -0.020 A 
ATOM     23  C   UNL     1      -3.833  -1.119   1.484  0.00  0.00    +0.006 A 
ATOM     24  C   UNL     1      -3.567  -0.507   2.694  0.00  0.00    +0.004 A 
ATOM     25  C   UNL     1      -3.236   0.834   2.733  0.00  0.00    -0.050 A 
ATOM     26  C   UNL     1      -3.172   1.564   1.561  0.00  0.00    +0.004 A 
ATOM     27  C   UNL     1      -3.434   0.952   0.350  0.00  0.00    +0.006 A 
ATOM     28  C   UNL     1      -2.946   1.501   4.053  0.00  0.00    +0.044 C 
ENDBRANCH  11  22
BRANCH   1  29
ATOM     29  C   UNL     1      -1.593  -1.160  -1.591  0.00  0.00    +0.339 C 
ATOM     30  O   UNL     1      -0.581  -1.806  -1.796  0.00  0.00    -0.245 OA
BRANCH  29  31
ATOM     31  O   UNL     1      -1.532   0.188  -1.522  0.00  0.00    -0.462 OA
BRANCH  31  33
ATOM     32  C   UNL     1      -0.376   2.309  -1.587  0.00  0.00    +0.048 C 
ATOM     33  C   UNL     1      -0.247   0.789  -1.698  0.00  0.00    +0.229 C 
ENDBRANCH  31  33
ENDBRANCH  29  31
ENDBRANCH   1  29
TORSDOF 6
