REMARK  Name = ZINC06817993
REMARK  12 active torsions:
REMARK  status: ('A' for Active; 'I' for Inactive)
REMARK    1  A    between atoms: C_1  and  C_2
REMARK    2  A    between atoms: C_2  and  O_3
REMARK    3  A    between atoms: O_3  and  C_4
REMARK    4  A    between atoms: C_4  and  C_6
REMARK    5  A    between atoms: C_7  and  C_28
REMARK    6  A    between atoms: C_11  and  S_23
REMARK    7  A    between atoms: C_14  and  C_16
REMARK    8  A    between atoms: C_21  and  C_22
REMARK    9  A    between atoms: S_23  and  C_24
REMARK   10  A    between atoms: C_24  and  C_25
REMARK   11  A    between atoms: C_25  and  C_26
REMARK   12  A    between atoms: C_25  and  C_27
REMARK                            x       y       z     vdW  Elec       q    Type
REMARK                         _______ _______ _______ _____ _____    ______ ____
ROOT
ATOM      1  C   UNL     1      -0.990  -2.837  -0.226  0.00  0.00    +0.082 C 
ATOM      2  C   UNL     1       0.259  -3.325  -0.272  0.00  0.00    +0.020 C 
ATOM      3  N   UNL     1       1.364  -2.519  -0.155  0.00  0.00    -0.287 N 
ATOM      4  C   UNL     1       1.168  -1.148  -0.251  0.00  0.00    +0.219 A 
ATOM      5  N   UNL     1       2.035  -0.184  -0.399  0.00  0.00    -0.187 NA
ATOM      6  C   UNL     1       1.392   0.992  -0.454  0.00  0.00    +0.210 A 
ATOM      7  N   UNL     1       0.099   0.779  -0.337  0.00  0.00    -0.141 NA
ATOM      8  N   UNL     1      -0.070  -0.598  -0.202  0.00  0.00    -0.220 N 
ATOM      9  C   UNL     1      -1.295  -1.376  -0.032  0.00  0.00    +0.179 C 
ATOM     10  C   UNL     1       0.456  -4.808  -0.458  0.00  0.00    +0.061 C 
ATOM     11  H   UNL     1       2.247  -2.893  -0.012  0.00  0.00    +0.155 HD
ENDROOT
BRANCH   9  12
ATOM     12  C   UNL     1      -1.842  -1.156   1.355  0.00  0.00    -0.015 A 
ATOM     13  C   UNL     1      -1.132  -1.599   2.456  0.00  0.00    +0.006 A 
ATOM     14  C   UNL     1      -1.632  -1.393   3.728  0.00  0.00    +0.000 A 
ATOM     15  C   UNL     1      -2.845  -0.753   3.899  0.00  0.00    +0.000 A 
ATOM     16  C   UNL     1      -3.557  -0.315   2.799  0.00  0.00    +0.004 A 
ATOM     17  C   UNL     1      -3.055  -0.516   1.526  0.00  0.00    -0.045 A 
ATOM     18  C   UNL     1      -3.831  -0.039   0.326  0.00  0.00    +0.044 C 
ENDBRANCH   9  12
BRANCH   1  19
ATOM     19  C   UNL     1      -2.070  -3.737  -0.367  0.00  0.00    +0.339 C 
ATOM     20  O   UNL     1      -1.856  -4.925  -0.525  0.00  0.00    -0.245 OA
BRANCH  19  21
ATOM     21  O   UNL     1      -3.339  -3.280  -0.326  0.00  0.00    -0.462 OA
BRANCH  21  23
ATOM     22  C   UNL     1      -5.740  -3.545  -0.402  0.00  0.00    +0.048 C 
ATOM     23  C   UNL     1      -4.382  -4.245  -0.474  0.00  0.00    +0.229 C 
ENDBRANCH  21  23
ENDBRANCH  19  21
ENDBRANCH   1  19
BRANCH   6  24
ATOM     24  S   UNL     1       2.157   2.567  -0.650  0.00  0.00    -0.084 S 
BRANCH  24  25
ATOM     25  C   UNL     1       3.928   2.186  -0.750  0.00  0.00    +0.080 C 
BRANCH  25  26
ATOM     26  C   UNL     1       4.719   3.484  -0.924  0.00  0.00    -0.007 C 
ATOM     27  C   UNL     1       6.218   3.177  -0.884  0.00  0.00    +0.008 C 
ATOM     28  C   UNL     1       4.365   4.121  -2.270  0.00  0.00    +0.008 C 
ENDBRANCH  25  26
ENDBRANCH  24  25
ENDBRANCH   6  24
TORSDOF 7
