REMARK  Name = ZINC58979872
REMARK  6 active torsions:
REMARK  status: ('A' for Active; 'I' for Inactive)
REMARK    1  A    between atoms: C_1  and  N_2
REMARK    2  A    between atoms: N_9  and  C_12
REMARK    3  A    between atoms: C_12  and  C_13
REMARK    4  A    between atoms: C_18  and  C_27
REMARK    5  A    between atoms: C_19  and  C_21
REMARK    6  A    between atoms: C_27  and  C_28
REMARK                            x       y       z     vdW  Elec       q    Type
REMARK                         _______ _______ _______ _____ _____    ______ ____
ROOT
ATOM      1  C   UNL     1      -1.395  -4.273  -4.314  0.00  0.00    +0.239 C 
ATOM      2  O   UNL     1      -2.326  -3.744  -3.745  0.00  0.00    -0.273 OA
ATOM      3  N   UNL     1      -1.624  -5.193  -5.272  0.00  0.00    -0.263 N 
ATOM      4  C   UNL     1      -2.927  -5.536  -5.607  0.00  0.00    +0.165 A 
ATOM      5  N   UNL     1      -3.336  -6.409  -6.504  0.00  0.00    -0.229 NA
ATOM      6  C   UNL     1      -4.617  -6.627  -6.710  0.00  0.00    +0.063 A 
ATOM      7  C   UNL     1      -5.496  -5.904  -5.948  0.00  0.00    +0.044 A 
ATOM      8  S   UNL     1      -4.362  -4.942  -4.960  0.00  0.00    -0.052 S 
ATOM      9  H   UNL     1      -0.879  -5.616  -5.727  0.00  0.00    +0.157 HD
ENDROOT
BRANCH   7  10
ATOM     10  C   UNL     1      -6.974  -5.919  -5.942  0.00  0.00    -0.009 A 
ATOM     11  C   UNL     1      -7.669  -6.854  -6.711  0.00  0.00    +0.009 A 
ATOM     12  C   UNL     1      -9.048  -6.862  -6.701  0.00  0.00    +0.001 A 
ATOM     13  C   UNL     1      -9.743  -5.947  -5.930  0.00  0.00    +0.000 A 
ATOM     14  C   UNL     1      -9.060  -5.017  -5.165  0.00  0.00    +0.001 A 
ATOM     15  C   UNL     1      -7.681  -5.002  -5.162  0.00  0.00    +0.009 A 
ENDBRANCH   7  10
BRANCH   1  16
ATOM     16  C   UNL     1       0.020  -3.900  -3.950  0.00  0.00    +0.222 C 
BRANCH  16  25
ATOM     17  C   UNL     1      -0.076   1.354   0.139  0.00  0.00    +0.174 C 
ATOM     18  N   UNL     1      -0.050  -0.110   0.106  0.00  0.00    -0.249 N 
ATOM     19  C   UNL     1      -0.036  -0.881  -1.012  0.00  0.00    +0.165 A 
ATOM     20  C   UNL     1      -0.013  -2.216  -0.579  0.00  0.00    +0.103 A 
ATOM     21  C   UNL     1      -0.014  -2.199   0.828  0.00  0.00    +0.150 A 
ATOM     22  N   UNL     1      -0.031  -0.955   1.223  0.00  0.00    -0.177 NA
ATOM     23  C   UNL     1       0.007  -3.270  -1.593  0.00  0.00    +0.265 A 
ATOM     24  O   UNL     1       0.027  -4.447  -1.281  0.00  0.00    -0.267 OA
ATOM     25  N   UNL     1       0.001  -2.888  -2.892  0.00  0.00    -0.290 N 
ATOM     26  C   UNL     1      -0.022  -1.570  -3.217  0.00  0.00    +0.204 A 
ATOM     27  N   UNL     1      -0.040  -0.620  -2.329  0.00  0.00    -0.218 NA
ENDBRANCH  16  25
ENDBRANCH   1  16
BRANCH   6  28
ATOM     28  C   UNL     1      -5.095  -7.624  -7.735  0.00  0.00    +0.091 C 
BRANCH  28  29
ATOM     29  C   UNL     1      -3.913  -8.167  -8.496  0.00  0.00    -0.042 A 
ATOM     30  C   UNL     1      -3.417  -7.477  -9.586  0.00  0.00    +0.004 A 
ATOM     31  C   UNL     1      -2.332  -7.975 -10.285  0.00  0.00    +0.000 A 
ATOM     32  C   UNL     1      -1.744  -9.163  -9.893  0.00  0.00    +0.000 A 
ATOM     33  C   UNL     1      -2.240  -9.852  -8.802  0.00  0.00    +0.000 A 
ATOM     34  C   UNL     1      -3.321  -9.352  -8.101  0.00  0.00    +0.004 A 
ENDBRANCH  28  29
ENDBRANCH   6  28
TORSDOF 5
