REMARK  Name = ZINC41007042
REMARK  13 active torsions:
REMARK  status: ('A' for Active; 'I' for Inactive)
REMARK    1  A    between atoms: C_1  and  C_2
REMARK    2  A    between atoms: C_2  and  C_3
REMARK    3  A    between atoms: C_2  and  C_4
REMARK    4  A    between atoms: C_4  and  C_5
REMARK    5  A    between atoms: C_5  and  O_6
REMARK    6  A    between atoms: O_6  and  C_7
REMARK    7  A    between atoms: C_10  and  C_13
REMARK    8  A    between atoms: C_15  and  C_34
REMARK    9  A    between atoms: C_20  and  C_32
REMARK   10  A    between atoms: C_20  and  O_33
REMARK   11  A    between atoms: C_21  and  C_23
REMARK   12  A    between atoms: N_25  and  C_26
REMARK   13  A    between atoms: N_36  and  C_37
REMARK                            x       y       z     vdW  Elec       q    Type
REMARK                         _______ _______ _______ _____ _____    ______ ____
ROOT
ATOM      1  C   UNL     1      -6.738   0.821  -5.335  0.00  0.00    +0.053 C 
ATOM      2  C   UNL     1      -7.204   1.666  -4.145  0.00  0.00    +0.149 C 
ATOM      3  C   UNL     1      -8.190   2.699  -4.645  0.00  0.00    +0.148 C 
ATOM      4  O   UNL     1      -8.051   3.868  -4.378  0.00  0.00    -0.296 OA
ATOM      5  C   UNL     1      -9.354   2.229  -5.490  0.00  0.00    +0.110 C 
ATOM      6  C   UNL     1      -8.809   1.363  -6.631  0.00  0.00    +0.082 C 
ATOM      7  C   UNL     1      -7.956   0.234  -6.051  0.00  0.00    +0.115 C 
ATOM      8  C   UNL     1      -9.976   0.767  -7.420  0.00  0.00    +0.042 C 
ENDROOT
BRANCH   1  12
ATOM      9  C   UNL     1      -4.241  -2.353  -3.938  0.00  0.00    +0.121 A 
ATOM     10  C   UNL     1      -3.692  -1.306  -4.663  0.00  0.00    +0.046 A 
ATOM     11  C   UNL     1      -4.502  -0.281  -5.114  0.00  0.00    +0.007 A 
ATOM     12  C   UNL     1      -5.857  -0.299  -4.842  0.00  0.00    -0.042 A 
ATOM     13  C   UNL     1      -6.407  -1.341  -4.119  0.00  0.00    +0.007 A 
ATOM     14  C   UNL     1      -5.603  -2.372  -3.671  0.00  0.00    +0.046 A 
BRANCH   9  15
ATOM     15  O   UNL     1      -3.447  -3.363  -3.493  0.00  0.00    -0.492 OA
BRANCH  15  16
ATOM     16  C   UNL     1      -2.055  -3.278  -3.804  0.00  0.00    +0.229 C 
BRANCH  16  17
ATOM     17  C   UNL     1      -1.329  -4.494  -3.226  0.00  0.00    +0.044 C 
BRANCH  17  19
ATOM     18  C   UNL     1       0.771  -3.193  -2.849  0.00  0.00    +0.007 C 
ATOM     19  C   UNL     1       0.162  -4.404  -3.559  0.00  0.00    -0.014 C 
ATOM     20  C   UNL     1       0.868  -5.678  -3.090  0.00  0.00    +0.007 C 
ENDBRANCH  17  19
ENDBRANCH  16  17
ENDBRANCH  15  16
ENDBRANCH   9  15
ENDBRANCH   1  12
BRANCH   7  21
ATOM     21  C   UNL     1      -8.778  -0.561  -5.070  0.00  0.00    +0.224 C 
ATOM     22  O   UNL     1      -9.566   0.003  -4.341  0.00  0.00    -0.275 OA
ATOM     23  N   UNL     1      -8.637  -1.900  -5.003  0.00  0.00    -0.285 N 
ATOM     24  H   UNL     1      -7.961  -2.344  -5.537  0.00  0.00    +0.155 HD
BRANCH  23  25
ATOM     25  C   UNL     1      -9.468  -2.649  -4.162  0.00  0.00    +0.033 A 
ATOM     26  C   UNL     1     -10.788  -2.266  -3.966  0.00  0.00    +0.023 A 
ATOM     27  C   UNL     1     -11.605  -3.007  -3.135  0.00  0.00    +0.002 A 
ATOM     28  C   UNL     1     -11.110  -4.131  -2.499  0.00  0.00    +0.000 A 
ATOM     29  C   UNL     1      -9.796  -4.515  -2.692  0.00  0.00    +0.002 A 
ATOM     30  C   UNL     1      -8.975  -3.781  -3.526  0.00  0.00    +0.023 A 
ENDBRANCH  23  25
ENDBRANCH   7  21
BRANCH   2  31
ATOM     31  C   UNL     1      -7.869   0.779  -3.124  0.00  0.00    +0.228 C 
ATOM     32  O   UNL     1      -7.266  -0.163  -2.654  0.00  0.00    -0.275 OA
ATOM     33  N   UNL     1      -9.133   1.032  -2.732  0.00  0.00    -0.285 N 
ATOM     34  H   UNL     1      -9.645   1.731  -3.169  0.00  0.00    +0.155 HD
BRANCH  33  35
ATOM     35  C   UNL     1      -9.707   0.288  -1.696  0.00  0.00    +0.033 A 
ATOM     36  C   UNL     1      -8.913  -0.198  -0.666  0.00  0.00    +0.023 A 
ATOM     37  C   UNL     1      -9.482  -0.933   0.356  0.00  0.00    +0.002 A 
ATOM     38  C   UNL     1     -10.842  -1.185   0.353  0.00  0.00    +0.000 A 
ATOM     39  C   UNL     1     -11.636  -0.703  -0.671  0.00  0.00    +0.002 A 
ATOM     40  C   UNL     1     -11.073   0.038  -1.693  0.00  0.00    +0.023 A 
ENDBRANCH  33  35
ENDBRANCH   2  31
BRANCH   6  41
ATOM     41  O   UNL     1      -8.009   2.168  -7.499  0.00  0.00    -0.388 OA
ATOM     42  H   UNL     1      -8.486   2.906  -7.903  0.00  0.00    +0.210 HD
ENDBRANCH   6  41
TORSDOF 10
