REMARK  Name = ZINC21185451
REMARK  10 active torsions:
REMARK  status: ('A' for Active; 'I' for Inactive)
REMARK    1  A    between atoms: C_1  and  C_2
REMARK    2  A    between atoms: C_2  and  C_4
REMARK    3  A    between atoms: C_2  and  S_17
REMARK    4  A    between atoms: N_6  and  C_7
REMARK    5  A    between atoms: C_10  and  S_13
REMARK    6  A    between atoms: S_13  and  N_16
REMARK    7  A    between atoms: S_17  and  C_18
REMARK    8  A    between atoms: C_21  and  C_26
REMARK    9  A    between atoms: N_22  and  C_23
REMARK   10  A    between atoms: C_23  and  C_24
REMARK                            x       y       z     vdW  Elec       q    Type
REMARK                         _______ _______ _______ _____ _____    ______ ____
ROOT
ATOM      1  C   UNL     1      -5.610  -0.748   2.086  0.00  0.00    +0.029 C 
ATOM      2  C   UNL     1      -4.356  -1.560   1.756  0.00  0.00    +0.137 C 
ENDROOT
BRANCH   2   3
ATOM      3  C   UNL     1      -4.755  -2.855   1.096  0.00  0.00    +0.230 C 
ATOM      4  O   UNL     1      -4.689  -2.967  -0.109  0.00  0.00    -0.274 OA
ATOM      5  N   UNL     1      -5.186  -3.888   1.847  0.00  0.00    -0.285 N 
ATOM      6  H   UNL     1      -5.323  -3.761   2.931  0.00  0.00    +0.155 HD
BRANCH   5   7
ATOM      7  C   UNL     1      -5.458  -5.123   1.247  0.00  0.00    +0.034 A 
ATOM      8  C   UNL     1      -6.479  -5.925   1.739  0.00  0.00    +0.025 A 
ATOM      9  C   UNL     1      -6.750  -7.140   1.141  0.00  0.00    +0.030 A 
ATOM     10  C   UNL     1      -5.997  -7.564   0.061  0.00  0.00    +0.105 A 
ATOM     11  C   UNL     1      -4.976  -6.770  -0.428  0.00  0.00    +0.030 A 
ATOM     12  C   UNL     1      -4.705  -5.551   0.162  0.00  0.00    +0.025 A 
BRANCH  10  13
ATOM     13  S   UNL     1      -6.341  -9.118  -0.695  0.00  0.00    +0.056 S 
ATOM     14  O   UNL     1      -7.696  -9.424  -0.397  0.00  0.00    -0.153 OA
ATOM     15  O   UNL     1      -5.853  -9.038  -2.027  0.00  0.00    -0.153 OA
BRANCH  13  16
ATOM     16  N   UNL     1      -5.418 -10.254   0.080  0.00  0.00    -0.204 NA
ATOM     17  H   UNL     1      -5.604 -11.243  -0.364  0.00  0.00    +0.144 HD
ATOM     18  H   UNL     1      -5.683 -10.275   1.148  0.00  0.00    +0.144 HD
ENDBRANCH  13  16
ENDBRANCH  10  13
ENDBRANCH   5   7
ENDBRANCH   2   3
BRANCH   2  19
ATOM     19  S   UNL     1      -3.301  -0.611   0.632  0.00  0.00    -0.073 S 
BRANCH  19  20
ATOM     20  C   UNL     1      -2.871   0.737   1.681  0.00  0.00    +0.193 A 
ATOM     21  N   UNL     1      -3.259   0.912   2.924  0.00  0.00    -0.122 NA
ATOM     22  N   UNL     1      -2.765   2.003   3.392  0.00  0.00    -0.128 NA
ATOM     23  C   UNL     1      -2.027   2.589   2.477  0.00  0.00    +0.165 A 
ATOM     24  N   UNL     1      -2.069   1.794   1.355  0.00  0.00    -0.298 N 
BRANCH  23  25
ATOM     25  C   UNL     1      -1.291   3.862   2.626  0.00  0.00    +0.019 A 
ATOM     26  C   UNL     1      -0.246   4.173   1.754  0.00  0.00    +0.014 A 
ATOM     27  C   UNL     1       0.435   5.364   1.894  0.00  0.00    +0.039 A 
ATOM     28  C   UNL     1       0.090   6.247   2.905  0.00  0.00    +0.123 A 
ATOM     29  C   UNL     1      -0.943   5.941   3.776  0.00  0.00    +0.039 A 
ATOM     30  C   UNL     1      -1.634   4.755   3.642  0.00  0.00    +0.014 A 
ATOM     31  F   UNL     1       0.763   7.410   3.041  0.00  0.00    -0.205 F 
ENDBRANCH  23  25
BRANCH  24  32
ATOM     32  C   UNL     1      -1.400   2.035   0.074  0.00  0.00    +0.152 C 
BRANCH  32  33
ATOM     33  C   UNL     1      -0.062   1.342   0.069  0.00  0.00    -0.013 C 
ATOM     34  C   UNL     1       1.026   2.019  -0.206  0.00  0.00    +0.005 C 
ENDBRANCH  32  33
ENDBRANCH  24  32
ENDBRANCH  19  20
ENDBRANCH   2  19
TORSDOF 9
