REMARK  Name = ZINC39609030
REMARK  6 active torsions:
REMARK  status: ('A' for Active; 'I' for Inactive)
REMARK    1  A    between atoms: C_4  and  C_7
REMARK    2  A    between atoms: C_7  and  O_8
REMARK    3  A    between atoms: O_8  and  C_9
REMARK    4  A    between atoms: C_14  and  N_16
REMARK    5  A    between atoms: C_17  and  C_19
REMARK    6  A    between atoms: C_30  and  C_32
REMARK                            x       y       z     vdW  Elec       q    Type
REMARK                         _______ _______ _______ _____ _____    ______ ____
ROOT
ATOM      1  C   UNL     1       9.538   1.284   2.567  0.00  0.00    +0.100 C 
ATOM      2  C   UNL     1      10.445   0.036   2.660  0.00  0.00    +0.121 C 
ATOM      3  N   UNL     1      11.651   0.502   3.384  0.00  0.00    -0.296 N 
ATOM      4  C   UNL     1      11.125   1.414   4.428  0.00  0.00    +0.115 C 
ATOM      5  C   UNL     1       9.987   2.186   3.729  0.00  0.00    -0.004 C 
ATOM      6  C   UNL     1       8.832   2.412   4.699  0.00  0.00    -0.010 C 
ATOM      7  C   UNL     1       9.286   3.359   5.814  0.00  0.00    -0.082 C 
ATOM      8  N   UNL     1       9.718   4.634   5.231  0.00  0.00    +0.379 N 
ATOM      9  C   UNL     1      10.889   4.420   4.371  0.00  0.00    -0.082 C 
ATOM     10  C   UNL     1      10.503   3.518   3.195  0.00  0.00    -0.010 C 
ATOM     11  C   UNL     1      12.936   0.172   3.146  0.00  0.00    +0.248 C 
ATOM     12  O   UNL     1      13.812   0.566   3.891  0.00  0.00    -0.270 OA
ATOM     13  H   UNL     1       8.966   5.023   4.682  0.00  0.00    -0.086 HD
ATOM     14  H   UNL     1       9.959   5.277   5.970  0.00  0.00    -0.086 HD
ENDROOT
BRANCH  11  15
ATOM     15  C   UNL     1      13.280  -0.668   1.980  0.00  0.00    +0.057 A 
ATOM     16  C   UNL     1      12.418  -1.688   1.572  0.00  0.00    +0.014 A 
ATOM     17  C   UNL     1      12.744  -2.468   0.483  0.00  0.00    +0.002 A 
ATOM     18  C   UNL     1      13.922  -2.243  -0.207  0.00  0.00    +0.021 A 
ATOM     19  C   UNL     1      14.783  -1.235   0.191  0.00  0.00    +0.060 A 
ATOM     20  C   UNL     1      14.465  -0.441   1.277  0.00  0.00    +0.071 A 
ATOM     21 CL   UNL     1      15.541   0.829   1.771  0.00  0.00    -0.081 Cl
ATOM     22 CL   UNL     1      16.259  -0.962  -0.680  0.00  0.00    -0.082 Cl
ENDBRANCH  11  15
BRANCH   1  24
ATOM     23  N   UNL     1       7.126   1.626   2.143  0.00  0.00    -0.310 N 
ATOM     24  C   UNL     1       8.092   0.895   2.734  0.00  0.00    +0.218 C 
ATOM     25  O   UNL     1       7.797  -0.075   3.399  0.00  0.00    -0.275 OA
ATOM     26  H   UNL     1       7.361   2.402   1.610  0.00  0.00    +0.149 HD
BRANCH  23  31
ATOM     27  C   UNL     1       4.817   2.480   2.113  0.00  0.00    +0.139 C 
ATOM     28  C   UNL     1       3.898   2.172   0.913  0.00  0.00    +0.033 C 
ATOM     29  C   UNL     1       4.674   1.103   0.104  0.00  0.00    +0.004 C 
ATOM     30  C   UNL     1       5.315   0.233   1.213  0.00  0.00    +0.025 C 
ATOM     31  C   UNL     1       5.720   1.248   2.304  0.00  0.00    +0.102 C 
BRANCH  27  32
ATOM     32  O   UNL     1       4.033   2.699   3.287  0.00  0.00    -0.370 OA
BRANCH  32  33
ATOM     33  C   UNL     1       3.692   4.069   3.511  0.00  0.00    +0.195 C 
BRANCH  33  37
ATOM     34  C   UNL     1       1.361   4.395   7.075  0.00  0.00    +0.000 A 
ATOM     35  C   UNL     1       2.739   4.486   7.140  0.00  0.00    +0.000 A 
ATOM     36  C   UNL     1       3.494   4.380   5.986  0.00  0.00    +0.006 A 
ATOM     37  C   UNL     1       2.870   4.183   4.768  0.00  0.00    -0.022 A 
ATOM     38  C   UNL     1       1.492   4.091   4.704  0.00  0.00    +0.006 A 
ATOM     39  C   UNL     1       0.738   4.199   5.857  0.00  0.00    +0.000 A 
ENDBRANCH  33  37
ENDBRANCH  32  33
ENDBRANCH  27  32
ENDBRANCH  23  31
ENDBRANCH   1  24
TORSDOF 6
