REMARK  Name = ZINC58434602
REMARK  6 active torsions:
REMARK  status: ('A' for Active; 'I' for Inactive)
REMARK    1  A    between atoms: C_1  and  C_2
REMARK    2  A    between atoms: C_7  and  C_8
REMARK    3  A    between atoms: C_8  and  N_9
REMARK    4  A    between atoms: N_18  and  C_19
REMARK    5  A    between atoms: C_19  and  C_20
REMARK    6  A    between atoms: C_20  and  C_21
REMARK                            x       y       z     vdW  Elec       q    Type
REMARK                         _______ _______ _______ _____ _____    ______ ____
ROOT
ATOM      1  N   UNL     1      -1.351   0.475   2.814  0.00  0.00    +0.383 N 
ATOM      2  C   UNL     1      -1.283   1.398   3.945  0.00  0.00    -0.077 C 
ATOM      3  C   UNL     1      -2.432   2.378   3.859  0.00  0.00    +0.000 C 
ATOM      4  C   UNL     1      -3.619   1.850   4.686  0.00  0.00    +0.107 C 
ATOM      5  N   UNL     1      -3.771   0.390   4.525  0.00  0.00    -0.287 N 
ATOM      6  C   UNL     1      -3.622  -0.268   3.243  0.00  0.00    +0.091 C 
ATOM      7  C   UNL     1      -2.146  -0.673   3.029  0.00  0.00    -0.059 C 
ATOM      8  C   UNL     1      -4.057  -0.357   5.609  0.00  0.00    +0.302 C 
ATOM      9  O   UNL     1      -4.099   0.159   6.710  0.00  0.00    -0.253 OA
ATOM     10  N   UNL     1      -4.297  -1.677   5.475  0.00  0.00    -0.299 N 
ATOM     11  H   UNL     1      -4.191  -2.103   4.610  0.00  0.00    +0.150 HD
ATOM     12  H   UNL     1      -1.721   0.975   2.020  0.00  0.00    -0.081 HD
ENDROOT
BRANCH   1  13
ATOM     13  C   UNL     1       0.014   0.039   2.489  0.00  0.00    -0.043 C 
BRANCH  13  20
ATOM     14  C   UNL     1      -0.036   1.500  -0.003  0.00  0.00    +0.044 C 
ATOM     15  C   UNL     1      -0.019  -0.007  -0.013  0.00  0.00    -0.049 A 
ATOM     16  C   UNL     1      -0.021  -0.691  -1.215  0.00  0.00    +0.003 A 
ATOM     17  C   UNL     1      -0.005  -2.072  -1.224  0.00  0.00    +0.000 A 
ATOM     18  C   UNL     1       0.013  -2.772  -0.031  0.00  0.00    +0.000 A 
ATOM     19  C   UNL     1       0.017  -2.088   1.170  0.00  0.00    +0.002 A 
ATOM     20  C   UNL     1       0.005  -0.706   1.179  0.00  0.00    -0.061 A 
ENDBRANCH  13  20
ENDBRANCH   1  13
BRANCH  10  21
ATOM     21  C   UNL     1      -4.718  -2.467   6.634  0.00  0.00    +0.115 C 
BRANCH  21  22
ATOM     22  C   UNL     1      -4.922  -3.923   6.212  0.00  0.00    +0.114 C 
BRANCH  22  23
ATOM     23  C   UNL     1      -5.356  -4.736   7.405  0.00  0.00    +0.217 C 
ATOM     24  O   UNL     1      -5.488  -4.203   8.486  0.00  0.00    -0.276 OA
ATOM     25  N   UNL     1      -5.596  -6.055   7.270  0.00  0.00    -0.297 N 
ATOM     26  C   UNL     1      -6.025  -6.857   8.426  0.00  0.00    +0.113 C 
ATOM     27  C   UNL     1      -7.449  -7.368   8.157  0.00  0.00    +0.061 C 
ATOM     28  C   UNL     1      -7.528  -7.842   6.742  0.00  0.00    -0.004 A 
ATOM     29  C   UNL     1      -6.666  -7.580   5.723  0.00  0.00    -0.020 A 
ATOM     30  C   UNL     1      -6.973  -8.140   4.484  0.00  0.00    +0.013 A 
ATOM     31  C   UNL     1      -8.078  -8.907   4.343  0.00  0.00    +0.046 A 
ATOM     32  S   UNL     1      -8.760  -8.875   5.994  0.00  0.00    -0.101 S 
ATOM     33  C   UNL     1      -5.438  -6.712   5.965  0.00  0.00    +0.143 C 
ENDBRANCH  22  23
ENDBRANCH  21  22
ENDBRANCH  10  21
TORSDOF 5
