REMARK  Name = ZINC14476255
REMARK  11 active torsions:
REMARK  status: ('A' for Active; 'I' for Inactive)
REMARK    1  A    between atoms: C_1  and  C_2
REMARK    2  A    between atoms: C_2  and  N_3
REMARK    3  A    between atoms: N_3  and  C_4
REMARK    4  A    between atoms: N_3  and  C_6
REMARK    5  A    between atoms: C_4  and  C_5
REMARK    6  A    between atoms: C_6  and  C_7
REMARK    7  A    between atoms: C_7  and  N_8
REMARK    8  A    between atoms: C_9  and  C_11
REMARK    9  A    between atoms: C_24  and  C_27
REMARK   10  A    between atoms: C_29  and  N_34
REMARK   11  A    between atoms: C_32  and  O_33
REMARK                            x       y       z     vdW  Elec       q    Type
REMARK                         _______ _______ _______ _____ _____    ______ ____
ROOT
ATOM      1  C   UNL     1       8.245  -0.342   2.391  0.00  0.00    +0.037 A 
ATOM      2  C   UNL     1       8.509  -0.051   1.049  0.00  0.00    +0.015 A 
ATOM      3  C   UNL     1       8.014   1.099   0.484  0.00  0.00    +0.024 A 
ATOM      4  C   UNL     1       7.246   1.984   1.237  0.00  0.00    +0.031 A 
ATOM      5  C   UNL     1       6.968   1.685   2.579  0.00  0.00    -0.019 A 
ATOM      6  C   UNL     1       7.469   0.540   3.149  0.00  0.00    +0.019 A 
ATOM      7  C   UNL     1       6.111   2.631   3.326  0.00  0.00    +0.049 C 
ATOM      8  C   UNL     1       6.191   2.768   4.803  0.00  0.00    -0.023 C 
ATOM      9  C   UNL     1       5.890   4.019   5.129  0.00  0.00    -0.030 C 
ATOM     10  C   UNL     1       5.615   4.837   3.866  0.00  0.00    +0.033 C 
ATOM     11  C   UNL     1       6.428   4.069   2.817  0.00  0.00    +0.029 C 
ATOM     12  C   UNL     1       5.928   4.110   1.384  0.00  0.00    +0.108 C 
ATOM     13  N   UNL     1       6.772   3.151   0.639  0.00  0.00    -0.336 N 
ATOM     14  H   UNL     1       7.038   3.352  -0.409  0.00  0.00    +0.147 HD
ENDROOT
BRANCH  12  15
ATOM     15  C   UNL     1       4.483   3.686   1.325  0.00  0.00    +0.017 A 
ATOM     16  C   UNL     1       4.160   2.358   1.122  0.00  0.00    +0.041 A 
ATOM     17  C   UNL     1       2.834   1.968   1.067  0.00  0.00    +0.127 A 
ATOM     18  C   UNL     1       1.829   2.906   1.217  0.00  0.00    +0.036 A 
ATOM     19  C   UNL     1       2.147   4.235   1.421  0.00  0.00    +0.048 A 
ATOM     20  C   UNL     1       3.477   4.628   1.476  0.00  0.00    +0.122 A 
BRANCH  17  21
ATOM     21  N   UNL     1       2.491   0.545   0.849  0.00  0.00    +0.056 N 
ATOM     22  O   UNL     1       1.324   0.201   0.802  0.00  0.00    -0.126 OA
ATOM     23  O   UNL     1       3.376  -0.281   0.717  0.00  0.00    -0.126 OA
ENDBRANCH  17  21
BRANCH  20  24
ATOM     24  O   UNL     1       3.792   5.935   1.676  0.00  0.00    -0.506 OA
ATOM     25  H   UNL     1       2.993   6.681   1.795  0.00  0.00    +0.292 HD
ENDBRANCH  20  24
ENDBRANCH  12  15
BRANCH   1  27
ATOM     26  N   UNL     1       9.529  -2.419   2.269  0.00  0.00    -0.313 N 
ATOM     27  C   UNL     1       8.781  -1.572   3.003  0.00  0.00    +0.244 C 
ATOM     28  O   UNL     1       8.549  -1.821   4.170  0.00  0.00    -0.270 OA
ATOM     29  H   UNL     1       9.739  -2.194   1.213  0.00  0.00    +0.149 HD
BRANCH  26  30
ATOM     30  C   UNL     1      10.062  -3.641   2.877  0.00  0.00    +0.086 C 
BRANCH  30  31
ATOM     31  C   UNL     1      10.869  -4.419   1.836  0.00  0.00    -0.060 C 
BRANCH  31  32
ATOM     32  N   UNL     1      11.404  -5.644   2.445  0.00  0.00    +0.380 N 
ATOM     33  H   UNL     1      11.930  -5.359   3.368  0.00  0.00    -0.082 HD
BRANCH  32  35
ATOM     34  C   UNL     1       9.546  -6.966   1.552  0.00  0.00    -0.017 C 
ATOM     35  C   UNL     1      10.320  -6.567   2.809  0.00  0.00    -0.082 C 
ENDBRANCH  32  35
BRANCH  32  36
ATOM     36  C   UNL     1      12.373  -6.295   1.555  0.00  0.00    -0.082 C 
ATOM     37  C   UNL     1      13.188  -7.318   2.349  0.00  0.00    -0.017 C 
ENDBRANCH  32  36
ENDBRANCH  31  32
ENDBRANCH  30  31
ENDBRANCH  26  30
ENDBRANCH   1  27
TORSDOF 9
