REMARK  Name = ZINC66827388
REMARK  6 active torsions:
REMARK  status: ('A' for Active; 'I' for Inactive)
REMARK    1  A    between atoms: C_10  and  N_12
REMARK    2  A    between atoms: C_13  and  C_15
REMARK    3  A    between atoms: C_15  and  N_16
REMARK    4  A    between atoms: N_16  and  C_17
REMARK    5  A    between atoms: C_21  and  S_23
REMARK    6  A    between atoms: S_23  and  C_26
REMARK                            x       y       z     vdW  Elec       q    Type
REMARK                         _______ _______ _______ _____ _____    ______ ____
ROOT
ATOM      1  C   UNL     1       6.241   1.831  -1.474  0.00  0.00    +0.197 C 
ENDROOT
BRANCH   1   3
ATOM      2  N   UNL     1       4.631   0.029  -0.946  0.00  0.00    -0.307 N 
ATOM      3  C   UNL     1       5.321   1.107  -0.525  0.00  0.00    +0.231 C 
ATOM      4  O   UNL     1       5.202   1.495   0.618  0.00  0.00    -0.274 OA
ATOM      5  H   UNL     1       4.726  -0.282  -1.860  0.00  0.00    +0.149 HD
BRANCH   2  15
ATOM      6  C   UNL     1      -0.017   1.375   0.010  0.00  0.00    +0.000 A 
ATOM      7  C   UNL     1       1.174   2.078   0.002  0.00  0.00    +0.000 A 
ATOM      8  C   UNL     1       2.372   1.395  -0.010  0.00  0.00    +0.006 A 
ATOM      9  C   UNL     1       2.393   0.006  -0.017  0.00  0.00    -0.024 A 
ATOM     10  C   UNL     1       1.208  -0.694  -0.015  0.00  0.00    -0.042 A 
ATOM     11  C   UNL     1       0.002  -0.004   0.002  0.00  0.00    +0.004 A 
ATOM     12  C   UNL     1       1.155  -2.199  -0.038  0.00  0.00    +0.035 C 
ATOM     13  C   UNL     1       2.501  -2.790   0.375  0.00  0.00    +0.007 C 
ATOM     14  C   UNL     1       3.599  -2.130  -0.467  0.00  0.00    +0.027 C 
ATOM     15  C   UNL     1       3.737  -0.675  -0.023  0.00  0.00    +0.103 C 
ENDBRANCH   2  15
ENDBRANCH   1   3
BRANCH   1  16
ATOM     16  N   UNL     1       6.869   2.958  -0.781  0.00  0.00    -0.335 N 
ATOM     17  H   UNL     1       6.660   3.132   0.150  0.00  0.00    +0.147 HD
BRANCH  16  18
ATOM     18  C   UNL     1       7.768   3.783  -1.462  0.00  0.00    +0.029 A 
ATOM     19  C   UNL     1       8.063   3.538  -2.797  0.00  0.00    +0.023 A 
ATOM     20  C   UNL     1       8.953   4.356  -3.467  0.00  0.00    +0.004 A 
ATOM     21  C   UNL     1       9.549   5.417  -2.809  0.00  0.00    +0.027 A 
ATOM     22  C   UNL     1       9.257   5.662  -1.480  0.00  0.00    +0.096 A 
ATOM     23  C   UNL     1       8.364   4.852  -0.806  0.00  0.00    +0.050 A 
BRANCH  22  24
ATOM     24  S   UNL     1      10.021   7.014  -0.647  0.00  0.00    +0.058 S 
ATOM     25  O   UNL     1      10.024   6.640   0.724  0.00  0.00    -0.164 OA
ATOM     26  O   UNL     1      11.242   7.226  -1.343  0.00  0.00    -0.164 OA
BRANCH  24  27
ATOM     27  C   UNL     1       8.900   8.416  -0.910  0.00  0.00    +0.485 C 
ATOM     28  F   UNL     1       8.772   8.660  -2.282  0.00  0.00    -0.183 F 
ATOM     29  F   UNL     1       7.645   8.118  -0.369  0.00  0.00    -0.183 F 
ENDBRANCH  24  27
ENDBRANCH  22  24
ENDBRANCH  16  18
ENDBRANCH   1  16
TORSDOF 6
