REMARK  Name = ZINC09137331
REMARK  6 active torsions:
REMARK  status: ('A' for Active; 'I' for Inactive)
REMARK    1  A    between atoms: C_1  and  N_53
REMARK    2  A    between atoms: C_3  and  C_28
REMARK    3  A    between atoms: C_5  and  C_21
REMARK    4  A    between atoms: C_12  and  C_17
REMARK    5  A    between atoms: C_21  and  C_23
REMARK    6  A    between atoms: C_32  and  N_34
REMARK                            x       y       z     vdW  Elec       q    Type
REMARK                         _______ _______ _______ _____ _____    ______ ____
ROOT
ATOM      1  C   UNL     1      -7.099   1.296  -0.700  0.00  0.00    -0.094 C 
ATOM      2  C   UNL     1      -5.116   1.557   0.692  0.00  0.00    -0.068 C 
ATOM      3  C   UNL     1      -3.593   1.394   0.457  0.00  0.00    +0.013 C 
ATOM      4  C   UNL     1      -3.466   1.505  -1.082  0.00  0.00    +0.071 C 
ATOM      5  C   UNL     1      -4.860   1.158  -1.617  0.00  0.00    +0.051 C 
ATOM      6  C   UNL     1      -4.798   0.004  -2.580  0.00  0.00    -0.027 A 
ATOM      7  C   UNL     1      -4.380  -1.303  -2.464  0.00  0.00    +0.004 A 
ATOM      8  C   UNL     1      -4.445  -2.151  -3.555  0.00  0.00    +0.001 A 
ATOM      9  C   UNL     1      -4.932  -1.682  -4.762  0.00  0.00    +0.014 A 
ATOM     10  C   UNL     1      -5.353  -0.374  -4.883  0.00  0.00    +0.076 A 
ATOM     11  C   UNL     1      -5.289   0.486  -3.789  0.00  0.00    +0.047 A 
ATOM     12  N   UNL     1      -5.648   1.829  -3.663  0.00  0.00    -0.286 N 
ATOM     13  C   UNL     1      -5.427   2.300  -2.421  0.00  0.00    +0.212 C 
ATOM     14  O   UNL     1      -5.643   3.426  -2.026  0.00  0.00    -0.277 OA
ATOM     15  H   UNL     1      -6.013   2.362  -4.387  0.00  0.00    +0.155 HD
ATOM     16  N   UNL     1      -5.692   0.851  -0.459  0.00  0.00    +0.391 N 
ATOM     17  H   UNL     1      -5.684  -0.161  -0.284  0.00  0.00    -0.080 HD
ENDROOT
BRANCH   3  18
ATOM     18  C   UNL     1      -2.827   2.499   1.136  0.00  0.00    -0.043 A 
ATOM     19  C   UNL     1      -3.455   3.304   2.068  0.00  0.00    +0.004 A 
ATOM     20  C   UNL     1      -2.753   4.321   2.688  0.00  0.00    +0.002 A 
ATOM     21  C   UNL     1      -1.422   4.531   2.379  0.00  0.00    +0.033 A 
ATOM     22  C   UNL     1      -0.793   3.723   1.450  0.00  0.00    +0.126 A 
ATOM     23  C   UNL     1      -1.494   2.706   0.831  0.00  0.00    +0.036 A 
BRANCH  22  24
ATOM     24  N   UNL     1       0.632   3.948   1.119  0.00  0.00    +0.056 N 
ATOM     25  O   UNL     1       1.187   3.236   0.301  0.00  0.00    -0.126 OA
ATOM     26  O   UNL     1       1.250   4.845   1.665  0.00  0.00    -0.126 OA
ENDBRANCH  22  24
ENDBRANCH   3  18
BRANCH  10  27
ATOM     27  C   UNL     1      -5.881   0.126  -6.203  0.00  0.00    +0.419 C 
ATOM     28  F   UNL     1      -5.848  -0.911  -7.142  0.00  0.00    -0.166 F 
ATOM     29  F   UNL     1      -7.200   0.566  -6.040  0.00  0.00    -0.166 F 
ATOM     30  F   UNL     1      -5.088   1.187  -6.651  0.00  0.00    -0.166 F 
ENDBRANCH  10  27
BRANCH   4  31
ATOM     31  C   UNL     1      -3.087   2.909  -1.477  0.00  0.00    +0.201 C 
ATOM     32  O   UNL     1      -3.507   3.853  -0.839  0.00  0.00    -0.289 OA
BRANCH  31  33
ATOM     33  C   UNL     1      -2.242   3.127  -2.589  0.00  0.00    +0.170 A 
ATOM     34  C   UNL     1      -1.817   4.353  -3.060  0.00  0.00    +0.053 A 
ATOM     35  C   UNL     1      -1.002   4.093  -4.169  0.00  0.00    +0.042 A 
ATOM     36  C   UNL     1      -0.961   2.750  -4.330  0.00  0.00    +0.196 A 
ATOM     37  O   UNL     1      -1.703   2.173  -3.377  0.00  0.00    -0.460 OA
ENDBRANCH  31  33
ENDBRANCH   4  31
TORSDOF 5
