REMARK  Name = ZINC63350791
REMARK  12 active torsions:
REMARK  status: ('A' for Active; 'I' for Inactive)
REMARK    1  A    between atoms: C_1  and  C_2
REMARK    2  A    between atoms: C_3  and  O_17
REMARK    3  A    between atoms: O_17  and  C_18
REMARK    4  A    between atoms: C_18  and  C_20
REMARK    5  A    between atoms: C_20  and  C_22
REMARK    6  A    between atoms: C_20  and  N_32
REMARK    7  A    between atoms: C_22  and  C_23
REMARK    8  A    between atoms: C_33  and  O_35
REMARK    9  A    between atoms: O_35  and  C_36
REMARK   10  A    between atoms: C_36  and  C_37
REMARK   11  A    between atoms: C_36  and  C_38
REMARK   12  A    between atoms: C_36  and  C_39
REMARK                            x       y       z     vdW  Elec       q    Type
REMARK                         _______ _______ _______ _____ _____    ______ ____
ROOT
ATOM      1  C   UNL     1       0.200   0.031  -4.832  0.00  0.00    +0.189 C 
ENDROOT
BRANCH   1   2
ATOM      2  N   UNL     1       0.773  -0.864  -5.840  0.00  0.00    -0.268 N 
ATOM      3  C   UNL     1       0.147  -2.017  -6.152  0.00  0.00    +0.401 C 
ATOM      4  O   UNL     1      -0.892  -2.313  -5.596  0.00  0.00    -0.226 OA
ATOM      5  H   UNL     1       1.602  -0.627  -6.284  0.00  0.00    +0.153 HD
BRANCH   3   6
ATOM      6  O   UNL     1       0.674  -2.839  -7.078  0.00  0.00    -0.445 OA
BRANCH   6   7
ATOM      7  C   UNL     1      -0.042  -4.044  -7.359  0.00  0.00    +0.107 C 
ATOM      8  C   UNL     1      -1.444  -3.698  -7.865  0.00  0.00    +0.055 C 
ATOM      9  C   UNL     1       0.704  -4.843  -8.429  0.00  0.00    +0.055 C 
ATOM     10  C   UNL     1      -0.153  -4.880  -6.082  0.00  0.00    +0.055 C 
ENDBRANCH   6   7
ENDBRANCH   3   6
ENDBRANCH   1   2
BRANCH   1  11
ATOM     11  C   UNL     1       0.098  -0.695  -3.516  0.00  0.00    +0.333 C 
ATOM     12  O   UNL     1       0.113  -1.903  -3.489  0.00  0.00    -0.248 OA
BRANCH  11  13
ATOM     13  O   UNL     1      -0.009   0.000  -2.372  0.00  0.00    -0.424 OA
BRANCH  13  16
ATOM     14  C   UNL     1       2.518  -0.712  -1.354  0.00  0.00    +0.051 C 
ATOM     15  C   UNL     1       1.232  -1.066  -0.652  0.00  0.00    +0.035 A 
ATOM     16  C   UNL     1       0.017  -0.689  -1.201  0.00  0.00    +0.138 A 
ATOM     17  C   UNL     1      -1.175  -1.010  -0.562  0.00  0.00    +0.047 A 
ATOM     18  C   UNL     1      -1.157  -1.705   0.628  0.00  0.00    +0.016 A 
ATOM     19  C   UNL     1       0.059  -2.087   1.189  0.00  0.00    +0.026 A 
ATOM     20  C   UNL     1       1.265  -1.774   0.539  0.00  0.00    +0.146 A 
ATOM     21  O   UNL     1       2.451  -2.166   1.067  0.00  0.00    -0.421 OA
ATOM     22  C   UNL     1       2.530  -2.334   2.409  0.00  0.00    +0.345 A 
ATOM     23  O   UNL     1       3.515  -1.987   3.031  0.00  0.00    -0.245 OA
ATOM     24  C   UNL     1       1.377  -2.953   3.086  0.00  0.00    +0.067 A 
ATOM     25  C   UNL     1       0.115  -2.822   2.467  0.00  0.00    -0.000 A 
ATOM     26  C   UNL     1      -1.004  -3.388   3.059  0.00  0.00    +0.009 A 
ATOM     27  C   UNL     1      -0.872  -4.059   4.260  0.00  0.00    +0.001 A 
ATOM     28  C   UNL     1       0.366  -4.171   4.876  0.00  0.00    +0.001 A 
ATOM     29  C   UNL     1       1.491  -3.635   4.291  0.00  0.00    +0.015 A 
ENDBRANCH  13  16
ENDBRANCH  11  13
ENDBRANCH   1  11
BRANCH   1  30
ATOM     30  C   UNL     1      -1.194   0.476  -5.278  0.00  0.00    +0.067 C 
BRANCH  30  31
ATOM     31  C   UNL     1      -1.080   1.307  -6.530  0.00  0.00    -0.039 C 
ATOM     32  C   UNL     1      -1.209   0.877  -7.806  0.00  0.00    -0.001 A 
ATOM     33  C   UNL     1      -1.483  -0.442  -8.388  0.00  0.00    +0.010 A 
ATOM     34  C   UNL     1      -1.555  -0.564  -9.733  0.00  0.00    +0.001 A 
ATOM     35  C   UNL     1      -1.374   0.536 -10.583  0.00  0.00    +0.002 A 
ATOM     36  C   UNL     1      -1.119   1.779 -10.123  0.00  0.00    +0.026 A 
ATOM     37  C   UNL     1      -1.022   2.022  -8.726  0.00  0.00    +0.043 A 
ATOM     38  N   UNL     1      -0.787   3.118  -8.044  0.00  0.00    -0.380 N 
ATOM     39  C   UNL     1      -0.803   2.792  -6.614  0.00  0.00    +0.144 C 
ATOM     40  H   UNL     1      -0.631   3.997  -8.423  0.00  0.00    +0.160 HD
ENDBRANCH  30  31
ENDBRANCH   1  30
TORSDOF 8
