REMARK  Name = ZINC33726573
REMARK  10 active torsions:
REMARK  status: ('A' for Active; 'I' for Inactive)
REMARK    1  A    between atoms: C_1  and  C_2
REMARK    2  A    between atoms: C_13  and  O_30
REMARK    3  A    between atoms: C_17  and  C_29
REMARK    4  A    between atoms: C_22  and  C_28
REMARK    5  A    between atoms: C_23  and  C_25
REMARK    6  A    between atoms: C_25  and  C_27
REMARK    7  A    between atoms: O_30  and  C_31
REMARK    8  A    between atoms: C_31  and  C_33
REMARK    9  A    between atoms: C_33  and  C_34
REMARK   10  A    between atoms: C_34  and  N_35
REMARK                            x       y       z     vdW  Elec       q    Type
REMARK                         _______ _______ _______ _____ _____    ______ ____
ROOT
ATOM      1  C   UNL     1       7.428   3.657  -7.890  0.00  0.00    +0.008 C 
ATOM      2  C   UNL     1       6.879   3.085  -6.586  0.00  0.00    -0.003 C 
ATOM      3  C   UNL     1       5.470   3.660  -6.282  0.00  0.00    +0.008 C 
ATOM      4  C   UNL     1       4.716   2.433  -5.742  0.00  0.00    -0.000 C 
ATOM      5  C   UNL     1       3.203   2.583  -5.705  0.00  0.00    +0.000 C 
ATOM      6  C   UNL     1       2.840   3.067  -4.295  0.00  0.00    +0.031 C 
ATOM      7  C   UNL     1       1.382   2.909  -4.003  0.00  0.00    -0.027 C 
ATOM      8  C   UNL     1       0.626   2.018  -4.569  0.00  0.00    -0.064 C 
ATOM      9  C   UNL     1      -0.816   1.896  -4.108  0.00  0.00    +0.075 C 
ATOM     10  C   UNL     1      -1.109   0.424  -3.806  0.00  0.00    +0.180 C 
ATOM     11  C   UNL     1      -0.778  -0.430  -5.028  0.00  0.00    +0.046 C 
ATOM     12  C   UNL     1       0.708  -0.326  -5.366  0.00  0.00    +0.015 C 
ATOM     13  C   UNL     1       1.101   1.119  -5.668  0.00  0.00    -0.008 C 
ATOM     14  C   UNL     1       2.569   1.229  -5.988  0.00  0.00    +0.003 C 
ATOM     15  C   UNL     1       3.427   0.106  -5.422  0.00  0.00    +0.005 C 
ATOM     16  C   UNL     1       4.702  -0.036  -6.279  0.00  0.00    +0.008 C 
ATOM     17  C   UNL     1       5.192   1.326  -6.698  0.00  0.00    -0.019 C 
ATOM     18  C   UNL     1       6.714   1.546  -6.692  0.00  0.00    +0.064 C 
ATOM     19  C   UNL     1       4.730   1.600  -8.143  0.00  0.00    +0.012 C 
ATOM     20  C   UNL     1       0.356   1.544  -6.946  0.00  0.00    +0.016 C 
ENDROOT
BRANCH  18  21
ATOM     21  C   UNL     1       7.385   0.886  -5.522  0.00  0.00    +0.134 C 
ATOM     22  O   UNL     1       6.761   0.669  -4.512  0.00  0.00    -0.297 OA
ATOM     23  C   UNL     1       8.838   0.494  -5.609  0.00  0.00    +0.086 C 
ENDBRANCH  18  21
BRANCH  10  24
ATOM     24  O   UNL     1      -0.307  -0.013  -2.677  0.00  0.00    -0.461 OA
BRANCH  24  25
ATOM     25  C   UNL     1      -0.845   0.132  -1.455  0.00  0.00    +0.306 C 
ATOM     26  O   UNL     1      -1.950   0.607  -1.334  0.00  0.00    -0.251 OA
BRANCH  25  27
ATOM     27  C   UNL     1      -0.072  -0.299  -0.236  0.00  0.00    +0.102 C 
BRANCH  27  28
ATOM     28  C   UNL     1      -0.906  -0.028   1.018  0.00  0.00    -0.068 C 
BRANCH  28  29
ATOM     29  N   UNL     1      -0.152  -0.448   2.207  0.00  0.00    +0.380 N 
ATOM     30  C   UNL     1       0.043  -1.904   2.220  0.00  0.00    -0.079 C 
ATOM     31  C   UNL     1       0.952  -2.288   3.389  0.00  0.00    -0.019 C 
ATOM     32  C   UNL     1       0.309  -1.830   4.701  0.00  0.00    -0.004 C 
ATOM     33  C   UNL     1       0.072  -0.318   4.643  0.00  0.00    -0.019 C 
ATOM     34  C   UNL     1      -0.812   0.009   3.437  0.00  0.00    -0.079 C 
ATOM     35  H   UNL     1       0.841   0.023   2.164  0.00  0.00    -0.082 HD
ENDBRANCH  28  29
ENDBRANCH  27  28
ENDBRANCH  25  27
ENDBRANCH  24  25
ENDBRANCH  10  24
TORSDOF 6
