REMARK  Name = ZINC39674820
REMARK  7 active torsions:
REMARK  status: ('A' for Active; 'I' for Inactive)
REMARK    1  A    between atoms: C_1  and  C_2
REMARK    2  A    between atoms: C_4  and  C_14
REMARK    3  A    between atoms: C_7  and  C_12
REMARK    4  A    between atoms: C_14  and  C_15
REMARK    5  A    between atoms: C_15  and  N_16
REMARK    6  A    between atoms: C_17  and  C_19
REMARK    7  A    between atoms: C_30  and  C_32
REMARK                            x       y       z     vdW  Elec       q    Type
REMARK                         _______ _______ _______ _____ _____    ______ ____
ROOT
ATOM      1  C   UNL     1      -7.247  -1.432  -2.867  0.00  0.00    +0.100 C 
ATOM      2  C   UNL     1      -7.553   0.074  -2.701  0.00  0.00    +0.121 C 
ATOM      3  N   UNL     1      -9.031   0.164  -2.757  0.00  0.00    -0.296 N 
ATOM      4  C   UNL     1      -9.501  -1.023  -2.003  0.00  0.00    +0.115 C 
ATOM      5  C   UNL     1      -8.528  -2.148  -2.406  0.00  0.00    -0.004 C 
ATOM      6  C   UNL     1      -8.230  -3.043  -1.207  0.00  0.00    -0.010 C 
ATOM      7  C   UNL     1      -9.505  -3.789  -0.804  0.00  0.00    -0.082 C 
ATOM      8  N   UNL     1      -9.982  -4.595  -1.936  0.00  0.00    +0.379 N 
ATOM      9  C   UNL     1     -10.354  -3.718  -3.053  0.00  0.00    -0.082 C 
ATOM     10  C   UNL     1      -9.114  -2.969  -3.551  0.00  0.00    -0.010 C 
ATOM     11  C   UNL     1      -9.779   1.110  -3.358  0.00  0.00    +0.248 C 
ATOM     12  O   UNL     1     -10.990   1.097  -3.236  0.00  0.00    -0.270 OA
ATOM     13  H   UNL     1      -9.249  -5.222  -2.232  0.00  0.00    -0.086 HD
ATOM     14  H   UNL     1     -10.786  -5.132  -1.649  0.00  0.00    -0.086 HD
ENDROOT
BRANCH  11  15
ATOM     15  C   UNL     1      -9.133   2.157  -4.160  0.00  0.00    +0.052 A 
ATOM     16  C   UNL     1      -7.915   2.651  -3.816  0.00  0.00    +0.059 A 
ATOM     17  S   UNL     1      -7.558   3.805  -4.980  0.00  0.00    -0.096 S 
ATOM     18  C   UNL     1      -9.010   3.693  -5.989  0.00  0.00    +0.020 A 
ATOM     19  C   UNL     1      -9.779   2.696  -5.359  0.00  0.00    +0.001 A 
ATOM     20  C   UNL     1     -11.018   2.372  -5.943  0.00  0.00    +0.010 A 
ATOM     21  C   UNL     1     -11.437   3.010  -7.084  0.00  0.00    +0.001 A 
ATOM     22  C   UNL     1     -10.657   3.985  -7.689  0.00  0.00    +0.001 A 
ATOM     23  C   UNL     1      -9.442   4.332  -7.131  0.00  0.00    +0.015 A 
ENDBRANCH  11  15
BRANCH   1  25
ATOM     24  N   UNL     1      -5.285  -2.851  -2.365  0.00  0.00    -0.315 N 
ATOM     25  C   UNL     1      -6.082  -1.829  -1.997  0.00  0.00    +0.218 C 
ATOM     26  O   UNL     1      -5.862  -1.228  -0.967  0.00  0.00    -0.275 OA
ATOM     27  H   UNL     1      -5.460  -3.332  -3.189  0.00  0.00    +0.149 HD
BRANCH  24  28
ATOM     28  C   UNL     1      -4.152  -3.238  -1.519  0.00  0.00    +0.108 C 
BRANCH  28  29
ATOM     29  C   UNL     1      -3.416  -4.416  -2.160  0.00  0.00    +0.052 C 
BRANCH  29  32
ATOM     30  C   UNL     1      -0.511  -5.673  -2.857  0.00  0.00    +0.035 C 
ATOM     31  C   UNL     1      -1.262  -5.927  -1.549  0.00  0.00    +0.103 C 
ATOM     32  C   UNL     1      -2.251  -4.813  -1.290  0.00  0.00    -0.037 C 
ATOM     33  C   UNL     1      -1.877  -4.243  -0.117  0.00  0.00    +0.000 A 
ATOM     34  C   UNL     1      -2.419  -3.162   0.627  0.00  0.00    +0.028 A 
ATOM     35  C   UNL     1      -1.835  -2.777   1.811  0.00  0.00    +0.052 A 
ATOM     36  C   UNL     1      -0.656  -3.460   2.331  0.00  0.00    +0.021 A 
ATOM     37  C   UNL     1      -0.097  -4.494   1.668  0.00  0.00    +0.027 A 
ATOM     38  C   UNL     1      -0.681  -4.944   0.400  0.00  0.00    +0.043 A 
ATOM     39  N   UNL     1      -0.328  -5.909  -0.418  0.00  0.00    -0.378 N 
ATOM     40  H   UNL     1       0.424  -6.509  -0.296  0.00  0.00    +0.160 HD
BRANCH  35  41
ATOM     41  C   UNL     1      -2.396  -1.684   2.547  0.00  0.00    +0.099 C 
ATOM     42  N   UNL     1      -2.840  -0.818   3.132  0.00  0.00    -0.191 NA
ENDBRANCH  35  41
ENDBRANCH  29  32
ENDBRANCH  28  29
ENDBRANCH  24  28
ENDBRANCH   1  25
TORSDOF 6
