REMARK  Name = ZINC36126647
REMARK  12 active torsions:
REMARK  status: ('A' for Active; 'I' for Inactive)
REMARK    1  A    between atoms: C_1  and  C_2
REMARK    2  A    between atoms: C_4  and  C_31
REMARK    3  A    between atoms: C_6  and  S_8
REMARK    4  A    between atoms: S_8  and  C_9
REMARK    5  A    between atoms: C_9  and  C_10
REMARK    6  A    between atoms: C_12  and  C_18
REMARK    7  A    between atoms: C_15  and  O_16
REMARK    8  A    between atoms: O_16  and  C_17
REMARK    9  A    between atoms: N_19  and  N_20
REMARK   10  A    between atoms: C_21  and  C_23
REMARK   11  A    between atoms: C_25  and  O_30
REMARK   12  A    between atoms: C_27  and  O_29
REMARK                            x       y       z     vdW  Elec       q    Type
REMARK                         _______ _______ _______ _____ _____    ______ ____
ROOT
ATOM      1  C   UNL     1       0.005  -2.717   5.054  0.00  0.00    +0.005 A 
ATOM      2  C   UNL     1      -1.087  -2.609   5.889  0.00  0.00    +0.017 A 
ATOM      3  C   UNL     1      -1.215  -3.469   6.983  0.00  0.00    -0.005 A 
ATOM      4  C   UNL     1      -0.234  -4.436   7.225  0.00  0.00    +0.013 A 
ATOM      5  C   UNL     1       0.853  -4.536   6.385  0.00  0.00    +0.046 A 
ATOM      6  C   UNL     1       0.974  -3.682   5.296  0.00  0.00    +0.124 A 
ENDROOT
BRANCH   6   7
ATOM      7  O   UNL     1       2.045  -3.788   4.467  0.00  0.00    -0.495 OA
ATOM      8  C   UNL     1       3.004  -4.803   4.774  0.00  0.00    +0.277 C 
ENDBRANCH   6   7
BRANCH   3   9
ATOM      9  C   UNL     1      -2.380  -3.357   7.879  0.00  0.00    +0.138 C 
ATOM     10  N   UNL     1      -2.366  -3.942   9.038  0.00  0.00    -0.187 NA
BRANCH  10  11
ATOM     11  N   UNL     1      -1.146  -4.203   9.676  0.00  0.00    -0.203 N 
ATOM     12  C   UNL     1      -1.122  -4.924  10.814  0.00  0.00    +0.263 C 
ATOM     13  O   UNL     1      -2.158  -5.349  11.287  0.00  0.00    -0.268 OA
ATOM     14  H   UNL     1      -0.319  -3.864   9.299  0.00  0.00    +0.178 HD
BRANCH  12  15
ATOM     15  C   UNL     1       0.165  -5.200  11.487  0.00  0.00    +0.045 A 
ATOM     16  C   UNL     1       1.355  -4.708  10.949  0.00  0.00    +0.058 A 
ATOM     17  C   UNL     1       2.559  -4.969  11.583  0.00  0.00    +0.121 A 
ATOM     18  C   UNL     1       2.582  -5.717  12.751  0.00  0.00    +0.090 A 
ATOM     19  C   UNL     1       1.401  -6.208  13.289  0.00  0.00    +0.121 A 
ATOM     20  C   UNL     1       0.193  -5.947  12.665  0.00  0.00    +0.058 A 
BRANCH  19  21
ATOM     21  O   UNL     1       1.430  -6.941  14.433  0.00  0.00    -0.507 OA
ATOM     22  H   UNL     1       1.348  -6.415  15.240  0.00  0.00    +0.292 HD
ENDBRANCH  19  21
BRANCH  17  23
ATOM     23  O   UNL     1       3.719  -4.491  11.060  0.00  0.00    -0.507 OA
ATOM     24  H   UNL     1       3.964  -3.613  11.384  0.00  0.00    +0.292 HD
ENDBRANCH  17  23
ENDBRANCH  12  15
ENDBRANCH  10  11
ENDBRANCH   3   9
BRANCH   1  25
ATOM     25  C   UNL     1       0.144  -1.790   3.874  0.00  0.00    +0.116 C 
BRANCH  25  26
ATOM     26  S   UNL     1      -0.664  -2.528   2.427  0.00  0.00    -0.081 S 
BRANCH  26  32
ATOM     27  C   UNL     1       1.201   1.953   0.803  0.00  0.00    +0.066 C 
ATOM     28  C   UNL     1       0.447   0.687   0.485  0.00  0.00    +0.043 A 
ATOM     29  C   UNL     1      -0.042   0.464  -0.793  0.00  0.00    +0.052 A 
ATOM     30  C   UNL     1      -0.730  -0.713  -1.043  0.00  0.00    +0.111 A 
ATOM     31  N   UNL     1      -0.897  -1.584  -0.062  0.00  0.00    -0.221 NA
ATOM     32  C   UNL     1      -0.417  -1.341   1.149  0.00  0.00    +0.189 A 
ATOM     33  N   UNL     1       0.249  -0.227   1.421  0.00  0.00    -0.227 NA
BRANCH  30  34
ATOM     34  C   UNL     1      -1.280  -0.998  -2.417  0.00  0.00    +0.390 C 
ATOM     35  F   UNL     1      -2.428  -1.789  -2.305  0.00  0.00    -0.202 F 
ATOM     36  F   UNL     1      -1.603   0.208  -3.048  0.00  0.00    -0.202 F 
ENDBRANCH  30  34
ENDBRANCH  26  32
ENDBRANCH  25  26
ENDBRANCH   1  25
TORSDOF 10
