REMARK  Name = ZINC33924102
REMARK  11 active torsions:
REMARK  status: ('A' for Active; 'I' for Inactive)
REMARK    1  A    between atoms: C_1  and  C_2
REMARK    2  A    between atoms: C_2  and  C_4
REMARK    3  A    between atoms: C_10  and  C_40
REMARK    4  A    between atoms: C_20  and  C_39
REMARK    5  A    between atoms: C_23  and  O_26
REMARK    6  A    between atoms: O_26  and  C_27
REMARK    7  A    between atoms: C_27  and  C_29
REMARK    8  A    between atoms: C_29  and  C_30
REMARK    9  A    between atoms: C_30  and  N_31
REMARK   10  A    between atoms: C_35  and  C_37
REMARK   11  A    between atoms: C_35  and  C_38
REMARK                            x       y       z     vdW  Elec       q    Type
REMARK                         _______ _______ _______ _____ _____    ______ ____
ROOT
ATOM      1  C   UNL     1      -1.276  -0.740  -0.074  0.00  0.00    +0.061 C 
ATOM      2  C   UNL     1      -1.782  -0.884   1.386  0.00  0.00    +0.012 C 
ATOM      3  C   UNL     1      -1.599  -2.381   1.769  0.00  0.00    +0.005 C 
ATOM      4  C   UNL     1      -0.579  -2.865   0.723  0.00  0.00    -0.001 C 
ATOM      5  C   UNL     1      -1.123  -2.195  -0.556  0.00  0.00    -0.019 C 
ATOM      6  C   UNL     1      -0.195  -2.435  -1.712  0.00  0.00    +0.008 C 
ATOM      7  C   UNL     1       0.210  -3.911  -1.826  0.00  0.00    +0.005 C 
ATOM      8  C   UNL     1      -0.524  -4.821  -0.859  0.00  0.00    +0.003 C 
ATOM      9  C   UNL     1      -0.404  -4.345   0.589  0.00  0.00    +0.000 C 
ATOM     10  C   UNL     1      -1.424  -5.136   1.419  0.00  0.00    +0.031 C 
ATOM     11  C   UNL     1      -1.115  -6.599   1.248  0.00  0.00    -0.027 C 
ATOM     12  C   UNL     1      -0.480  -7.080   0.227  0.00  0.00    -0.064 C 
ATOM     13  C   UNL     1      -0.007  -6.257  -0.946  0.00  0.00    -0.008 C 
ATOM     14  C   UNL     1       1.512  -6.327  -1.008  0.00  0.00    +0.015 C 
ATOM     15  C   UNL     1       2.033  -7.400  -0.053  0.00  0.00    +0.046 C 
ATOM     16  C   UNL     1       1.297  -8.726  -0.211  0.00  0.00    +0.180 C 
ATOM     17  C   UNL     1      -0.180  -8.569   0.169  0.00  0.00    +0.075 C 
ATOM     18  C   UNL     1      -0.581  -6.870  -2.228  0.00  0.00    +0.016 C 
ATOM     19  C   UNL     1      -2.544  -2.666  -0.901  0.00  0.00    +0.012 C 
ENDROOT
BRANCH   1  21
ATOM     20  C   UNL     1       0.023   1.514  -0.177  0.00  0.00    +0.086 C 
ATOM     21  C   UNL     1       0.023   0.009  -0.101  0.00  0.00    +0.134 C 
ATOM     22  O   UNL     1       1.068  -0.594  -0.061  0.00  0.00    -0.297 OA
ENDBRANCH   1  21
BRANCH  16  23
ATOM     23  O   UNL     1       1.408  -9.188  -1.559  0.00  0.00    -0.461 OA
BRANCH  23  24
ATOM     24  C   UNL     1       1.394 -10.517  -1.750  0.00  0.00    +0.306 C 
ATOM     25  O   UNL     1       1.291 -11.262  -0.804  0.00  0.00    -0.251 OA
BRANCH  24  26
ATOM     26  C   UNL     1       1.506 -11.079  -3.144  0.00  0.00    +0.102 C 
BRANCH  26  27
ATOM     27  C   UNL     1       1.464 -12.607  -3.082  0.00  0.00    -0.068 C 
BRANCH  27  28
ATOM     28  N   UNL     1       1.574 -13.155  -4.441  0.00  0.00    +0.380 N 
ATOM     29  C   UNL     1       0.398 -12.757  -5.223  0.00  0.00    -0.079 C 
ATOM     30  C   UNL     1       0.545 -13.257  -6.662  0.00  0.00    -0.018 C 
ATOM     31  C   UNL     1       0.664 -14.784  -6.657  0.00  0.00    +0.003 C 
ATOM     32  C   UNL     1       1.850 -15.190  -5.777  0.00  0.00    -0.050 C 
ATOM     33  C   UNL     1       1.654 -14.619  -4.371  0.00  0.00    -0.072 C 
ATOM     34  C   UNL     1       1.931 -16.716  -5.702  0.00  0.00    +0.009 C 
ATOM     35  C   UNL     1       3.144 -14.638  -6.378  0.00  0.00    +0.009 C 
ATOM     36  H   UNL     1       2.406 -12.794  -4.882  0.00  0.00    -0.082 HD
ENDBRANCH  27  28
ENDBRANCH  26  27
ENDBRANCH  24  26
ENDBRANCH  23  24
ENDBRANCH  16  23
TORSDOF 6
