REMARK  Name = ZINC41290301
REMARK  10 active torsions:
REMARK  status: ('A' for Active; 'I' for Inactive)
REMARK    1  A    between atoms: C_1  and  C_2
REMARK    2  A    between atoms: C_2  and  O_3
REMARK    3  A    between atoms: O_3  and  C_4
REMARK    4  A    between atoms: C_9  and  C_10
REMARK    5  A    between atoms: C_12  and  O_13
REMARK    6  A    between atoms: C_22  and  C_24
REMARK    7  A    between atoms: C_25  and  O_32
REMARK    8  A    between atoms: C_29  and  O_30
REMARK    9  A    between atoms: O_30  and  C_31
REMARK   10  A    between atoms: O_32  and  C_33
REMARK                            x       y       z     vdW  Elec       q    Type
REMARK                         _______ _______ _______ _____ _____    ______ ____
ROOT
ATOM      1  C   UNL     1       2.675  -1.909   3.165  0.00  0.00    +0.143 A 
ATOM      2  C   UNL     1       2.805  -0.583   2.800  0.00  0.00    +0.093 A 
ATOM      3  C   UNL     1       3.327   0.337   3.708  0.00  0.00    +0.131 A 
ATOM      4  C   UNL     1       3.711  -0.128   4.992  0.00  0.00    +0.059 A 
ATOM      5  C   UNL     1       4.242   0.755   5.946  0.00  0.00    +0.017 A 
ATOM      6  C   UNL     1       4.605   0.292   7.171  0.00  0.00    +0.024 A 
ATOM      7  C   UNL     1       4.452  -1.069   7.491  0.00  0.00    +0.037 A 
ATOM      8  C   UNL     1       3.925  -1.958   6.551  0.00  0.00    +0.070 A 
ATOM      9  C   UNL     1       3.552  -1.495   5.302  0.00  0.00    +0.141 A 
ATOM     10  O   UNL     1       3.036  -2.339   4.384  0.00  0.00    -0.454 OA
ATOM     11  N   UNL     1       4.817  -1.521   8.718  0.00  0.00    -0.281 N 
ATOM     12  C   UNL     1       4.416  -2.717   9.132  0.00  0.00    +0.255 C 
ATOM     13  O   UNL     1       3.620  -3.359   8.465  0.00  0.00    -0.270 OA
ATOM     14  H   UNL     1       5.372  -0.970   9.293  0.00  0.00    +0.155 HD
ENDROOT
BRANCH   1  20
ATOM     15  C   UNL     1       2.104  -4.242   2.495  0.00  0.00    +0.131 A 
ATOM     16  C   UNL     1       1.575  -5.137   1.578  0.00  0.00    +0.046 A 
ATOM     17  C   UNL     1       1.073  -4.681   0.375  0.00  0.00    +0.004 A 
ATOM     18  C   UNL     1       1.092  -3.329   0.074  0.00  0.00    +0.001 A 
ATOM     19  C   UNL     1       1.614  -2.424   0.972  0.00  0.00    +0.015 A 
ATOM     20  C   UNL     1       2.121  -2.871   2.197  0.00  0.00    +0.059 A 
BRANCH  15  21
ATOM     21  O   UNL     1       2.597  -4.689   3.677  0.00  0.00    -0.492 OA
BRANCH  21  23
ATOM     22  C   UNL     1       3.143  -6.408   5.285  0.00  0.00    +0.048 C 
ATOM     23  C   UNL     1       2.546  -6.097   3.911  0.00  0.00    +0.226 C 
ENDBRANCH  21  23
ENDBRANCH  15  21
ENDBRANCH   1  20
BRANCH  12  24
ATOM     24  C   UNL     1       4.934  -3.272  10.401  0.00  0.00    +0.120 A 
ATOM     25  C   UNL     1       4.260  -3.027  11.604  0.00  0.00    +0.136 A 
ATOM     26  C   UNL     1       4.753  -3.552  12.788  0.00  0.00    +0.046 A 
ATOM     27  C   UNL     1       5.905  -4.315  12.784  0.00  0.00    +0.007 A 
ATOM     28  C   UNL     1       6.578  -4.562  11.601  0.00  0.00    +0.046 A 
ATOM     29  C   UNL     1       6.097  -4.051  10.406  0.00  0.00    +0.136 A 
BRANCH  29  30
ATOM     30  O   UNL     1       6.755  -4.301   9.246  0.00  0.00    -0.494 OA
ATOM     31  C   UNL     1       7.935  -5.103   9.328  0.00  0.00    +0.277 C 
ENDBRANCH  29  30
BRANCH  25  32
ATOM     32  O   UNL     1       3.129  -2.278  11.610  0.00  0.00    -0.494 OA
ATOM     33  C   UNL     1       2.495  -2.069  12.874  0.00  0.00    +0.277 C 
ENDBRANCH  25  32
ENDBRANCH  12  24
BRANCH   3  34
ATOM     34  O   UNL     1       3.464   1.639   3.374  0.00  0.00    -0.506 OA
ATOM     35  H   UNL     1       3.171   1.847   2.477  0.00  0.00    +0.292 HD
ENDBRANCH   3  34
TORSDOF 7
