REMARK  Name = ZINC05392796
REMARK  7 active torsions:
REMARK  status: ('A' for Active; 'I' for Inactive)
REMARK    1  A    between atoms: C_1  and  O_2
REMARK    2  A    between atoms: O_2  and  C_3
REMARK    3  A    between atoms: C_6  and  S_9
REMARK    4  A    between atoms: S_9  and  N_12
REMARK    5  A    between atoms: C_21  and  N_28
REMARK    6  A    between atoms: N_28  and  S_29
REMARK    7  A    between atoms: S_29  and  C_32
REMARK                            x       y       z     vdW  Elec       q    Type
REMARK                         _______ _______ _______ _____ _____    ______ ____
ROOT
ATOM      1  N   UNL     1      -5.658   0.921  -0.025  0.00  0.00    -0.176 NA
ATOM      2  C   UNL     1      -5.173  -0.443   0.217  0.00  0.00    +0.114 C 
ATOM      3  C   UNL     1      -3.706  -0.557  -0.175  0.00  0.00    +0.025 C 
ATOM      4  C   UNL     1      -2.881   0.565   0.454  0.00  0.00    +0.017 C 
ATOM      5  C   UNL     1      -3.441   1.906  -0.026  0.00  0.00    +0.054 C 
ATOM      6  C   UNL     1      -4.877   2.050   0.507  0.00  0.00    +0.119 C 
ATOM      7  C   UNL     1      -3.502   1.918  -1.536  0.00  0.00    +0.049 A 
ATOM      8  C   UNL     1      -3.465   3.132  -2.158  0.00  0.00    +0.068 A 
ATOM      9  C   UNL     1      -3.648   3.226  -3.546  0.00  0.00    +0.031 A 
ATOM     10  C   UNL     1      -3.892   2.087  -4.256  0.00  0.00    +0.072 A 
ATOM     11  C   UNL     1      -3.917   0.856  -3.587  0.00  0.00    +0.252 A 
ATOM     12  O   UNL     1      -4.178  -0.163  -4.208  0.00  0.00    -0.268 OA
ATOM     13  N   UNL     1      -3.657   0.781  -2.259  0.00  0.00    -0.310 N 
ATOM     14  C   UNL     1      -3.518  -0.556  -1.681  0.00  0.00    +0.130 C 
ENDROOT
BRANCH   1  15
ATOM     15  S   UNL     1      -7.053   1.185  -0.878  0.00  0.00    +0.061 S 
ATOM     16  O   UNL     1      -6.960   2.498  -1.413  0.00  0.00    -0.153 OA
ATOM     17  O   UNL     1      -7.249   0.041  -1.698  0.00  0.00    -0.153 OA
BRANCH  15  21
ATOM     18  C   UNL     1     -10.458   1.240   2.106  0.00  0.00    +0.120 A 
ATOM     19  C   UNL     1      -9.796   2.416   1.786  0.00  0.00    +0.047 A 
ATOM     20  C   UNL     1      -8.757   2.397   0.875  0.00  0.00    +0.032 A 
ATOM     21  C   UNL     1      -8.377   1.206   0.283  0.00  0.00    +0.106 A 
ATOM     22  C   UNL     1      -9.040   0.034   0.597  0.00  0.00    +0.032 A 
ATOM     23  C   UNL     1     -10.075   0.047   1.511  0.00  0.00    +0.047 A 
BRANCH  18  25
ATOM     24  C   UNL     1     -12.117   0.009   3.283  0.00  0.00    +0.277 C 
ATOM     25  O   UNL     1     -11.481   1.257   3.001  0.00  0.00    -0.495 OA
ENDBRANCH  18  25
ENDBRANCH  15  21
ENDBRANCH   1  15
BRANCH   8  26
ATOM     26  N   UNL     1      -3.236   4.294  -1.405  0.00  0.00    -0.215 N 
ATOM     27  H   UNL     1      -3.027   4.226  -0.460  0.00  0.00    +0.174 HD
BRANCH  26  28
ATOM     28  S   UNL     1      -3.322   5.781  -2.130  0.00  0.00    +0.072 S 
ATOM     29  O   UNL     1      -2.552   5.697  -3.321  0.00  0.00    -0.150 OA
ATOM     30  O   UNL     1      -3.057   6.742  -1.117  0.00  0.00    -0.150 OA
BRANCH  28  31
ATOM     31  C   UNL     1      -4.995   6.022  -2.627  0.00  0.00    +0.108 A 
ATOM     32  C   UNL     1      -5.376   5.749  -3.928  0.00  0.00    +0.029 A 
ATOM     33  C   UNL     1      -6.687   5.943  -4.319  0.00  0.00    +0.002 A 
ATOM     34  C   UNL     1      -7.620   6.399  -3.407  0.00  0.00    +0.000 A 
ATOM     35  C   UNL     1      -7.241   6.668  -2.105  0.00  0.00    +0.002 A 
ATOM     36  C   UNL     1      -5.928   6.479  -1.715  0.00  0.00    +0.029 A 
ENDBRANCH  28  31
ENDBRANCH  26  28
ENDBRANCH   8  26
TORSDOF 6
