REMARK  Name = ZINC02453241
REMARK  8 active torsions:
REMARK  status: ('A' for Active; 'I' for Inactive)
REMARK    1  A    between atoms: C_1  and  C_2
REMARK    2  A    between atoms: C_5  and  N_8
REMARK    3  A    between atoms: C_9  and  C_30
REMARK    4  A    between atoms: C_12  and  S_13
REMARK    5  A    between atoms: S_13  and  C_14
REMARK    6  A    between atoms: C_14  and  C_15
REMARK    7  A    between atoms: N_17  and  C_18
REMARK    8  A    between atoms: C_23  and  C_24
REMARK                            x       y       z     vdW  Elec       q    Type
REMARK                         _______ _______ _______ _____ _____    ______ ____
ROOT
ATOM      1  N   UNL     1      -1.180   1.860   0.020  0.00  0.00    -0.270 N 
ATOM      2  C   UNL     1      -1.587   2.788  -0.914  0.00  0.00    +0.171 A 
ATOM      3  N   UNL     1      -2.745   3.257  -0.512  0.00  0.00    -0.128 NA
ATOM      4  N   UNL     1      -3.083   2.702   0.597  0.00  0.00    -0.122 NA
ATOM      5  C   UNL     1      -2.164   1.839   0.970  0.00  0.00    +0.197 A 
ENDROOT
BRANCH   1  10
ATOM      6  C   UNL     1       3.591  -1.213  -0.067  0.00  0.00    +0.044 C 
ATOM      7  C   UNL     1       2.324  -0.397  -0.042  0.00  0.00    -0.050 A 
ATOM      8  C   UNL     1       1.099  -1.019  -0.204  0.00  0.00    +0.005 A 
ATOM      9  C   UNL     1      -0.063  -0.274  -0.183  0.00  0.00    +0.026 A 
ATOM     10  C   UNL     1      -0.002   1.101   0.003  0.00  0.00    +0.051 A 
ATOM     11  C   UNL     1       1.228   1.722   0.166  0.00  0.00    +0.026 A 
ATOM     12  C   UNL     1       2.388   0.972   0.143  0.00  0.00    +0.005 A 
ENDBRANCH   1  10
BRANCH   2  13
ATOM     13  C   UNL     1      -0.858   3.180  -2.139  0.00  0.00    +0.038 A 
ATOM     14  C   UNL     1       0.161   2.367  -2.651  0.00  0.00    +0.014 A 
ATOM     15  C   UNL     1       0.813   2.779  -3.800  0.00  0.00    +0.020 A 
ATOM     16  C   UNL     1       0.441   3.969  -4.401  0.00  0.00    +0.111 A 
ATOM     17  N   UNL     1      -0.523   4.714  -3.895  0.00  0.00    -0.263 NA
ATOM     18  C   UNL     1      -1.177   4.362  -2.807  0.00  0.00    +0.122 A 
ENDBRANCH   2  13
BRANCH   5  19
ATOM     19  S   UNL     1      -2.195   0.841   2.422  0.00  0.00    -0.076 S 
BRANCH  19  20
ATOM     20  C   UNL     1      -3.771   1.374   3.136  0.00  0.00    +0.173 C 
BRANCH  20  21
ATOM     21  C   UNL     1      -4.015   0.631   4.424  0.00  0.00    +0.228 C 
ATOM     22  O   UNL     1      -3.204  -0.179   4.820  0.00  0.00    -0.275 OA
ATOM     23  N   UNL     1      -5.135   0.866   5.136  0.00  0.00    -0.284 N 
ATOM     24  H   UNL     1      -5.907   1.542   4.739  0.00  0.00    +0.155 HD
BRANCH  23  25
ATOM     25  C   UNL     1      -5.316   0.251   6.377  0.00  0.00    +0.041 A 
ATOM     26  C   UNL     1      -4.822  -1.026   6.600  0.00  0.00    +0.024 A 
ATOM     27  C   UNL     1      -5.003  -1.633   7.828  0.00  0.00    +0.002 A 
ATOM     28  C   UNL     1      -5.675  -0.972   8.842  0.00  0.00    +0.001 A 
ATOM     29  C   UNL     1      -6.171   0.299   8.634  0.00  0.00    +0.010 A 
ATOM     30  C   UNL     1      -5.992   0.923   7.402  0.00  0.00    +0.003 A 
BRANCH  30  31
ATOM     31  C   UNL     1      -6.518   2.291   7.176  0.00  0.00    -0.016 A 
ATOM     32  C   UNL     1      -5.692   3.279   6.643  0.00  0.00    +0.008 A 
ATOM     33  C   UNL     1      -6.189   4.549   6.430  0.00  0.00    +0.001 A 
ATOM     34  C   UNL     1      -7.501   4.845   6.755  0.00  0.00    +0.000 A 
ATOM     35  C   UNL     1      -8.323   3.869   7.288  0.00  0.00    +0.001 A 
ATOM     36  C   UNL     1      -7.839   2.594   7.501  0.00  0.00    +0.008 A 
ENDBRANCH  30  31
ENDBRANCH  23  25
ENDBRANCH  20  21
ENDBRANCH  19  20
ENDBRANCH   5  19
TORSDOF 7
