REMARK  Name = ZINC02107152
REMARK  10 active torsions:
REMARK  status: ('A' for Active; 'I' for Inactive)
REMARK    1  A    between atoms: C_1  and  C_2
REMARK    2  A    between atoms: C_2  and  C_4
REMARK    3  A    between atoms: C_2  and  O_8
REMARK    4  A    between atoms: C_4  and  O_6
REMARK    5  A    between atoms: O_6  and  C_7
REMARK    6  A    between atoms: O_8  and  C_9
REMARK    7  A    between atoms: C_17  and  C_18
REMARK    8  A    between atoms: C_21  and  C_24
REMARK    9  A    between atoms: C_24  and  C_25
REMARK   10  A    between atoms: C_24  and  C_26
REMARK                            x       y       z     vdW  Elec       q    Type
REMARK                         _______ _______ _______ _____ _____    ______ ____
ROOT
ATOM      1  C   UNL     1      -1.978  -0.549  -1.188  0.00  0.00    +0.125 A 
ATOM      2  C   UNL     1      -1.274  -0.289  -2.361  0.00  0.00    +0.046 A 
ATOM      3  C   UNL     1      -1.893  -0.406  -3.574  0.00  0.00    +0.019 A 
ATOM      4  C   UNL     1      -3.234  -0.788  -3.636  0.00  0.00    +0.068 A 
ATOM      5  C   UNL     1      -3.954  -1.054  -2.460  0.00  0.00    +0.143 A 
ATOM      6  C   UNL     1      -3.308  -0.935  -1.235  0.00  0.00    +0.092 A 
ATOM      7  O   UNL     1      -5.221  -1.403  -2.770  0.00  0.00    -0.451 OA
ATOM      8  C   UNL     1      -5.433  -1.397  -4.107  0.00  0.00    +0.176 C 
ATOM      9  C   UNL     1      -6.595  -1.699  -4.736  0.00  0.00    +0.058 C 
ATOM     10  C   UNL     1      -4.170  -1.002  -4.754  0.00  0.00    +0.231 C 
ATOM     11  O   UNL     1      -3.950  -0.879  -5.946  0.00  0.00    -0.283 OA
ENDROOT
BRANCH   9  12
ATOM     12  C   UNL     1      -7.808  -1.965  -3.950  0.00  0.00    -0.021 A 
ATOM     13  C   UNL     1      -9.034  -2.167  -4.595  0.00  0.00    +0.008 A 
ATOM     14  C   UNL     1     -10.167  -2.416  -3.850  0.00  0.00    +0.004 A 
ATOM     15  C   UNL     1     -10.095  -2.466  -2.469  0.00  0.00    -0.045 A 
ATOM     16  C   UNL     1      -8.887  -2.268  -1.823  0.00  0.00    +0.004 A 
ATOM     17  C   UNL     1      -7.743  -2.024  -2.553  0.00  0.00    +0.008 A 
BRANCH  15  18
ATOM     18  C   UNL     1     -11.339  -2.739  -1.663  0.00  0.00    +0.013 C 
ATOM     19  C   UNL     1     -11.144  -4.013  -0.839  0.00  0.00    +0.012 C 
ATOM     20  C   UNL     1     -11.607  -1.560  -0.725  0.00  0.00    +0.012 C 
ENDBRANCH  15  18
ENDBRANCH   9  12
BRANCH   1  21
ATOM     21  O   UNL     1      -1.354  -0.430   0.011  0.00  0.00    -0.478 OA
BRANCH  21  23
ATOM     22  C   UNL     1       0.034   1.546  -0.094  0.00  0.00    +0.064 C 
ATOM     23  C   UNL     1       0.003   0.019  -0.005  0.00  0.00    +0.278 C 
BRANCH  23  24
ATOM     24  C   UNL     1       0.694  -0.425   1.258  0.00  0.00    +0.348 C 
ATOM     25  O   UNL     1       0.065  -0.981   2.127  0.00  0.00    -0.247 OA
BRANCH  24  26
ATOM     26  O   UNL     1       2.008  -0.203   1.418  0.00  0.00    -0.465 OA
ATOM     27  C   UNL     1       2.598  -0.650   2.640  0.00  0.00    +0.280 C 
ENDBRANCH  24  26
ENDBRANCH  23  24
ENDBRANCH  21  23
ENDBRANCH   1  21
TORSDOF 6
