REMARK  Name = ZINC30980506
REMARK  5 active torsions:
REMARK  status: ('A' for Active; 'I' for Inactive)
REMARK    1  A    between atoms: C_1  and  N_2
REMARK    2  A    between atoms: N_2  and  C_3
REMARK    3  A    between atoms: C_3  and  C_4
REMARK    4  A    between atoms: N_14  and  C_15
REMARK    5  A    between atoms: C_15  and  C_16
REMARK                            x       y       z     vdW  Elec       q    Type
REMARK                         _______ _______ _______ _____ _____    ______ ____
ROOT
ATOM      1  C   UNL     1       1.743   9.213  -2.269  0.00  0.00    +0.134 C 
ATOM      2  N   UNL     1       0.976   9.959  -1.268  0.00  0.00    -0.284 N 
ATOM      3  C   UNL     1       0.040   9.330  -0.530  0.00  0.00    +0.302 C 
ATOM      4  O   UNL     1      -0.596   9.949   0.301  0.00  0.00    -0.253 OA
ATOM      5  N   UNL     1      -0.191   8.015  -0.714  0.00  0.00    -0.296 N 
ATOM      6  H   UNL     1       0.385   7.455  -1.465  0.00  0.00    +0.150 HD
ENDROOT
BRANCH   2   7
ATOM      7  C   UNL     1       1.227  11.389  -1.069  0.00  0.00    +0.144 C 
BRANCH   7   8
ATOM      8  C   UNL     1       2.294  11.570  -0.020  0.00  0.00    -0.029 A 
ATOM      9  C   UNL     1       1.940  11.688   1.312  0.00  0.00    +0.007 A 
ATOM     10  C   UNL     1       2.918  11.850   2.275  0.00  0.00    +0.022 A 
ATOM     11  C   UNL     1       4.250  11.904   1.906  0.00  0.00    +0.059 A 
ATOM     12  C   UNL     1       4.604  11.791   0.573  0.00  0.00    +0.060 A 
ATOM     13  C   UNL     1       3.624  11.624  -0.390  0.00  0.00    +0.026 A 
ATOM     14 CL   UNL     1       6.275  11.858   0.108  0.00  0.00    -0.082 Cl
ATOM     15 CL   UNL     1       5.478  12.114   3.116  0.00  0.00    -0.082 Cl
ENDBRANCH   7   8
ENDBRANCH   2   7
BRANCH   5  16
ATOM     16  C   UNL     1      -1.208   7.331   0.088  0.00  0.00    +0.153 C 
BRANCH  16  17
ATOM     17  C   UNL     1      -1.270   5.856  -0.315  0.00  0.00    +0.228 C 
ATOM     18  C   UNL     1      -2.417   5.163   0.432  0.00  0.00    +0.275 C 
ATOM     19  O   UNL     1      -2.437   3.785   0.043  0.00  0.00    -0.485 OA
ATOM     20  C   UNL     1      -1.241   3.136   0.031  0.00  0.00    +0.162 A 
ATOM     21  C   UNL     1      -1.219   1.749   0.017  0.00  0.00    +0.049 A 
ATOM     22  C   UNL     1      -0.013   1.076   0.008  0.00  0.00    +0.004 A 
ATOM     23  C   UNL     1       1.176   1.782   0.000  0.00  0.00    +0.004 A 
ATOM     24  C   UNL     1       1.161   3.164   0.009  0.00  0.00    +0.049 A 
ATOM     25  C   UNL     1      -0.046   3.846   0.026  0.00  0.00    +0.163 A 
ATOM     26  O   UNL     1      -0.045   5.207   0.043  0.00  0.00    -0.480 OA
ENDBRANCH  16  17
ENDBRANCH   5  16
TORSDOF 4
