REMARK  Name = ZINC01372089
REMARK  9 active torsions:
REMARK  status: ('A' for Active; 'I' for Inactive)
REMARK    1  A    between atoms: C_1  and  C_2
REMARK    2  A    between atoms: C_11  and  N_18
REMARK    3  A    between atoms: C_13  and  C_15
REMARK    4  A    between atoms: C_15  and  C_16
REMARK    5  A    between atoms: C_15  and  C_17
REMARK    6  A    between atoms: C_24  and  C_26
REMARK    7  A    between atoms: C_26  and  C_27
REMARK    8  A    between atoms: C_27  and  C_28
REMARK    9  A    between atoms: C_28  and  C_29
REMARK                            x       y       z     vdW  Elec       q    Type
REMARK                         _______ _______ _______ _____ _____    ______ ____
ROOT
ATOM      1  N   UNL     1      -2.393  -4.761  -0.406  0.00  0.00    -0.312 N 
ATOM      2  C   UNL     1      -2.608  -3.358  -0.789  0.00  0.00    +0.125 C 
ATOM      3  C   UNL     1      -2.497  -3.244  -2.314  0.00  0.00    +0.126 C 
ATOM      4  N   UNL     1      -3.339  -4.282  -2.925  0.00  0.00    -0.298 N 
ATOM      5  C   UNL     1      -3.124  -5.685  -2.542  0.00  0.00    +0.126 C 
ATOM      6  C   UNL     1      -3.232  -5.799  -1.021  0.00  0.00    +0.125 C 
ATOM      7  C   UNL     1      -4.292  -3.954  -3.820  0.00  0.00    +0.216 C 
ATOM      8  O   UNL     1      -4.460  -2.793  -4.128  0.00  0.00    -0.276 OA
ENDROOT
BRANCH   1  18
ATOM      9  C   UNL     1      -6.351  -3.515   4.897  0.00  0.00    +0.008 C 
ATOM     10  C   UNL     1      -5.065  -3.603   4.072  0.00  0.00    -0.009 C 
ATOM     11  C   UNL     1      -5.340  -4.365   2.773  0.00  0.00    +0.008 C 
ATOM     12  C   UNL     1      -4.137  -4.245   1.837  0.00  0.00    +0.037 C 
ATOM     13  C   UNL     1      -2.880  -4.669   2.591  0.00  0.00    -0.025 A 
ATOM     14  C   UNL     1      -2.868  -4.704   3.943  0.00  0.00    -0.004 A 
ATOM     15  S   UNL     1      -1.234  -5.243   4.382  0.00  0.00    -0.073 S 
ATOM     16  C   UNL     1      -0.569  -5.422   2.759  0.00  0.00    +0.114 A 
ATOM     17  C   UNL     1      -1.650  -5.053   1.918  0.00  0.00    +0.051 A 
ATOM     18  C   UNL     1      -1.416  -5.098   0.513  0.00  0.00    +0.133 A 
ATOM     19  N   UNL     1      -0.198  -5.486   0.140  0.00  0.00    -0.216 NA
ATOM     20  C   UNL     1       0.760  -5.815   0.983  0.00  0.00    +0.135 A 
ATOM     21  N   UNL     1       0.610  -5.795   2.302  0.00  0.00    -0.224 NA
ATOM     22  C   UNL     1      -3.992  -4.356   4.870  0.00  0.00    +0.046 C 
BRANCH  20  23
ATOM     23  C   UNL     1       2.094  -6.236   0.421  0.00  0.00    +0.051 C 
ATOM     24  C   UNL     1       3.183  -5.286   0.926  0.00  0.00    +0.015 C 
ATOM     25  C   UNL     1       2.411  -7.662   0.874  0.00  0.00    +0.015 C 
ENDBRANCH  20  23
ENDBRANCH   1  18
BRANCH   7  26
ATOM     26  C   UNL     1      -5.147  -5.029  -4.439  0.00  0.00    +0.096 C 
BRANCH  26  27
ATOM     27  C   UNL     1      -6.141  -4.393  -5.413  0.00  0.00    +0.018 C 
BRANCH  27  28
ATOM     28  C   UNL     1      -7.010  -5.484  -6.040  0.00  0.00    +0.097 C 
BRANCH  28  29
ATOM     29  C   UNL     1      -7.989  -4.857  -7.000  0.00  0.00    +0.220 C 
ATOM     30  O   UNL     1      -7.991  -3.656  -7.165  0.00  0.00    -0.275 OA
ATOM     31  N   UNL     1      -8.862  -5.632  -7.674  0.00  0.00    -0.261 N 
ATOM     32  C   UNL     1      -8.884  -7.091  -7.487  0.00  0.00    +0.209 C 
ATOM     33  C   UNL     1      -9.050  -7.756  -8.829  0.00  0.00    +0.235 C 
ATOM     34  O   UNL     1      -8.588  -8.863  -9.010  0.00  0.00    -0.274 OA
ATOM     35  N   UNL     1      -9.706  -7.137  -9.829  0.00  0.00    -0.283 N 
ATOM     36  C   UNL     1     -10.205  -5.841  -9.662  0.00  0.00    +0.055 A 
ATOM     37  C   UNL     1      -9.783  -5.072  -8.573  0.00  0.00    +0.058 A 
ATOM     38  C   UNL     1     -10.266  -3.789  -8.394  0.00  0.00    +0.025 A 
ATOM     39  C   UNL     1     -11.176  -3.266  -9.295  0.00  0.00    +0.002 A 
ATOM     40  C   UNL     1     -11.603  -4.023 -10.370  0.00  0.00    +0.002 A 
ATOM     41  C   UNL     1     -11.116  -5.311 -10.562  0.00  0.00    +0.025 A 
ATOM     42  H   UNL     1      -9.833  -7.595 -10.675  0.00  0.00    +0.155 HD
ENDBRANCH  28  29
ENDBRANCH  27  28
ENDBRANCH  26  27
ENDBRANCH   7  26
TORSDOF 6
