REMARK  Name = ZINC13077936
REMARK  9 active torsions:
REMARK  status: ('A' for Active; 'I' for Inactive)
REMARK    1  A    between atoms: C_1  and  C_2
REMARK    2  A    between atoms: C_3  and  C_7
REMARK    3  A    between atoms: C_10  and  S_31
REMARK    4  A    between atoms: N_11  and  N_12
REMARK    5  A    between atoms: C_13  and  C_14
REMARK    6  A    between atoms: N_16  and  C_25
REMARK    7  A    between atoms: C_18  and  C_19
REMARK    8  A    between atoms: S_31  and  C_32
REMARK    9  A    between atoms: C_32  and  C_33
REMARK                            x       y       z     vdW  Elec       q    Type
REMARK                         _______ _______ _______ _____ _____    ______ ____
ROOT
ATOM      1  N   UNL     1      -3.025   0.634  -0.196  0.00  0.00    -0.170 NA
ATOM      2  C   UNL     1      -3.358  -0.033   0.867  0.00  0.00    +0.145 C 
ENDROOT
BRANCH   1   7
ATOM      3  C   UNL     1      -1.556   2.602   0.205  0.00  0.00    +0.189 A 
ATOM      4  N   UNL     1      -1.753   3.901   0.183  0.00  0.00    -0.126 NA
ATOM      5  N   UNL     1      -2.974   4.156  -0.125  0.00  0.00    -0.120 NA
ATOM      6  C   UNL     1      -3.637   3.037  -0.310  0.00  0.00    +0.213 A 
ATOM      7  N   UNL     1      -2.758   2.007  -0.106  0.00  0.00    -0.187 N 
BRANCH   3  10
ATOM      8  C   UNL     1       1.189   3.965   0.865  0.00  0.00    +0.087 C 
ATOM      9  C   UNL     1       0.914   2.485   0.798  0.00  0.00    +0.113 A 
ATOM     10  C   UNL     1      -0.286   1.911   0.512  0.00  0.00    +0.062 A 
ATOM     11  C   UNL     1      -0.055   0.461   0.565  0.00  0.00    +0.053 A 
ATOM     12  C   UNL     1       1.242   0.303   0.873  0.00  0.00    +0.196 A 
ATOM     13  O   UNL     1       1.810   1.510   1.010  0.00  0.00    -0.467 OA
ENDBRANCH   3  10
BRANCH   6  14
ATOM     14  S   UNL     1      -5.340   2.889  -0.739  0.00  0.00    -0.073 S 
BRANCH  14  15
ATOM     15  C   UNL     1      -5.795   4.639  -0.824  0.00  0.00    +0.202 C 
BRANCH  15  16
ATOM     16  C   UNL     1      -7.253   4.761  -1.187  0.00  0.00    +0.366 C 
ATOM     17  O   UNL     1      -7.915   3.767  -1.369  0.00  0.00    -0.245 OA
ATOM     18  O   UNL     1      -7.815   5.974  -1.308  0.00  0.00    -0.245 OA
ENDBRANCH  15  16
ENDBRANCH  14  15
ENDBRANCH   6  14
ENDBRANCH   1   7
BRANCH   2  19
ATOM     19  C   UNL     1      -3.760  -1.446   0.754  0.00  0.00    +0.040 A 
ATOM     20  C   UNL     1      -4.073  -2.299   1.789  0.00  0.00    +0.124 A 
ATOM     21  N   UNL     1      -4.390  -3.497   1.256  0.00  0.00    -0.239 N 
ATOM     22  N   UNL     1      -4.275  -3.434  -0.136  0.00  0.00    -0.166 NA
ATOM     23  C   UNL     1      -3.900  -2.222  -0.482  0.00  0.00    +0.102 A 
BRANCH  23  24
ATOM     24  C   UNL     1      -3.661  -1.733  -1.861  0.00  0.00    +0.003 A 
ATOM     25  C   UNL     1      -4.563  -2.042  -2.878  0.00  0.00    +0.010 A 
ATOM     26  C   UNL     1      -4.339  -1.579  -4.159  0.00  0.00    +0.001 A 
ATOM     27  C   UNL     1      -3.216  -0.821  -4.437  0.00  0.00    +0.000 A 
ATOM     28  C   UNL     1      -2.315  -0.516  -3.432  0.00  0.00    +0.001 A 
ATOM     29  C   UNL     1      -2.532  -0.968  -2.147  0.00  0.00    +0.010 A 
ENDBRANCH  23  24
BRANCH  21  30
ATOM     30  C   UNL     1      -4.770  -4.631   1.984  0.00  0.00    +0.065 A 
ATOM     31  C   UNL     1      -4.843  -4.575   3.370  0.00  0.00    +0.028 A 
ATOM     32  C   UNL     1      -5.223  -5.694   4.086  0.00  0.00    +0.002 A 
ATOM     33  C   UNL     1      -5.519  -6.872   3.424  0.00  0.00    +0.000 A 
ATOM     34  C   UNL     1      -5.441  -6.932   2.045  0.00  0.00    +0.002 A 
ATOM     35  C   UNL     1      -5.068  -5.815   1.323  0.00  0.00    +0.028 A 
ENDBRANCH  21  30
ENDBRANCH   2  19
TORSDOF 8
