REMARK  Name = ZINC15859568
REMARK  7 active torsions:
REMARK  status: ('A' for Active; 'I' for Inactive)
REMARK    1  A    between atoms: C_1  and  C_2
REMARK    2  A    between atoms: C_5  and  C_8
REMARK    3  A    between atoms: N_10  and  C_11
REMARK    4  A    between atoms: C_19  and  C_20
REMARK    5  A    between atoms: C_20  and  C_22
REMARK    6  A    between atoms: C_20  and  N_63
REMARK    7  A    between atoms: C_30  and  C_33
REMARK                            x       y       z     vdW  Elec       q    Type
REMARK                         _______ _______ _______ _____ _____    ______ ____
ROOT
ATOM      1  C   UNL     1      -1.781  -1.533   0.947  0.00  0.00    +0.082 A 
ATOM      2  C   UNL     1      -2.441  -2.014  -0.277  0.00  0.00    +0.042 A 
ATOM      3  C   UNL     1      -2.482  -3.236  -0.944  0.00  0.00    +0.013 A 
ATOM      4  C   UNL     1      -3.207  -3.355  -2.097  0.00  0.00    +0.001 A 
ATOM      5  C   UNL     1      -3.902  -2.267  -2.605  0.00  0.00    +0.004 A 
ATOM      6  C   UNL     1      -3.874  -1.050  -1.958  0.00  0.00    +0.047 A 
ATOM      7  C   UNL     1      -3.142  -0.908  -0.785  0.00  0.00    +0.137 A 
ATOM      8  O   UNL     1      -2.926   0.126   0.052  0.00  0.00    -0.459 OA
ATOM      9  C   UNL     1      -2.128  -0.239   1.074  0.00  0.00    +0.118 A 
ENDROOT
BRANCH   1  12
ATOM     10  C   UNL     1      -1.498  -2.958   2.837  0.00  0.00    +0.248 C 
ATOM     11  O   UNL     1      -2.706  -3.005   2.966  0.00  0.00    -0.270 OA
ATOM     12  N   UNL     1      -0.956  -2.274   1.809  0.00  0.00    -0.278 N 
ATOM     13  H   UNL     1       0.003  -2.295   1.664  0.00  0.00    +0.155 HD
BRANCH  10  18
ATOM     14  C   UNL     1       1.908  -5.647   6.615  0.00  0.00    +0.044 C 
ATOM     15  C   UNL     1       1.016  -4.943   5.625  0.00  0.00    -0.050 A 
ATOM     16  C   UNL     1      -0.358  -5.000   5.775  0.00  0.00    +0.004 A 
ATOM     17  C   UNL     1      -1.180  -4.357   4.873  0.00  0.00    +0.013 A 
ATOM     18  C   UNL     1      -0.623  -3.649   3.807  0.00  0.00    +0.037 A 
ATOM     19  C   UNL     1       0.764  -3.600   3.659  0.00  0.00    +0.013 A 
ATOM     20  C   UNL     1       1.575  -4.243   4.571  0.00  0.00    +0.004 A 
ENDBRANCH  10  18
ENDBRANCH   1  12
BRANCH   9  21
ATOM     21  C   UNL     1      -1.684   0.669   2.192  0.00  0.00    +0.032 C 
BRANCH  21  28
ATOM     22  C   UNL     1      -3.970   0.564   2.980  0.00  0.00    -0.077 C 
ATOM     23  C   UNL     1      -5.190   1.412   3.345  0.00  0.00    -0.015 C 
ATOM     24  C   UNL     1      -4.857   2.281   4.561  0.00  0.00    -0.018 C 
ATOM     25  C   UNL     1      -3.640   3.152   4.238  0.00  0.00    -0.015 C 
ATOM     26  C   UNL     1      -2.464   2.253   3.848  0.00  0.00    -0.077 C 
ATOM     27  C   UNL     1      -6.052   3.176   4.894  0.00  0.00    +0.007 C 
ATOM     28  N   UNL     1      -2.841   1.461   2.657  0.00  0.00    +0.389 N 
ATOM     29  H   UNL     1      -3.129   2.102   1.908  0.00  0.00    -0.080 HD
ENDBRANCH  21  28
BRANCH  21  30
ATOM     30  C   UNL     1      -0.624   1.611   1.682  0.00  0.00    -0.054 A 
ATOM     31  C   UNL     1      -0.985   2.730   0.956  0.00  0.00    +0.002 A 
ATOM     32  C   UNL     1      -0.012   3.596   0.492  0.00  0.00    +0.000 A 
ATOM     33  C   UNL     1       1.322   3.338   0.747  0.00  0.00    +0.000 A 
ATOM     34  C   UNL     1       1.683   2.217   1.470  0.00  0.00    +0.000 A 
ATOM     35  C   UNL     1       0.710   1.353   1.937  0.00  0.00    +0.002 A 
ENDBRANCH  21  30
ENDBRANCH   9  21
TORSDOF 5
