REMARK  Name = ZINC13165410
REMARK  10 active torsions:
REMARK  status: ('A' for Active; 'I' for Inactive)
REMARK    1  A    between atoms: C_1  and  C_2
REMARK    2  A    between atoms: C_2  and  O_3
REMARK    3  A    between atoms: O_3  and  C_4
REMARK    4  A    between atoms: C_4  and  C_6
REMARK    5  A    between atoms: C_7  and  C_29
REMARK    6  A    between atoms: C_10  and  N_11
REMARK    7  A    between atoms: C_12  and  C_14
REMARK    8  A    between atoms: C_14  and  N_62
REMARK    9  A    between atoms: C_17  and  C_20
REMARK   10  A    between atoms: C_32  and  C_34
REMARK                            x       y       z     vdW  Elec       q    Type
REMARK                         _______ _______ _______ _____ _____    ______ ____
ROOT
ATOM      1  N   UNL     1       4.598   8.906  -1.309  0.00  0.00    -0.281 N 
ATOM      2  C   UNL     1       4.166   7.643  -1.118  0.00  0.00    +0.201 C 
ATOM      3  O   UNL     1       4.543   6.755  -1.853  0.00  0.00    -0.278 OA
ATOM      4  H   UNL     1       4.297   9.616  -0.721  0.00  0.00    +0.155 HD
ENDROOT
BRANCH   1   9
ATOM      5  C   UNL     1       6.016  10.416  -2.701  0.00  0.00    +0.098 A 
ATOM      6  C   UNL     1       6.917  10.427  -3.840  0.00  0.00    +0.040 A 
ATOM      7  C   UNL     1       7.133   9.235  -4.458  0.00  0.00    +0.059 A 
ATOM      8  S   UNL     1       6.140   8.098  -3.513  0.00  0.00    -0.080 S 
ATOM      9  C   UNL     1       5.472   9.189  -2.347  0.00  0.00    +0.086 A 
BRANCH   6  10
ATOM     10  C   UNL     1       7.560  11.671  -4.308  0.00  0.00    +0.137 A 
ATOM     11  C   UNL     1       8.886  11.835  -4.566  0.00  0.00    +0.050 A 
ATOM     12  C   UNL     1       9.055  13.171  -4.987  0.00  0.00    +0.045 A 
ATOM     13  C   UNL     1       7.838  13.748  -4.965  0.00  0.00    +0.103 A 
ATOM     14  O   UNL     1       6.936  12.837  -4.560  0.00  0.00    -0.460 OA
ATOM     15  C   UNL     1       7.537  15.176  -5.340  0.00  0.00    +0.086 C 
ENDBRANCH   6  10
BRANCH   5  16
ATOM     16  C   UNL     1       5.701  11.637  -1.961  0.00  0.00    +0.342 C 
ATOM     17  O   UNL     1       6.387  11.968  -1.013  0.00  0.00    -0.245 OA
BRANCH  16  18
ATOM     18  O   UNL     1       4.649  12.397  -2.330  0.00  0.00    -0.461 OA
BRANCH  18  20
ATOM     19  C   UNL     1       3.176  14.302  -2.127  0.00  0.00    +0.048 C 
ATOM     20  C   UNL     1       4.399  13.576  -1.563  0.00  0.00    +0.229 C 
ENDBRANCH  18  20
ENDBRANCH  16  18
ENDBRANCH   5  16
ENDBRANCH   1   9
BRANCH   2  21
ATOM     21  C   UNL     1       3.216   7.335   0.011  0.00  0.00    +0.019 C 
BRANCH  21  27
ATOM     22  C   UNL     1       2.170   5.519   1.222  0.00  0.00    -0.078 C 
ATOM     23  C   UNL     1       1.985   4.000   1.252  0.00  0.00    -0.009 C 
ATOM     24  C   UNL     1       1.207   3.561   0.009  0.00  0.00    +0.041 C 
ATOM     25  C   UNL     1       1.962   4.013  -1.244  0.00  0.00    -0.009 C 
ATOM     26  C   UNL     1       2.148   5.532  -1.201  0.00  0.00    -0.078 C 
ATOM     27  N   UNL     1       2.925   5.887   0.006  0.00  0.00    +0.385 N 
ATOM     28  H   UNL     1       3.812   5.369  -0.004  0.00  0.00    -0.081 HD
BRANCH  24  29
ATOM     29  C   UNL     1       1.073   2.060   0.003  0.00  0.00    +0.082 A 
ATOM     30  N   UNL     1      -0.016   1.345   0.009  0.00  0.00    -0.244 NA
ATOM     31  C   UNL     1       0.002  -0.004   0.002  0.00  0.00    +0.078 A 
ATOM     32  C   UNL     1      -1.082  -0.909   0.007  0.00  0.00    +0.029 A 
ATOM     33  C   UNL     1      -0.866  -2.252  -0.002  0.00  0.00    +0.002 A 
ATOM     34  C   UNL     1       0.417  -2.783  -0.017  0.00  0.00    +0.001 A 
ATOM     35  C   UNL     1       1.504  -1.931  -0.023  0.00  0.00    +0.017 A 
ATOM     36  C   UNL     1       1.296  -0.573  -0.013  0.00  0.00    +0.039 A 
ATOM     37  S   UNL     1       2.335   0.867  -0.016  0.00  0.00    -0.072 S 
ENDBRANCH  24  29
ENDBRANCH  21  27
ENDBRANCH   2  21
TORSDOF 8
