REMARK  Name = ZINC39694372
REMARK  10 active torsions:
REMARK  status: ('A' for Active; 'I' for Inactive)
REMARK    1  A    between atoms: C_1  and  C_2
REMARK    2  A    between atoms: C_2  and  C_3
REMARK    3  A    between atoms: C_3  and  C_4
REMARK    4  A    between atoms: C_4  and  C_5
REMARK    5  A    between atoms: C_5  and  C_7
REMARK    6  A    between atoms: C_5  and  C_8
REMARK    7  A    between atoms: C_12  and  C_21
REMARK    8  A    between atoms: N_23  and  C_24
REMARK    9  A    between atoms: C_24  and  C_25
REMARK   10  A    between atoms: C_30  and  N_31
REMARK                            x       y       z     vdW  Elec       q    Type
REMARK                         _______ _______ _______ _____ _____    ______ ____
ROOT
ATOM      1  C   UNL     1       1.156  -4.849  -2.620  0.00  0.00    +0.218 C 
ATOM      2  O   UNL     1       0.781  -5.571  -1.720  0.00  0.00    -0.275 OA
ATOM      3  N   UNL     1       2.011  -5.320  -3.550  0.00  0.00    -0.300 N 
ATOM      4  C   UNL     1       2.662  -4.568  -4.649  0.00  0.00    +0.121 C 
ATOM      5  C   UNL     1       4.098  -5.135  -4.713  0.00  0.00    +0.100 C 
ATOM      6  C   UNL     1       3.994  -6.538  -4.093  0.00  0.00    -0.004 C 
ATOM      7  C   UNL     1       2.519  -6.705  -3.699  0.00  0.00    +0.115 C 
ATOM      8  C   UNL     1       4.878  -6.635  -2.853  0.00  0.00    -0.010 C 
ATOM      9  C   UNL     1       4.802  -8.056  -2.288  0.00  0.00    -0.082 C 
ATOM     10  N   UNL     1       5.246  -9.015  -3.307  0.00  0.00    +0.379 N 
ATOM     11  C   UNL     1       4.335  -8.981  -4.457  0.00  0.00    -0.082 C 
ATOM     12  C   UNL     1       4.391  -7.599  -5.115  0.00  0.00    -0.010 C 
ATOM     13  H   UNL     1       6.178  -8.774  -3.610  0.00  0.00    -0.086 HD
ATOM     14  H   UNL     1       5.253  -9.944  -2.913  0.00  0.00    -0.086 HD
ENDROOT
BRANCH   5  15
ATOM     15  C   UNL     1       4.563  -5.224  -6.144  0.00  0.00    +0.218 C 
ATOM     16  O   UNL     1       3.807  -5.625  -7.003  0.00  0.00    -0.275 OA
ATOM     17  N   UNL     1       5.819  -4.858  -6.467  0.00  0.00    -0.311 N 
ATOM     18  H   UNL     1       6.423  -4.538  -5.780  0.00  0.00    +0.149 HD
BRANCH  17  19
ATOM     19  C   UNL     1       6.272  -4.945  -7.858  0.00  0.00    +0.141 C 
BRANCH  19  20
ATOM     20  C   UNL     1       7.702  -4.481  -7.951  0.00  0.00    -0.009 A 
ATOM     21  C   UNL     1       7.987  -3.200  -8.381  0.00  0.00    +0.007 A 
ATOM     22  C   UNL     1       9.300  -2.774  -8.467  0.00  0.00    +0.000 A 
ATOM     23  C   UNL     1      10.332  -3.628  -8.122  0.00  0.00    +0.002 A 
ATOM     24  C   UNL     1      10.054  -4.910  -7.690  0.00  0.00    +0.023 A 
ATOM     25  C   UNL     1       8.736  -5.339  -7.598  0.00  0.00    +0.035 A 
BRANCH  25  26
ATOM     26  N   UNL     1       8.451  -6.634  -7.157  0.00  0.00    -0.325 N 
ATOM     27  C   UNL     1       8.361  -7.755  -8.105  0.00  0.00    +0.133 C 
ATOM     28  C   UNL     1       9.244  -8.897  -7.589  0.00  0.00    +0.178 C 
ATOM     29  O   UNL     1       8.896  -9.184  -6.233  0.00  0.00    -0.377 OA
ATOM     30  C   UNL     1       9.121  -8.099  -5.329  0.00  0.00    +0.178 C 
ATOM     31  C   UNL     1       8.238  -6.917  -5.729  0.00  0.00    +0.133 C 
ENDBRANCH  25  26
ENDBRANCH  19  20
ENDBRANCH  17  19
ENDBRANCH   5  15
BRANCH   1  32
ATOM     32  C   UNL     1       0.666  -3.426  -2.699  0.00  0.00    +0.072 C 
ATOM     33  C   UNL     1       1.652  -2.506  -1.977  0.00  0.00    +0.017 C 
BRANCH  32  34
ATOM     34  C   UNL     1      -0.709  -3.323  -2.034  0.00  0.00    +0.012 C 
BRANCH  34  35
ATOM     35  C   UNL     1      -1.262  -1.909  -2.223  0.00  0.00    +0.000 C 
BRANCH  35  37
ATOM     36  C   UNL     1      -3.189  -0.392  -1.747  0.00  0.00    +0.004 C 
ATOM     37  C   UNL     1      -2.636  -1.806  -1.558  0.00  0.00    -0.003 C 
ENDBRANCH  35  37
ENDBRANCH  34  35
ENDBRANCH  32  34
ENDBRANCH   1  32
TORSDOF 8
