REMARK  Name = ZINC16207349
REMARK  4 active torsions:
REMARK  status: ('A' for Active; 'I' for Inactive)
REMARK    1  A    between atoms: C_4  and  N_7
REMARK    2  A    between atoms: C_16  and  S_17
REMARK    3  A    between atoms: S_17  and  C_18
REMARK    4  A    between atoms: C_18  and  C_19
REMARK                            x       y       z     vdW  Elec       q    Type
REMARK                         _______ _______ _______ _____ _____    ______ ____
ROOT
ATOM      1  N   UNL     1       1.891   1.745   4.013  0.00  0.00    -0.255 N 
ATOM      2  C   UNL     1       1.247   0.944   3.144  0.00  0.00    +0.268 A 
ATOM      3  O   UNL     1       1.839   0.041   2.579  0.00  0.00    -0.267 OA
ATOM      4  C   UNL     1      -0.144   1.168   2.893  0.00  0.00    +0.076 A 
ATOM      5  C   UNL     1      -1.034   0.421   1.992  0.00  0.00    -0.023 A 
ATOM      6  C   UNL     1      -2.311   0.842   1.919  0.00  0.00    -0.004 A 
ATOM      7  S   UNL     1      -2.415   2.213   3.040  0.00  0.00    -0.073 S 
ATOM      8  C   UNL     1      -0.729   2.233   3.594  0.00  0.00    +0.117 A 
ATOM      9  N   UNL     1      -0.039   2.987   4.442  0.00  0.00    -0.215 NA
ATOM     10  C   UNL     1       1.242   2.761   4.655  0.00  0.00    +0.178 A 
ATOM     11  C   UNL     1      -3.412   0.281   1.075  0.00  0.00    +0.043 C 
ATOM     12  C   UNL     1      -3.458  -1.243   1.245  0.00  0.00    +0.005 C 
ATOM     13  C   UNL     1      -2.542  -1.870   0.200  0.00  0.00    +0.001 C 
ATOM     14  C   UNL     1      -1.352  -0.950  -0.071  0.00  0.00    +0.005 C 
ATOM     15  C   UNL     1      -0.519  -0.771   1.192  0.00  0.00    +0.037 C 
ENDROOT
BRANCH   1  19
ATOM     16  C   UNL     1       5.944   1.113   4.755  0.00  0.00    +0.000 A 
ATOM     17  C   UNL     1       4.993   0.470   5.526  0.00  0.00    +0.002 A 
ATOM     18  C   UNL     1       3.649   0.677   5.282  0.00  0.00    +0.026 A 
ATOM     19  C   UNL     1       3.254   1.533   4.262  0.00  0.00    +0.052 A 
ATOM     20  C   UNL     1       4.211   2.173   3.487  0.00  0.00    +0.026 A 
ATOM     21  C   UNL     1       5.553   1.966   3.739  0.00  0.00    +0.002 A 
ENDBRANCH   1  19
BRANCH  10  22
ATOM     22  S   UNL     1       2.129   3.783   5.785  0.00  0.00    -0.079 S 
BRANCH  22  23
ATOM     23  C   UNL     1       0.804   4.902   6.302  0.00  0.00    +0.151 C 
BRANCH  23  24
ATOM     24  C   UNL     1       1.346   5.895   7.299  0.00  0.00    +0.121 A 
ATOM     25  N   UNL     1       0.499   6.829   7.804  0.00  0.00    -0.310 N 
ATOM     26  H   UNL     1      -0.428   6.841   7.518  0.00  0.00    +0.170 HD
ATOM     27  C   UNL     1       0.935   7.739   8.705  0.00  0.00    +0.259 A 
ATOM     28  O   UNL     1       0.186   8.579   9.169  0.00  0.00    -0.267 OA
ATOM     29  C   UNL     1       2.350   7.678   9.099  0.00  0.00    +0.065 A 
ATOM     30  C   UNL     1       2.900   8.571  10.015  0.00  0.00    +0.015 A 
ATOM     31  C   UNL     1       4.234   8.469  10.347  0.00  0.00    +0.001 A 
ATOM     32  C   UNL     1       5.030   7.484   9.777  0.00  0.00    +0.002 A 
ATOM     33  C   UNL     1       4.505   6.591   8.870  0.00  0.00    +0.028 A 
ATOM     34  C   UNL     1       3.157   6.675   8.517  0.00  0.00    +0.078 A 
ATOM     35  N   UNL     1       2.600   5.816   7.627  0.00  0.00    -0.233 NA
ENDBRANCH  23  24
ENDBRANCH  22  23
ENDBRANCH  10  22
TORSDOF 4
