REMARK  Name = ZINC09466933
REMARK  12 active torsions:
REMARK  status: ('A' for Active; 'I' for Inactive)
REMARK    1  A    between atoms: C_1  and  C_2
REMARK    2  A    between atoms: C_2  and  C_4
REMARK    3  A    between atoms: C_2  and  N_14
REMARK    4  A    between atoms: C_7  and  S_10
REMARK    5  A    between atoms: S_10  and  N_13
REMARK    6  A    between atoms: C_15  and  C_17
REMARK    7  A    between atoms: C_17  and  C_19
REMARK    8  A    between atoms: C_17  and  N_22
REMARK    9  A    between atoms: C_19  and  C_20
REMARK   10  A    between atoms: C_19  and  C_21
REMARK   11  A    between atoms: N_22  and  S_23
REMARK   12  A    between atoms: S_23  and  C_26
REMARK                            x       y       z     vdW  Elec       q    Type
REMARK                         _______ _______ _______ _____ _____    ______ ____
ROOT
ATOM      1  N   UNL     1      -1.481  -2.337  -0.004  0.00  0.00    -0.307 N 
ATOM      2  C   UNL     1      -1.893  -1.672   1.093  0.00  0.00    +0.232 C 
ATOM      3  O   UNL     1      -1.120  -1.467   2.005  0.00  0.00    -0.274 OA
ATOM      4  H   UNL     1      -2.116  -2.560  -0.703  0.00  0.00    +0.149 HD
ENDROOT
BRANCH   1   6
ATOM      5  C   UNL     1       0.720  -1.555  -0.730  0.00  0.00    +0.033 C 
ATOM      6  C   UNL     1      -0.075  -2.723  -0.141  0.00  0.00    +0.100 C 
BRANCH   6   7
ATOM      7  C   UNL     1       0.032  -3.915  -1.056  0.00  0.00    -0.027 A 
ATOM      8  C   UNL     1      -0.756  -3.989  -2.190  0.00  0.00    +0.007 A 
ATOM      9  C   UNL     1      -0.658  -5.083  -3.030  0.00  0.00    +0.029 A 
ATOM     10  C   UNL     1       0.228  -6.103  -2.736  0.00  0.00    +0.105 A 
ATOM     11  C   UNL     1       1.017  -6.028  -1.603  0.00  0.00    +0.029 A 
ATOM     12  C   UNL     1       0.922  -4.933  -0.766  0.00  0.00    +0.007 A 
BRANCH  10  13
ATOM     13  S   UNL     1       0.352  -7.497  -3.806  0.00  0.00    +0.056 S 
ATOM     14  O   UNL     1       0.860  -8.567  -3.021  0.00  0.00    -0.153 OA
ATOM     15  O   UNL     1      -0.882  -7.584  -4.504  0.00  0.00    -0.153 OA
BRANCH  13  16
ATOM     16  N   UNL     1       1.512  -7.147  -4.935  0.00  0.00    -0.204 NA
ATOM     17  H   UNL     1       1.971  -6.293  -4.909  0.00  0.00    +0.144 HD
ATOM     18  H   UNL     1       1.731  -7.795  -5.622  0.00  0.00    +0.144 HD
ENDBRANCH  13  16
ENDBRANCH  10  13
ENDBRANCH   6   7
ENDBRANCH   1   6
BRANCH   2  19
ATOM     19  C   UNL     1      -3.316  -1.183   1.188  0.00  0.00    +0.165 C 
BRANCH  19  20
ATOM     20  C   UNL     1      -3.458   0.125   0.407  0.00  0.00    +0.010 C 
ATOM     21  C   UNL     1      -4.928   0.550   0.388  0.00  0.00    +0.009 C 
ATOM     22  C   UNL     1      -2.620   1.215   1.079  0.00  0.00    +0.009 C 
ENDBRANCH  19  20
BRANCH  19  23
ATOM     23  N   UNL     1      -3.660  -0.952   2.593  0.00  0.00    -0.177 NA
ATOM     24  H   UNL     1      -3.208  -0.257   3.096  0.00  0.00    +0.149 HD
BRANCH  23  25
ATOM     25  S   UNL     1      -4.823  -1.879   3.323  0.00  0.00    +0.065 S 
ATOM     26  O   UNL     1      -4.885  -1.458   4.679  0.00  0.00    -0.153 OA
ATOM     27  O   UNL     1      -5.956  -1.858   2.466  0.00  0.00    -0.153 OA
BRANCH  25  28
ATOM     28  C   UNL     1      -4.232  -3.539   3.337  0.00  0.00    +0.142 A 
ATOM     29  C   UNL     1      -3.498  -4.176   4.282  0.00  0.00    +0.036 A 
ATOM     30  C   UNL     1      -3.145  -5.497   4.080  0.00  0.00    +0.010 A 
ATOM     31  C   UNL     1      -3.543  -6.116   2.942  0.00  0.00    +0.047 A 
ATOM     32  S   UNL     1      -4.452  -4.821   2.115  0.00  0.00    -0.077 S 
ENDBRANCH  25  28
ENDBRANCH  23  25
ENDBRANCH  19  23
ENDBRANCH   2  19
TORSDOF 9
