REMARK  Name = ZINC26399113
REMARK  10 active torsions:
REMARK  status: ('A' for Active; 'I' for Inactive)
REMARK    1  A    between atoms: C_1  and  C_2
REMARK    2  A    between atoms: C_3  and  C_36
REMARK    3  A    between atoms: C_4  and  C_14
REMARK    4  A    between atoms: C_7  and  O_9
REMARK    5  A    between atoms: O_9  and  C_10
REMARK    6  A    between atoms: C_11  and  C_13
REMARK    7  A    between atoms: C_21  and  C_30
REMARK    8  A    between atoms: C_22  and  C_24
REMARK    9  A    between atoms: C_36  and  O_38
REMARK   10  A    between atoms: O_38  and  C_39
REMARK                            x       y       z     vdW  Elec       q    Type
REMARK                         _______ _______ _______ _____ _____    ______ ____
ROOT
ATOM      1  C   UNL     1      -1.359  -3.193   1.455  0.00  0.00    -0.033 A 
ATOM      2  C   UNL     1      -1.275  -2.550   2.688  0.00  0.00    +0.007 A 
ATOM      3  C   UNL     1      -2.111  -2.882   3.710  0.00  0.00    +0.030 A 
ATOM      4  C   UNL     1      -3.074  -3.889   3.524  0.00  0.00    +0.090 A 
ATOM      5  C   UNL     1      -3.159  -4.545   2.268  0.00  0.00    +0.090 A 
ATOM      6  C   UNL     1      -2.282  -4.169   1.236  0.00  0.00    +0.034 A 
ATOM      7  N   UNL     1      -4.072  -5.504   2.078  0.00  0.00    -0.243 NA
ATOM      8  C   UNL     1      -4.889  -5.836   3.061  0.00  0.00    +0.098 A 
ATOM      9  C   UNL     1      -4.803  -5.182   4.314  0.00  0.00    +0.098 A 
ATOM     10  N   UNL     1      -3.906  -4.234   4.512  0.00  0.00    -0.243 NA
ENDROOT
BRANCH   1  14
ATOM     11  C   UNL     1       0.289   0.984  -0.120  0.00  0.00    +0.066 C 
ATOM     12  C   UNL     1       0.461  -0.484   0.171  0.00  0.00    +0.049 C 
ATOM     13  C   UNL     1      -0.633  -1.326   0.043  0.00  0.00    +0.069 C 
ATOM     14  C   UNL     1      -0.418  -2.798   0.346  0.00  0.00    +0.096 C 
ATOM     15  C   UNL     1       0.989  -3.190   0.761  0.00  0.00    +0.069 C 
ATOM     16  C   UNL     1       1.312  -4.508   1.064  0.00  0.00    +0.338 C 
ATOM     17  O   UNL     1       0.357  -5.436   1.107  0.00  0.00    -0.245 OA
ATOM     18  C   UNL     1       1.938  -2.182   0.825  0.00  0.00    +0.049 C 
ATOM     19  N   UNL     1       1.648  -0.929   0.535  0.00  0.00    -0.256 NA
ATOM     20  C   UNL     1       3.346  -2.530   1.233  0.00  0.00    +0.066 C 
BRANCH  16  21
ATOM     21  O   UNL     1       2.593  -4.848   1.313  0.00  0.00    -0.465 OA
ATOM     22  C   UNL     1       2.853  -6.219   1.618  0.00  0.00    +0.280 C 
ENDBRANCH  16  21
BRANCH  13  23
ATOM     23  C   UNL     1      -1.876  -0.842  -0.346  0.00  0.00    +0.338 C 
ATOM     24  O   UNL     1      -2.035   0.456  -0.605  0.00  0.00    -0.245 OA
BRANCH  23  25
ATOM     25  O   UNL     1      -2.922  -1.685  -0.462  0.00  0.00    -0.465 OA
ATOM     26  C   UNL     1      -4.170  -1.119  -0.867  0.00  0.00    +0.280 C 
ENDBRANCH  23  25
ENDBRANCH  13  23
ENDBRANCH   1  14
BRANCH   9  27
ATOM     27  C   UNL     1      -5.726  -5.564   5.409  0.00  0.00    +0.002 A 
ATOM     28  C   UNL     1      -5.237  -5.755   6.701  0.00  0.00    +0.010 A 
ATOM     29  C   UNL     1      -6.101  -6.110   7.717  0.00  0.00    +0.001 A 
ATOM     30  C   UNL     1      -7.449  -6.277   7.455  0.00  0.00    +0.000 A 
ATOM     31  C   UNL     1      -7.940  -6.090   6.175  0.00  0.00    +0.001 A 
ATOM     32  C   UNL     1      -7.086  -5.729   5.152  0.00  0.00    +0.010 A 
ENDBRANCH   9  27
BRANCH   8  33
ATOM     33  C   UNL     1      -5.900  -6.898   2.851  0.00  0.00    +0.002 A 
ATOM     34  C   UNL     1      -6.087  -7.888   3.816  0.00  0.00    +0.010 A 
ATOM     35  C   UNL     1      -7.030  -8.874   3.615  0.00  0.00    +0.001 A 
ATOM     36  C   UNL     1      -7.790  -8.883   2.459  0.00  0.00    +0.000 A 
ATOM     37  C   UNL     1      -7.609  -7.904   1.498  0.00  0.00    +0.001 A 
ATOM     38  C   UNL     1      -6.673  -6.909   1.690  0.00  0.00    +0.010 A 
ENDBRANCH   8  33
TORSDOF 6
