REMARK  Name = ZINC48310393
REMARK  6 active torsions:
REMARK  status: ('A' for Active; 'I' for Inactive)
REMARK    1  A    between atoms: C_3  and  C_6
REMARK    2  A    between atoms: C_6  and  C_8
REMARK    3  A    between atoms: C_6  and  N_22
REMARK    4  A    between atoms: C_8  and  N_9
REMARK    5  A    between atoms: N_9  and  S_10
REMARK    6  A    between atoms: S_10  and  C_13
REMARK                            x       y       z     vdW  Elec       q    Type
REMARK                         _______ _______ _______ _____ _____    ______ ____
ROOT
ATOM      1  N   UNL     1       3.689   1.596  -2.282  0.00  0.00    -0.191 NA
ATOM      2  H   UNL     1       2.983   2.173  -1.952  0.00  0.00    +0.148 HD
ENDROOT
BRANCH   1   3
ATOM      3  S   UNL     1       4.339   1.857  -3.782  0.00  0.00    +0.061 S 
ATOM      4  O   UNL     1       3.643   2.964  -4.339  0.00  0.00    -0.153 OA
ATOM      5  O   UNL     1       5.751   1.849  -3.621  0.00  0.00    -0.153 OA
BRANCH   3   6
ATOM      6  C   UNL     1       3.937   0.459  -4.775  0.00  0.00    +0.142 A 
ATOM      7  C   UNL     1       4.790  -0.630  -4.815  0.00  0.00    +0.070 A 
ATOM      8  C   UNL     1       4.474  -1.728  -5.594  0.00  0.00    +0.037 A 
ATOM      9  C   UNL     1       3.305  -1.739  -6.333  0.00  0.00    +0.021 A 
ATOM     10  C   UNL     1       2.452  -0.651  -6.293  0.00  0.00    +0.037 A 
ATOM     11  C   UNL     1       2.765   0.446  -5.510  0.00  0.00    +0.070 A 
ATOM     12 CL   UNL     1       1.691   1.808  -5.455  0.00  0.00    -0.081 Cl
ATOM     13 BR   UNL     1       2.873  -3.240  -7.399  0.00  0.00    -0.050 Br
ATOM     14 CL   UNL     1       6.258  -0.617  -3.888  0.00  0.00    -0.081 Cl
ENDBRANCH   3   6
ENDBRANCH   1   3
BRANCH   1  15
ATOM     15  C   UNL     1       4.182   0.493  -1.452  0.00  0.00    +0.098 C 
BRANCH  15  16
ATOM     16  C   UNL     1       3.735   0.706  -0.004  0.00  0.00    +0.015 C 
BRANCH  16  17
ATOM     17  N   UNL     1       4.338  -0.326   0.850  0.00  0.00    +0.387 N 
ATOM     18  C   UNL     1       5.817  -0.197   0.843  0.00  0.00    -0.078 C 
ATOM     19  C   UNL     1       6.242  -0.914   2.150  0.00  0.00    -0.020 C 
ATOM     20  C   UNL     1       5.122  -0.520   3.140  0.00  0.00    -0.020 C 
ATOM     21  C   UNL     1       3.922  -0.131   2.256  0.00  0.00    -0.078 C 
ATOM     22  H   UNL     1       4.066  -1.244   0.531  0.00  0.00    -0.081 HD
ENDBRANCH  16  17
BRANCH  16  25
ATOM     23  C   UNL     1       0.077   1.109   0.196  0.00  0.00    +0.041 A 
ATOM     24  C   UNL     1       1.381   1.651   0.128  0.00  0.00    +0.043 A 
ATOM     25  C   UNL     1       2.233   0.611   0.077  0.00  0.00    +0.093 A 
ATOM     26  O   UNL     1       1.519  -0.525   0.111  0.00  0.00    -0.469 OA
ATOM     27  C   UNL     1       0.210  -0.230   0.183  0.00  0.00    +0.195 A 
ENDBRANCH  16  25
ENDBRANCH  15  16
ENDBRANCH   1  15
TORSDOF 6
