REMARK  Name = ZINC39580042
REMARK  9 active torsions:
REMARK  status: ('A' for Active; 'I' for Inactive)
REMARK    1  A    between atoms: C_1  and  C_2
REMARK    2  A    between atoms: C_3  and  O_28
REMARK    3  A    between atoms: C_4  and  C_8
REMARK    4  A    between atoms: C_11  and  O_15
REMARK    5  A    between atoms: C_13  and  O_14
REMARK    6  A    between atoms: O_15  and  C_16
REMARK    7  A    between atoms: C_16  and  C_17
REMARK    8  A    between atoms: N_20  and  C_22
REMARK    9  A    between atoms: O_28  and  C_29
REMARK                            x       y       z     vdW  Elec       q    Type
REMARK                         _______ _______ _______ _____ _____    ______ ____
ROOT
ATOM      1  C   UNL     1      -1.090  -2.995  -1.062  0.00  0.00    +0.025 A 
ATOM      2  C   UNL     1      -0.335  -3.170  -2.206  0.00  0.00    +0.013 A 
ATOM      3  C   UNL     1      -0.842  -3.895  -3.267  0.00  0.00    +0.046 A 
ATOM      4  C   UNL     1      -2.112  -4.449  -3.187  0.00  0.00    +0.124 A 
ATOM      5  C   UNL     1      -2.871  -4.276  -2.040  0.00  0.00    +0.091 A 
ATOM      6  C   UNL     1      -2.358  -3.552  -0.974  0.00  0.00    +0.126 A 
ENDROOT
BRANCH   1  10
ATOM      7  C   UNL     1      -0.022   1.491  -0.108  0.00  0.00    +0.071 C 
ATOM      8  C   UNL     1      -0.002  -0.015  -0.050  0.00  0.00    +0.098 C 
ATOM      9  C   UNL     1      -1.094  -0.791   0.098  0.00  0.00    +0.156 C 
ATOM     10  C   UNL     1      -0.534  -2.203   0.093  0.00  0.00    +0.200 C 
ATOM     11  N   UNL     1       0.913  -1.980  -0.071  0.00  0.00    -0.294 N 
ATOM     12  N   UNL     1       1.103  -0.764  -0.144  0.00  0.00    -0.179 NA
ATOM     13  H   UNL     1       1.595  -2.668  -0.116  0.00  0.00    +0.184 HD
BRANCH   9  14
ATOM     14  O   UNL     1      -2.382  -0.405   0.221  0.00  0.00    -0.453 OA
BRANCH  14  15
ATOM     15  C   UNL     1      -3.003  -0.625   1.410  0.00  0.00    +0.163 A 
ATOM     16  C   UNL     1      -2.284  -1.122   2.488  0.00  0.00    +0.049 A 
ATOM     17  C   UNL     1      -2.917  -1.344   3.696  0.00  0.00    +0.004 A 
ATOM     18  C   UNL     1      -4.266  -1.071   3.832  0.00  0.00    +0.003 A 
ATOM     19  C   UNL     1      -4.986  -0.575   2.761  0.00  0.00    +0.042 A 
ATOM     20  C   UNL     1      -4.357  -0.346   1.551  0.00  0.00    +0.165 A 
ATOM     21  F   UNL     1      -5.058   0.144   0.505  0.00  0.00    -0.202 F 
ENDBRANCH  14  15
ENDBRANCH   9  14
ENDBRANCH   1  10
BRANCH   6  22
ATOM     22  O   UNL     1      -3.097  -3.385   0.153  0.00  0.00    -0.506 OA
ATOM     23  H   UNL     1      -3.659  -2.599   0.142  0.00  0.00    +0.292 HD
ENDBRANCH   6  22
BRANCH   4  24
ATOM     24  O   UNL     1      -2.610  -5.162  -4.231  0.00  0.00    -0.487 OA
BRANCH  24  25
ATOM     25  C   UNL     1      -1.773  -5.301  -5.380  0.00  0.00    +0.267 C 
BRANCH  25  26
ATOM     26  C   UNL     1      -2.488  -6.115  -6.427  0.00  0.00    +0.027 A 
ATOM     27  C   UNL     1      -2.442  -7.508  -6.560  0.00  0.00    +0.141 A 
ATOM     28  N   UNL     1      -3.187  -7.847  -7.581  0.00  0.00    -0.174 NA
ATOM     29  N   UNL     1      -3.732  -6.680  -8.132  0.00  0.00    -0.239 N 
ATOM     30  C   UNL     1      -3.292  -5.630  -7.401  0.00  0.00    +0.121 A 
BRANCH  29  31
ATOM     31  C   UNL     1      -4.587  -6.612  -9.241  0.00  0.00    +0.065 A 
ATOM     32  C   UNL     1      -5.052  -5.383  -9.687  0.00  0.00    +0.028 A 
ATOM     33  C   UNL     1      -5.894  -5.319 -10.780  0.00  0.00    +0.002 A 
ATOM     34  C   UNL     1      -6.274  -6.479 -11.430  0.00  0.00    +0.000 A 
ATOM     35  C   UNL     1      -5.813  -7.706 -10.988  0.00  0.00    +0.002 A 
ATOM     36  C   UNL     1      -4.967  -7.775  -9.898  0.00  0.00    +0.028 A 
ENDBRANCH  29  31
ENDBRANCH  25  26
ENDBRANCH  24  25
ENDBRANCH   4  24
TORSDOF 8
