REMARK  Name = ZINC01091688
REMARK  6 active torsions:
REMARK  status: ('A' for Active; 'I' for Inactive)
REMARK    1  A    between atoms: C_1  and  C_2
REMARK    2  A    between atoms: C_6  and  N_8
REMARK    3  A    between atoms: C_17  and  C_31
REMARK    4  A    between atoms: N_33  and  C_34
REMARK    5  A    between atoms: C_36  and  C_41
REMARK    6  A    between atoms: C_38  and  C_40
REMARK                            x       y       z     vdW  Elec       q    Type
REMARK                         _______ _______ _______ _____ _____    ______ ____
ROOT
ATOM      1  N   UNL     1       0.745  -2.609   2.126  0.00  0.00    -0.210 N 
ATOM      2  C   UNL     1       0.707  -2.014   3.325  0.00  0.00    +0.231 C 
ATOM      3  O   UNL     1       0.875  -0.831   3.528  0.00  0.00    -0.274 OA
ATOM      4  C   UNL     1       0.421  -3.054   4.386  0.00  0.00    +0.101 C 
ATOM      5  C   UNL     1       0.298  -4.363   3.587  0.00  0.00    +0.112 C 
ATOM      6  C   UNL     1       0.523  -3.929   2.155  0.00  0.00    +0.232 C 
ATOM      7  O   UNL     1       0.507  -4.660   1.188  0.00  0.00    -0.274 OA
ATOM      8  C   UNL     1       1.394  -5.370   3.996  0.00  0.00    +0.109 C 
ATOM      9  C   UNL     1       1.251  -5.535   5.501  0.00  0.00    -0.024 A 
ATOM     10  C   UNL     1       1.032  -6.724   6.137  0.00  0.00    +0.005 A 
ATOM     11  C   UNL     1       0.920  -6.731   7.522  0.00  0.00    +0.000 A 
ATOM     12  C   UNL     1       1.031  -5.554   8.239  0.00  0.00    +0.000 A 
ATOM     13  C   UNL     1       1.256  -4.349   7.586  0.00  0.00    +0.004 A 
ATOM     14  C   UNL     1       1.363  -4.350   6.224  0.00  0.00    -0.035 A 
ATOM     15  C   UNL     1       1.609  -3.098   5.370  0.00  0.00    +0.062 C 
ATOM     16  C   UNL     1       2.828  -3.419   4.519  0.00  0.00    -0.035 A 
ATOM     17  C   UNL     1       2.711  -4.635   3.800  0.00  0.00    -0.024 A 
ATOM     18  C   UNL     1       3.729  -5.061   2.995  0.00  0.00    +0.005 A 
ATOM     19  C   UNL     1       4.880  -4.289   2.908  0.00  0.00    +0.000 A 
ATOM     20  C   UNL     1       4.990  -3.112   3.625  0.00  0.00    +0.000 A 
ATOM     21  C   UNL     1       3.947  -2.642   4.436  0.00  0.00    +0.004 A 
ENDROOT
BRANCH   1  27
ATOM     22  C   UNL     1      -0.969  -0.132  -1.762  0.00  0.00    +0.044 C 
ATOM     23  C   UNL     1       0.179  -0.696  -0.966  0.00  0.00    -0.049 A 
ATOM     24  C   UNL     1       1.478  -0.522  -1.407  0.00  0.00    +0.003 A 
ATOM     25  C   UNL     1       2.534  -1.039  -0.680  0.00  0.00    +0.002 A 
ATOM     26  C   UNL     1       2.294  -1.731   0.491  0.00  0.00    +0.024 A 
ATOM     27  C   UNL     1       0.992  -1.907   0.938  0.00  0.00    +0.044 A 
ATOM     28  C   UNL     1      -0.066  -1.382   0.208  0.00  0.00    +0.027 A 
ENDBRANCH   1  27
BRANCH   8  29
ATOM     29  C   UNL     1       1.321  -6.666   3.231  0.00  0.00    +0.233 C 
ATOM     30  O   UNL     1       0.459  -6.828   2.393  0.00  0.00    -0.274 OA
ATOM     31  N   UNL     1       2.213  -7.646   3.477  0.00  0.00    -0.284 N 
ATOM     32  H   UNL     1       2.861  -7.543   4.193  0.00  0.00    +0.155 HD
BRANCH  31  33
ATOM     33  C   UNL     1       2.207  -8.810   2.701  0.00  0.00    +0.034 A 
ATOM     34  C   UNL     1       3.401  -9.447   2.392  0.00  0.00    +0.026 A 
ATOM     35  C   UNL     1       3.392 -10.596   1.626  0.00  0.00    -0.048 A 
ATOM     36  C   UNL     1       2.194 -11.112   1.166  0.00  0.00    +0.006 A 
ATOM     37  C   UNL     1       1.003 -10.480   1.472  0.00  0.00    -0.048 A 
ATOM     38  C   UNL     1       1.005  -9.334   2.243  0.00  0.00    +0.026 A 
ATOM     39  C   UNL     1      -0.300 -11.045   0.969  0.00  0.00    +0.044 C 
ATOM     40  C   UNL     1       4.688 -11.287   1.289  0.00  0.00    +0.044 C 
ENDBRANCH  31  33
ENDBRANCH   8  29
TORSDOF 3
