REMARK  Name = ZINC39665048
REMARK  7 active torsions:
REMARK  status: ('A' for Active; 'I' for Inactive)
REMARK    1  A    between atoms: C_1  and  C_2
REMARK    2  A    between atoms: C_2  and  C_4
REMARK    3  A    between atoms: C_2  and  O_35
REMARK    4  A    between atoms: C_4  and  N_5
REMARK    5  A    between atoms: C_6  and  C_8
REMARK    6  A    between atoms: C_19  and  C_21
REMARK    7  A    between atoms: O_35  and  C_36
REMARK                            x       y       z     vdW  Elec       q    Type
REMARK                         _______ _______ _______ _____ _____    ______ ____
ROOT
ATOM      1  C   UNL     1      -2.967  -2.722  -0.873  0.00  0.00    +0.100 C 
ATOM      2  C   UNL     1      -2.325  -3.438  -2.082  0.00  0.00    +0.121 C 
ATOM      3  N   UNL     1      -3.180  -4.626  -2.311  0.00  0.00    -0.296 N 
ATOM      4  C   UNL     1      -4.561  -4.138  -2.078  0.00  0.00    +0.115 C 
ATOM      5  C   UNL     1      -4.434  -3.183  -0.874  0.00  0.00    -0.004 C 
ATOM      6  C   UNL     1      -4.756  -3.923   0.421  0.00  0.00    -0.010 C 
ATOM      7  C   UNL     1      -6.235  -4.322   0.421  0.00  0.00    -0.082 C 
ATOM      8  N   UNL     1      -7.068  -3.119   0.300  0.00  0.00    +0.379 N 
ATOM      9  C   UNL     1      -6.819  -2.465  -0.990  0.00  0.00    -0.082 C 
ATOM     10  C   UNL     1      -5.365  -1.987  -1.049  0.00  0.00    -0.010 C 
ATOM     11  C   UNL     1      -2.792  -5.870  -2.654  0.00  0.00    +0.247 C 
ATOM     12  O   UNL     1      -3.624  -6.722  -2.898  0.00  0.00    -0.270 OA
ATOM     13  H   UNL     1      -8.041  -3.378   0.362  0.00  0.00    -0.086 HD
ATOM     14  H   UNL     1      -6.845  -2.480   1.049  0.00  0.00    -0.086 HD
ENDROOT
BRANCH  11  15
ATOM     15  C   UNL     1      -1.353  -6.199  -2.733  0.00  0.00    +0.045 A 
ATOM     16  C   UNL     1      -0.482  -5.374  -3.453  0.00  0.00    +0.014 A 
ATOM     17  C   UNL     1       0.859  -5.678  -3.528  0.00  0.00    +0.001 A 
ATOM     18  C   UNL     1       1.361  -6.803  -2.892  0.00  0.00    +0.012 A 
ATOM     19  C   UNL     1       0.513  -7.636  -2.172  0.00  0.00    +0.031 A 
ATOM     20  C   UNL     1      -0.855  -7.335  -2.082  0.00  0.00    +0.006 A 
ATOM     21  C   UNL     1      -1.518  -8.375  -1.256  0.00  0.00    -0.006 A 
ATOM     22  C   UNL     1      -2.841  -8.547  -0.869  0.00  0.00    +0.009 A 
ATOM     23  C   UNL     1      -3.197  -9.628  -0.078  0.00  0.00    +0.001 A 
ATOM     24  C   UNL     1      -2.243 -10.540   0.331  0.00  0.00    +0.001 A 
ATOM     25  C   UNL     1      -0.919 -10.382  -0.046  0.00  0.00    +0.012 A 
ATOM     26  C   UNL     1      -0.549  -9.303  -0.839  0.00  0.00    +0.030 A 
ATOM     27  C   UNL     1       0.755  -8.881  -1.405  0.00  0.00    +0.194 C 
ATOM     28  O   UNL     1       1.822  -9.441  -1.255  0.00  0.00    -0.287 OA
ENDBRANCH  11  15
BRANCH   1  30
ATOM     29  N   UNL     1      -2.820  -0.427   0.038  0.00  0.00    -0.312 N 
ATOM     30  C   UNL     1      -2.887  -1.227  -1.045  0.00  0.00    +0.218 C 
ATOM     31  O   UNL     1      -2.883  -0.744  -2.157  0.00  0.00    -0.275 OA
ATOM     32  H   UNL     1      -2.823  -0.813   0.927  0.00  0.00    +0.149 HD
BRANCH  29  33
ATOM     33  C   UNL     1      -2.742   1.026  -0.130  0.00  0.00    +0.148 C 
BRANCH  33  35
ATOM     34  C   UNL     1      -2.595   3.213   1.070  0.00  0.00    +0.053 C 
ATOM     35  C   UNL     1      -2.677   1.695   1.245  0.00  0.00    +0.187 C 
BRANCH  35  36
ATOM     36  O   UNL     1      -3.849   1.364   1.992  0.00  0.00    -0.488 OA
BRANCH  36  37
ATOM     37  C   UNL     1      -3.745   1.393   3.347  0.00  0.00    +0.121 A 
ATOM     38  C   UNL     1      -4.800   0.954   4.134  0.00  0.00    +0.045 A 
ATOM     39  C   UNL     1      -4.692   0.985   5.511  0.00  0.00    +0.004 A 
ATOM     40  C   UNL     1      -3.534   1.452   6.105  0.00  0.00    +0.000 A 
ATOM     41  C   UNL     1      -2.482   1.891   5.323  0.00  0.00    +0.004 A 
ATOM     42  C   UNL     1      -2.582   1.857   3.945  0.00  0.00    +0.045 A 
ENDBRANCH  36  37
ENDBRANCH  35  36
ENDBRANCH  33  35
ENDBRANCH  29  33
ENDBRANCH   1  30
TORSDOF 6
