REMARK  Name = ZINC38760007
REMARK  8 active torsions:
REMARK  status: ('A' for Active; 'I' for Inactive)
REMARK    1  A    between atoms: C_1  and  C_2
REMARK    2  A    between atoms: C_3  and  C_26
REMARK    3  A    between atoms: C_4  and  C_8
REMARK    4  A    between atoms: C_11  and  O_15
REMARK    5  A    between atoms: C_13  and  O_14
REMARK    6  A    between atoms: O_15  and  C_16
REMARK    7  A    between atoms: C_16  and  C_17
REMARK    8  A    between atoms: C_20  and  N_23
REMARK                            x       y       z     vdW  Elec       q    Type
REMARK                         _______ _______ _______ _____ _____    ______ ____
ROOT
ATOM      1  C   UNL     1      -0.954  -2.952   1.229  0.00  0.00    +0.022 A 
ATOM      2  C   UNL     1      -0.122  -2.989   2.331  0.00  0.00    +0.013 A 
ATOM      3  C   UNL     1      -0.504  -3.678   3.466  0.00  0.00    +0.046 A 
ATOM      4  C   UNL     1      -1.726  -4.335   3.502  0.00  0.00    +0.124 A 
ATOM      5  C   UNL     1      -2.563  -4.300   2.397  0.00  0.00    +0.091 A 
ATOM      6  C   UNL     1      -2.179  -3.603   1.262  0.00  0.00    +0.126 A 
ENDROOT
BRANCH   1  10
ATOM      7  C   UNL     1      -0.018   1.503   0.010  0.00  0.00    +0.068 C 
ATOM      8  C   UNL     1       0.002  -0.004   0.002  0.00  0.00    +0.064 C 
ATOM      9  C   UNL     1      -1.100  -0.790   0.003  0.00  0.00    +0.011 C 
ATOM     10  C   UNL     1      -0.534  -2.200  -0.007  0.00  0.00    +0.164 C 
ATOM     11  N   UNL     1       0.920  -1.969  -0.013  0.00  0.00    -0.297 N 
ATOM     12  N   UNL     1       1.113  -0.751  -0.013  0.00  0.00    -0.182 NA
ATOM     13  H   UNL     1       1.606  -2.655  -0.020  0.00  0.00    +0.183 HD
BRANCH   9  14
ATOM     14  C   UNL     1      -2.513  -0.376   0.012  0.00  0.00    -0.018 A 
ATOM     15  C   UNL     1      -3.324  -0.670   1.113  0.00  0.00    +0.010 A 
ATOM     16  C   UNL     1      -4.646  -0.279   1.114  0.00  0.00    +0.020 A 
ATOM     17  C   UNL     1      -5.171   0.402   0.029  0.00  0.00    +0.041 A 
ATOM     18  C   UNL     1      -4.374   0.696  -1.065  0.00  0.00    +0.020 A 
ATOM     19  C   UNL     1      -3.048   0.317  -1.078  0.00  0.00    +0.010 A 
ATOM     20 CL   UNL     1      -6.837   0.890   0.039  0.00  0.00    -0.084 Cl
ENDBRANCH   9  14
ENDBRANCH   1  10
BRANCH   6  21
ATOM     21  O   UNL     1      -3.001  -3.562   0.179  0.00  0.00    -0.506 OA
ATOM     22  H   UNL     1      -2.858  -4.281  -0.450  0.00  0.00    +0.292 HD
ENDBRANCH   6  21
BRANCH   4  23
ATOM     23  O   UNL     1      -2.101  -5.013   4.618  0.00  0.00    -0.487 OA
BRANCH  23  24
ATOM     24  C   UNL     1      -1.188  -5.008   5.718  0.00  0.00    +0.264 C 
BRANCH  24  25
ATOM     25  C   UNL     1      -1.770  -5.804   6.857  0.00  0.00    -0.010 A 
ATOM     26  C   UNL     1      -2.562  -5.180   7.803  0.00  0.00    +0.009 A 
ATOM     27  C   UNL     1      -3.096  -5.911   8.848  0.00  0.00    +0.033 A 
ATOM     28  C   UNL     1      -2.838  -7.265   8.947  0.00  0.00    +0.126 A 
ATOM     29  C   UNL     1      -2.047  -7.889   8.001  0.00  0.00    +0.033 A 
ATOM     30  C   UNL     1      -1.517  -7.160   6.953  0.00  0.00    +0.009 A 
BRANCH  28  31
ATOM     31  N   UNL     1      -3.409  -8.047  10.067  0.00  0.00    +0.056 N 
ATOM     32  O   UNL     1      -4.100  -7.501  10.895  0.00  0.00    -0.126 OA
ATOM     33  O   UNL     1      -3.183  -9.232  10.153  0.00  0.00    -0.126 OA
ENDBRANCH  28  31
ENDBRANCH  24  25
ENDBRANCH  23  24
ENDBRANCH   4  23
TORSDOF 7
