REMARK  Name = ZINC20207971
REMARK  9 active torsions:
REMARK  status: ('A' for Active; 'I' for Inactive)
REMARK    1  A    between atoms: C_1  and  C_2
REMARK    2  A    between atoms: C_2  and  O_3
REMARK    3  A    between atoms: O_3  and  C_4
REMARK    4  A    between atoms: C_6  and  C_20
REMARK    5  A    between atoms: C_9  and  O_10
REMARK    6  A    between atoms: O_10  and  C_11
REMARK    7  A    between atoms: C_11  and  C_13
REMARK    8  A    between atoms: C_30  and  S_32
REMARK    9  A    between atoms: S_32  and  C_35
REMARK                            x       y       z     vdW  Elec       q    Type
REMARK                         _______ _______ _______ _____ _____    ______ ____
ROOT
ATOM      1  C   UNL     1       0.692  -1.999  -1.701  0.00  0.00    +0.163 A 
ATOM      2  C   UNL     1       0.385  -2.760  -0.592  0.00  0.00    +0.057 A 
ATOM      3  C   UNL     1       0.160  -4.137  -0.731  0.00  0.00    -0.021 A 
ATOM      4  C   UNL     1       0.247  -4.732  -1.998  0.00  0.00    +0.012 A 
ATOM      5  C   UNL     1       0.554  -3.964  -3.098  0.00  0.00    +0.051 A 
ATOM      6  C   UNL     1       0.772  -2.598  -2.959  0.00  0.00    +0.173 A 
ENDROOT
BRANCH   3   7
ATOM      7  C   UNL     1      -0.166  -4.951   0.442  0.00  0.00    +0.024 C 
ATOM      8  C   UNL     1       0.297  -6.244   0.533  0.00  0.00    +0.081 C 
ATOM      9  C   UNL     1       1.283  -6.795  -0.440  0.00  0.00    +0.153 C 
ATOM     10  N   UNL     1       2.215  -6.074  -1.003  0.00  0.00    -0.283 NA
ATOM     11  N   UNL     1       1.109  -8.173  -0.693  0.00  0.00    -0.150 N 
ATOM     12  C   UNL     1       0.464  -8.920   0.269  0.00  0.00    +0.182 C 
ATOM     13  N   UNL     1      -0.102  -8.489   1.368  0.00  0.00    -0.152 NA
ATOM     14  C   UNL     1      -0.152  -7.162   1.609  0.00  0.00    +0.273 C 
ATOM     15  O   UNL     1      -0.558  -6.729   2.675  0.00  0.00    -0.268 OA
ATOM     16  S   UNL     1       0.593 -10.562  -0.389  0.00  0.00    -0.015 S 
ATOM     17  C   UNL     1       1.395 -10.136  -1.928  0.00  0.00    +0.235 C 
ATOM     18  N   UNL     1       1.539  -8.846  -1.817  0.00  0.00    -0.145 NA
ATOM     19  H   UNL     1       2.786  -6.465  -1.683  0.00  0.00    +0.188 HD
BRANCH  17  20
ATOM     20  S   UNL     1       1.872 -11.191  -3.256  0.00  0.00    +0.019 S 
ATOM     21  O   UNL     1       0.915 -12.241  -3.247  0.00  0.00    -0.168 OA
ATOM     22  O   UNL     1       1.991 -10.329  -4.380  0.00  0.00    -0.168 OA
ATOM     23  C   UNL     1       3.503 -11.829  -2.783  0.00  0.00    +0.202 C 
ENDBRANCH  17  20
ENDBRANCH   3   7
BRANCH   1  24
ATOM     24  O   UNL     1       0.911  -0.664  -1.570  0.00  0.00    -0.489 OA
BRANCH  24  26
ATOM     25  C   UNL     1       1.089   1.387  -0.304  0.00  0.00    +0.048 C 
ATOM     26  C   UNL     1       0.813  -0.117  -0.254  0.00  0.00    +0.226 C 
ENDBRANCH  24  26
ENDBRANCH   1  24
BRANCH   6  27
ATOM     27  O   UNL     1       1.069  -1.846  -4.049  0.00  0.00    -0.419 OA
BRANCH  27  28
ATOM     28  C   UNL     1       2.369  -1.625  -4.331  0.00  0.00    +0.345 C 
ATOM     29  O   UNL     1       3.233  -2.171  -3.675  0.00  0.00    -0.245 OA
BRANCH  28  30
ATOM     30  C   UNL     1       2.741  -0.722  -5.437  0.00  0.00    +0.060 A 
ATOM     31  C   UNL     1       1.748  -0.089  -6.190  0.00  0.00    +0.018 A 
ATOM     32  C   UNL     1       2.102   0.754  -7.221  0.00  0.00    +0.039 A 
ATOM     33  C   UNL     1       3.440   0.974  -7.513  0.00  0.00    +0.123 A 
ATOM     34  C   UNL     1       4.429   0.348  -6.769  0.00  0.00    +0.039 A 
ATOM     35  C   UNL     1       4.087  -0.492  -5.731  0.00  0.00    +0.018 A 
ATOM     36  F   UNL     1       3.781   1.801  -8.525  0.00  0.00    -0.205 F 
ENDBRANCH  28  30
ENDBRANCH  27  28
ENDBRANCH   6  27
TORSDOF 7
