REMARK  Name = ZINC16000507
REMARK  2 active torsions:
REMARK  status: ('A' for Active; 'I' for Inactive)
REMARK    1  A    between atoms: C_1  and  C_2
REMARK    2  A    between atoms: N_21  and  C_24
REMARK                            x       y       z     vdW  Elec       q    Type
REMARK                         _______ _______ _______ _____ _____    ______ ____
ROOT
ATOM      1  C   UNL     1       2.203   5.893   2.829  0.00  0.00    +0.044 C 
ATOM      2  C   UNL     1       0.898   5.193   2.546  0.00  0.00    -0.050 A 
ATOM      3  C   UNL     1      -0.299   5.862   2.719  0.00  0.00    +0.005 A 
ATOM      4  C   UNL     1      -1.497   5.227   2.462  0.00  0.00    +0.024 A 
ATOM      5  C   UNL     1      -1.508   3.904   2.025  0.00  0.00    +0.036 A 
ATOM      6  C   UNL     1      -0.297   3.241   1.853  0.00  0.00    -0.027 A 
ATOM      7  C   UNL     1       0.896   3.879   2.112  0.00  0.00    +0.008 A 
ATOM      8  C   UNL     1      -0.648   1.857   1.382  0.00  0.00    +0.053 C 
ATOM      9  C   UNL     1      -0.155   0.788   2.343  0.00  0.00    +0.089 C 
ATOM     10  C   UNL     1       0.287  -0.391   1.432  0.00  0.00    +0.074 C 
ATOM     11  C   UNL     1      -0.007   0.077  -0.005  0.00  0.00    -0.054 C 
ATOM     12  N   UNL     1      -0.046   1.569   0.069  0.00  0.00    +0.395 N 
ATOM     13  C   UNL     1       1.377   1.983   0.067  0.00  0.00    -0.076 C 
ATOM     14  C   UNL     1       2.083   1.005  -0.894  0.00  0.00    -0.020 C 
ATOM     15  C   UNL     1       1.185  -0.248  -0.923  0.00  0.00    -0.016 C 
ATOM     16  C   UNL     1       1.782  -0.469   1.640  0.00  0.00    +0.228 C 
ATOM     17  O   UNL     1       2.523  -1.267   1.106  0.00  0.00    -0.275 OA
ATOM     18  N   UNL     1       2.161   0.478   2.505  0.00  0.00    -0.210 N 
ATOM     19  C   UNL     1       1.164   1.244   2.963  0.00  0.00    +0.229 C 
ATOM     20  O   UNL     1       1.286   2.156   3.752  0.00  0.00    -0.275 OA
ATOM     21  C   UNL     1      -2.151   1.838   1.315  0.00  0.00    +0.212 C 
ATOM     22  O   UNL     1      -2.849   0.905   0.979  0.00  0.00    -0.277 OA
ATOM     23  N   UNL     1      -2.571   3.058   1.702  0.00  0.00    -0.286 N 
ATOM     24  H   UNL     1      -3.607   3.421   1.781  0.00  0.00    +0.155 HD
ATOM     25  H   UNL     1      -0.603   2.080  -0.731  0.00  0.00    -0.079 HD
ENDROOT
BRANCH  18  26
ATOM     26  C   UNL     1       3.495   0.655   2.900  0.00  0.00    +0.044 A 
ATOM     27  C   UNL     1       4.125  -0.309   3.674  0.00  0.00    +0.025 A 
ATOM     28  C   UNL     1       5.441  -0.135   4.057  0.00  0.00    +0.017 A 
ATOM     29  C   UNL     1       6.128   1.005   3.678  0.00  0.00    +0.018 A 
ATOM     30  C   UNL     1       5.500   1.971   2.911  0.00  0.00    +0.017 A 
ATOM     31  C   UNL     1       4.186   1.798   2.522  0.00  0.00    +0.025 A 
ATOM     32 BR   UNL     1       7.926   1.244   4.210  0.00  0.00    -0.050 Br
ENDBRANCH  18  26
TORSDOF 1
