REMARK  Name = ZINC22534392
REMARK  5 active torsions:
REMARK  status: ('A' for Active; 'I' for Inactive)
REMARK    1  A    between atoms: N_9  and  C_30
REMARK    2  A    between atoms: C_10  and  S_12
REMARK    3  A    between atoms: S_12  and  C_13
REMARK    4  A    between atoms: C_13  and  C_14
REMARK    5  A    between atoms: N_16  and  C_17
REMARK                            x       y       z     vdW  Elec       q    Type
REMARK                         _______ _______ _______ _____ _____    ______ ____
ROOT
ATOM      1  C   UNL     1      -3.801  -1.495   0.035  0.00  0.00    +0.173 C 
ENDROOT
BRANCH   1   2
ATOM      2  C   UNL     1      -5.219  -2.005   0.036  0.00  0.00    +0.227 C 
ATOM      3  O   UNL     1      -5.434  -3.199   0.022  0.00  0.00    -0.275 OA
ATOM      4  N   UNL     1      -6.248  -1.135   0.052  0.00  0.00    -0.285 N 
ATOM      5  H   UNL     1      -6.054  -0.056   0.141  0.00  0.00    +0.155 HD
BRANCH   4   6
ATOM      6  C   UNL     1      -7.564  -1.605  -0.045  0.00  0.00    +0.037 A 
ATOM      7  C   UNL     1      -8.519  -0.860  -0.724  0.00  0.00    +0.027 A 
ATOM      8  C   UNL     1      -9.818  -1.324  -0.825  0.00  0.00    +0.051 A 
ATOM      9  C   UNL     1     -10.171  -2.527  -0.239  0.00  0.00    +0.167 A 
ATOM     10  C   UNL     1      -9.215  -3.275   0.449  0.00  0.00    +0.169 A 
ATOM     11  C   UNL     1      -7.915  -2.813   0.543  0.00  0.00    +0.072 A 
ATOM     12  O   UNL     1      -9.818  -4.409   0.927  0.00  0.00    -0.447 OA
ATOM     13  C   UNL     1     -10.985  -4.553   0.104  0.00  0.00    +0.254 C 
ATOM     14  O   UNL     1     -11.365  -3.200  -0.185  0.00  0.00    -0.448 OA
ATOM     15  C   UNL     1     -12.100  -5.296   0.848  0.00  0.00    +0.093 C 
ATOM     16  C   UNL     1     -12.803  -6.121  -0.262  0.00  0.00    +0.008 C 
ATOM     17  C   UNL     1     -11.624  -6.556  -1.168  0.00  0.00    +0.008 C 
ATOM     18  C   UNL     1     -10.678  -5.334  -1.173  0.00  0.00    +0.093 C 
ENDBRANCH   4   6
ENDBRANCH   1   2
BRANCH   1  19
ATOM     19  S   UNL     1      -2.656  -2.897   0.011  0.00  0.00    -0.078 S 
BRANCH  19  29
ATOM     20  C   UNL     1       2.381   1.422   0.036  0.00  0.00    +0.001 A 
ATOM     21  C   UNL     1       1.161   2.087   0.051  0.00  0.00    +0.002 A 
ATOM     22  C   UNL     1      -0.017   1.394   0.050  0.00  0.00    +0.028 A 
ATOM     23  C   UNL     1       0.002  -0.004   0.033  0.00  0.00    +0.079 A 
ATOM     24  C   UNL     1       1.245  -0.676   0.018  0.00  0.00    +0.065 A 
ATOM     25  C   UNL     1       2.432   0.056   0.019  0.00  0.00    +0.015 A 
ATOM     26  C   UNL     1       1.239  -2.145  -0.000  0.00  0.00    +0.263 A 
ATOM     27  O   UNL     1       2.277  -2.781  -0.014  0.00  0.00    -0.267 OA
ATOM     28  N   UNL     1       0.036  -2.765  -0.001  0.00  0.00    -0.284 N 
ATOM     29  C   UNL     1      -1.118  -2.036   0.014  0.00  0.00    +0.173 A 
ATOM     30  N   UNL     1      -1.136  -0.726   0.030  0.00  0.00    -0.223 NA
BRANCH  28  31
ATOM     31  C   UNL     1      -0.028  -4.229  -0.019  0.00  0.00    +0.093 C 
ATOM     32  C   UNL     1       0.725  -4.805   1.198  0.00  0.00    +0.025 C 
ATOM     33  C   UNL     1       1.406  -6.085   0.650  0.00  0.00    +0.002 C 
ATOM     34  C   UNL     1       1.838  -5.660  -0.775  0.00  0.00    +0.002 C 
ATOM     35  C   UNL     1       0.679  -4.772  -1.273  0.00  0.00    +0.025 C 
ENDBRANCH  28  31
ENDBRANCH  19  29
ENDBRANCH   1  19
TORSDOF 5
