REMARK  Name = ZINC13151105
REMARK  13 active torsions:
REMARK  status: ('A' for Active; 'I' for Inactive)
REMARK    1  A    between atoms: C_1  and  C_2
REMARK    2  A    between atoms: C_5  and  N_8
REMARK    3  A    between atoms: N_8  and  C_9
REMARK    4  A    between atoms: C_9  and  C_11
REMARK    5  A    between atoms: C_9  and  C_18
REMARK    6  A    between atoms: C_14  and  O_17
REMARK    7  A    between atoms: N_20  and  C_21
REMARK    8  A    between atoms: C_21  and  C_22
REMARK    9  A    between atoms: C_22  and  O_23
REMARK   10  A    between atoms: O_23  and  C_24
REMARK   11  A    between atoms: C_25  and  C_27
REMARK   12  A    between atoms: C_27  and  C_28
REMARK   13  A    between atoms: C_28  and  C_29
REMARK                            x       y       z     vdW  Elec       q    Type
REMARK                         _______ _______ _______ _____ _____    ______ ____
ROOT
ATOM      1  N   UNL     1      -0.291  -4.182   0.005  0.00  0.00    -0.255 N 
ATOM      2  C   UNL     1      -0.322  -4.916  -1.125  0.00  0.00    +0.221 C 
ATOM      3  O   UNL     1      -0.085  -6.104  -1.083  0.00  0.00    -0.275 OA
ENDROOT
BRANCH   1   8
ATOM      4  C   UNL     1      -1.813   1.282  -0.121  0.00  0.00    +0.044 C 
ATOM      5  C   UNL     1      -1.409  -0.170  -0.087  0.00  0.00    -0.050 A 
ATOM      6  C   UNL     1      -0.235  -0.573  -0.697  0.00  0.00    +0.005 A 
ATOM      7  C   UNL     1       0.138  -1.902  -0.668  0.00  0.00    +0.024 A 
ATOM      8  C   UNL     1      -0.666  -2.834  -0.026  0.00  0.00    +0.037 A 
ATOM      9  C   UNL     1      -1.844  -2.426   0.586  0.00  0.00    +0.024 A 
ATOM     10  C   UNL     1      -2.210  -1.094   0.558  0.00  0.00    +0.005 A 
ENDBRANCH   1   8
BRANCH   1  11
ATOM     11  C   UNL     1       0.135  -4.795   1.265  0.00  0.00    +0.197 C 
BRANCH  11  12
ATOM     12  C   UNL     1      -0.044  -3.808   2.390  0.00  0.00    -0.018 A 
ATOM     13  C   UNL     1       0.592  -2.581   2.340  0.00  0.00    +0.009 A 
ATOM     14  C   UNL     1       0.429  -1.675   3.370  0.00  0.00    +0.046 A 
ATOM     15  C   UNL     1      -0.373  -1.997   4.455  0.00  0.00    +0.117 A 
ATOM     16  C   UNL     1      -1.010  -3.228   4.503  0.00  0.00    +0.046 A 
ATOM     17  C   UNL     1      -0.848  -4.129   3.468  0.00  0.00    +0.009 A 
BRANCH  15  18
ATOM     18  O   UNL     1      -0.534  -1.107   5.470  0.00  0.00    -0.507 OA
ATOM     19  H   UNL     1      -1.280  -0.504   5.349  0.00  0.00    +0.292 HD
ENDBRANCH  15  18
ENDBRANCH  11  12
BRANCH  11  20
ATOM     20  C   UNL     1       1.587  -5.187   1.167  0.00  0.00    +0.239 C 
ATOM     21  O   UNL     1       2.205  -4.975   0.145  0.00  0.00    -0.273 OA
ATOM     22  N   UNL     1       2.199  -5.773   2.215  0.00  0.00    -0.311 N 
ATOM     23  H   UNL     1       1.705  -5.943   3.033  0.00  0.00    +0.149 HD
BRANCH  22  24
ATOM     24  C   UNL     1       3.611  -6.154   2.120  0.00  0.00    +0.132 C 
BRANCH  24  25
ATOM     25  C   UNL     1       4.056  -6.794   3.436  0.00  0.00    +0.178 C 
BRANCH  25  26
ATOM     26  O   UNL     1       3.347  -8.019   3.634  0.00  0.00    -0.381 OA
ATOM     27  C   UNL     1       3.690  -8.701   4.842  0.00  0.00    +0.194 C 
ENDBRANCH  25  26
ENDBRANCH  24  25
ENDBRANCH  22  24
ENDBRANCH  11  20
ENDBRANCH   1  11
BRANCH   2  28
ATOM     28  C   UNL     1      -0.651  -4.260  -2.441  0.00  0.00    +0.105 C 
BRANCH  28  29
ATOM     29  C   UNL     1      -0.750  -5.327  -3.533  0.00  0.00    +0.105 C 
BRANCH  29  30
ATOM     30  C   UNL     1      -1.079  -4.671  -4.849  0.00  0.00    +0.219 C 
ATOM     31  O   UNL     1      -1.221  -3.467  -4.908  0.00  0.00    -0.275 OA
ATOM     32  N   UNL     1      -1.216  -5.420  -5.960  0.00  0.00    -0.265 N 
ATOM     33  C   UNL     1      -1.519  -4.815  -7.174  0.00  0.00    +0.164 A 
ATOM     34  N   UNL     1      -1.702  -3.537  -7.427  0.00  0.00    -0.233 NA
ATOM     35  C   UNL     1      -1.987  -3.117  -8.646  0.00  0.00    +0.120 A 
ATOM     36  C   UNL     1      -2.083  -4.059  -9.616  0.00  0.00    +0.068 A 
ATOM     37  S   UNL     1      -1.736  -5.538  -8.678  0.00  0.00    -0.061 S 
ATOM     38  H   UNL     1      -1.102  -6.383  -5.913  0.00  0.00    +0.157 HD
ENDBRANCH  29  30
ENDBRANCH  28  29
ENDBRANCH   2  28
TORSDOF 11
