REMARK  Name = ZINC37993657
REMARK  9 active torsions:
REMARK  status: ('A' for Active; 'I' for Inactive)
REMARK    1  A    between atoms: C_1  and  C_2
REMARK    2  A    between atoms: C_3  and  C_11
REMARK    3  A    between atoms: C_4  and  S_9
REMARK    4  A    between atoms: S_9  and  C_10
REMARK    5  A    between atoms: N_13  and  C_14
REMARK    6  A    between atoms: N_13  and  C_18
REMARK    7  A    between atoms: C_14  and  C_15
REMARK    8  A    between atoms: C_18  and  C_19
REMARK    9  A    between atoms: C_18  and  C_20
REMARK                            x       y       z     vdW  Elec       q    Type
REMARK                         _______ _______ _______ _____ _____    ______ ____
ROOT
ATOM      1  C   UNL     1      -0.013   1.086   0.008  0.00  0.00    +0.066 C 
ATOM      2  C   UNL     1      -0.742   1.585  -1.213  0.00  0.00    +0.058 A 
ATOM      3  C   UNL     1      -0.047   1.832  -2.402  0.00  0.00    +0.090 A 
ATOM      4  C   UNL     1      -0.780   2.299  -3.515  0.00  0.00    +0.116 A 
ATOM      5  N   UNL     1      -2.090   2.483  -3.388  0.00  0.00    -0.184 NA
ATOM      6  C   UNL     1      -2.700   2.235  -2.241  0.00  0.00    +0.369 A 
ATOM      7  O   UNL     1      -4.035   2.435  -2.153  0.00  0.00    -0.243 OA
ATOM      8  N   UNL     1      -2.046   1.790  -1.177  0.00  0.00    -0.196 NA
ENDROOT
BRANCH   3   9
ATOM      9  C   UNL     1       1.405   1.612  -2.489  0.00  0.00    +0.252 C 
ATOM     10  O   UNL     1       1.837   0.527  -2.831  0.00  0.00    -0.270 OA
ATOM     11  N   UNL     1       2.258   2.612  -2.192  0.00  0.00    -0.284 N 
BRANCH  11  12
ATOM     12  C   UNL     1       1.739   3.919  -1.780  0.00  0.00    +0.071 C 
ATOM     13  C   UNL     1       2.248   4.252  -0.377  0.00  0.00    +0.028 C 
ATOM     14  C   UNL     1       2.216   4.990  -2.763  0.00  0.00    +0.028 C 
ENDBRANCH  11  12
BRANCH  11  15
ATOM     15  C   UNL     1       3.704   2.393  -2.279  0.00  0.00    +0.233 C 
BRANCH  15  16
ATOM     16  C   UNL     1       4.181   2.738  -3.666  0.00  0.00    +0.373 C 
ATOM     17  O   UNL     1       3.387   3.130  -4.504  0.00  0.00    -0.245 OA
ATOM     18  O   UNL     1       5.361   2.624  -3.950  0.00  0.00    -0.245 OA
ENDBRANCH  15  16
ENDBRANCH  11  15
ENDBRANCH   3   9
BRANCH   4  19
ATOM     19  S   UNL     1       0.029   2.632  -5.045  0.00  0.00    -0.108 S 
ATOM     20  C   UNL     1      -1.308   3.194  -6.135  0.00  0.00    +0.091 C 
ENDBRANCH   4  19
TORSDOF 5
