REMARK  Name = ZINC24213260
REMARK  10 active torsions:
REMARK  status: ('A' for Active; 'I' for Inactive)
REMARK    1  A    between atoms: C_1  and  N_2
REMARK    2  A    between atoms: N_2  and  C_3
REMARK    3  A    between atoms: N_2  and  C_12
REMARK    4  A    between atoms: C_3  and  C_4
REMARK    5  A    between atoms: C_12  and  C_13
REMARK    6  A    between atoms: N_15  and  C_16
REMARK    7  A    between atoms: N_15  and  C_17
REMARK    8  A    between atoms: C_22  and  C_23
REMARK    9  A    between atoms: N_25  and  C_26
REMARK   10  A    between atoms: C_26  and  C_27
REMARK                            x       y       z     vdW  Elec       q    Type
REMARK                         _______ _______ _______ _____ _____    ______ ____
ROOT
ATOM      1  C   UNL     1      -1.781  -1.060  -1.155  0.00  0.00    +0.203 C 
ATOM      2  O   UNL     1      -1.271  -0.743  -2.208  0.00  0.00    -0.277 OA
ATOM      3  N   UNL     1      -1.192  -0.720   0.009  0.00  0.00    -0.275 N 
ATOM      4  C   UNL     1      -1.809  -1.104   1.282  0.00  0.00    +0.138 C 
ENDROOT
BRANCH   3   5
ATOM      5  C   UNL     1       0.002  -0.004   0.002  0.00  0.00    +0.048 A 
ATOM      6  C   UNL     1       1.218  -0.675  -0.013  0.00  0.00    +0.024 A 
ATOM      7  C   UNL     1       2.400   0.037  -0.021  0.00  0.00    +0.002 A 
ATOM      8  C   UNL     1       2.385   1.422  -0.013  0.00  0.00    +0.001 A 
ATOM      9  C   UNL     1       1.188   2.105   0.002  0.00  0.00    +0.015 A 
ATOM     10  C   UNL     1      -0.017   1.399   0.010  0.00  0.00    +0.058 A 
BRANCH  10  11
ATOM     11  C   UNL     1      -1.302   2.123   0.020  0.00  0.00    +0.246 C 
ATOM     12  O   UNL     1      -2.349   1.504   0.021  0.00  0.00    -0.270 OA
ATOM     13  N   UNL     1      -1.315   3.471   0.027  0.00  0.00    -0.304 N 
ATOM     14  H   UNL     1      -0.368   4.030   0.025  0.00  0.00    +0.149 HD
BRANCH  13  15
ATOM     15  C   UNL     1      -2.591   4.190   0.037  0.00  0.00    +0.179 C 
BRANCH  15  16
ATOM     16  C   UNL     1      -2.331   5.675   0.044  0.00  0.00    +0.122 A 
ATOM     17  C   UNL     1      -2.200   6.455  -1.044  0.00  0.00    +0.046 A 
ATOM     18  C   UNL     1      -1.967   7.770  -0.579  0.00  0.00    +0.041 A 
ATOM     19  C   UNL     1      -1.969   7.714   0.765  0.00  0.00    +0.195 A 
ATOM     20  O   UNL     1      -2.196   6.443   1.137  0.00  0.00    -0.466 OA
ENDBRANCH  15  16
ENDBRANCH  13  15
ENDBRANCH  10  11
ENDBRANCH   3   5
BRANCH   1  21
ATOM     21  C   UNL     1      -3.074  -1.835  -1.147  0.00  0.00    +0.019 C 
BRANCH  21  23
ATOM     22  C   UNL     1      -2.568  -2.971  -3.225  0.00  0.00    -0.095 C 
ATOM     23  N   UNL     1      -3.506  -2.080  -2.529  0.00  0.00    +0.386 N 
ATOM     24  H   UNL     1      -3.510  -1.115  -3.058  0.00  0.00    -0.081 HD
BRANCH  23  25
ATOM     25  C   UNL     1      -4.872  -2.620  -2.566  0.00  0.00    -0.041 C 
BRANCH  25  26
ATOM     26  C   UNL     1      -5.371  -2.627  -3.988  0.00  0.00    -0.044 A 
ATOM     27  C   UNL     1      -5.444  -3.817  -4.689  0.00  0.00    +0.003 A 
ATOM     28  C   UNL     1      -5.902  -3.824  -5.993  0.00  0.00    +0.002 A 
ATOM     29  C   UNL     1      -6.287  -2.643  -6.598  0.00  0.00    +0.021 A 
ATOM     30  C   UNL     1      -6.215  -1.452  -5.898  0.00  0.00    +0.059 A 
ATOM     31  C   UNL     1      -5.762  -1.445  -4.589  0.00  0.00    +0.061 A 
ATOM     32 CL   UNL     1      -5.679   0.048  -3.707  0.00  0.00    -0.082 Cl
ATOM     33 CL   UNL     1      -6.699   0.033  -6.657  0.00  0.00    -0.082 Cl
ENDBRANCH  25  26
ENDBRANCH  23  25
ENDBRANCH  21  23
ENDBRANCH   1  21
TORSDOF 8
