REMARK  Name = ZINC54669321
REMARK  1 active torsions:
REMARK  status: ('A' for Active; 'I' for Inactive)
REMARK    1  A    between atoms: C_10  and  C_12
REMARK                            x       y       z     vdW  Elec       q    Type
REMARK                         _______ _______ _______ _____ _____    ______ ____
ROOT
ATOM      1  C   UNL     1      -0.017   1.375   0.010  0.00  0.00    +0.000 A 
ATOM      2  C   UNL     1       1.174   2.078   0.002  0.00  0.00    +0.000 A 
ATOM      3  C   UNL     1       2.372   1.395  -0.010  0.00  0.00    +0.004 A 
ATOM      4  C   UNL     1       2.393   0.006  -0.017  0.00  0.00    -0.034 A 
ATOM      5  C   UNL     1       1.208  -0.694  -0.015  0.00  0.00    -0.044 A 
ATOM      6  C   UNL     1       0.002  -0.004   0.002  0.00  0.00    +0.004 A 
ATOM      7  C   UNL     1       1.155  -2.199  -0.038  0.00  0.00    +0.035 C 
ATOM      8  C   UNL     1       2.501  -2.790   0.375  0.00  0.00    +0.006 C 
ATOM      9  C   UNL     1       3.599  -2.130  -0.467  0.00  0.00    +0.016 C 
ATOM     10  C   UNL     1       3.737  -0.675  -0.023  0.00  0.00    +0.087 C 
ENDROOT
BRANCH  10  11
ATOM     11  C   UNL     1       4.657   0.049  -0.973  0.00  0.00    +0.139 A 
ATOM     12  N   UNL     1       4.299   0.647  -2.149  0.00  0.00    -0.319 N 
ATOM     13  C   UNL     1       5.451   1.169  -2.663  0.00  0.00    +0.200 A 
ATOM     14  N   UNL     1       6.414   0.881  -1.819  0.00  0.00    -0.122 NA
ATOM     15  N   UNL     1       5.939   0.225  -0.822  0.00  0.00    -0.133 NA
ATOM     16  S   UNL     1       5.614   2.061  -4.174  0.00  0.00    -0.009 SA
ATOM     17  H   UNL     1       3.411   0.691  -2.538  0.00  0.00    +0.169 HD
ENDBRANCH  10  11
TORSDOF 1
