REMARK  Name = ZINC41151991
REMARK  7 active torsions:
REMARK  status: ('A' for Active; 'I' for Inactive)
REMARK    1  A    between atoms: C_1  and  C_2
REMARK    2  A    between atoms: C_2  and  C_3
REMARK    3  A    between atoms: C_3  and  C_4
REMARK    4  A    between atoms: C_3  and  C_5
REMARK    5  A    between atoms: C_3  and  N_18
REMARK    6  A    between atoms: C_7  and  C_10
REMARK    7  A    between atoms: C_15  and  C_16
REMARK                            x       y       z     vdW  Elec       q    Type
REMARK                         _______ _______ _______ _____ _____    ______ ____
ROOT
ATOM      1  C   UNL     1      -0.015  -2.393  -1.188  0.00  0.00    +0.161 A 
ATOM      2  N   UNL     1       0.713  -3.014  -2.118  0.00  0.00    -0.193 NA
ATOM      3  C   UNL     1       0.819  -4.291  -1.828  0.00  0.00    +0.259 A 
ATOM      4  O   UNL     1       0.148  -4.514  -0.684  0.00  0.00    -0.333 OA
ATOM      5  N   UNL     1      -0.382  -3.259  -0.285  0.00  0.00    -0.062 NA
ENDROOT
BRANCH   3   6
ATOM      6  C   UNL     1       1.548  -5.304  -2.619  0.00  0.00    +0.042 A 
ATOM      7  C   UNL     1       1.389  -5.359  -4.005  0.00  0.00    +0.014 A 
ATOM      8  C   UNL     1       2.073  -6.306  -4.737  0.00  0.00    +0.016 A 
ATOM      9  C   UNL     1       2.915  -7.203  -4.101  0.00  0.00    +0.018 A 
ATOM     10  C   UNL     1       3.076  -7.154  -2.727  0.00  0.00    +0.019 A 
ATOM     11  C   UNL     1       2.403  -6.207  -1.984  0.00  0.00    -0.037 A 
ATOM     12  C   UNL     1       2.586  -6.150  -0.489  0.00  0.00    +0.044 C 
ATOM     13 BR   UNL     1       3.847  -8.500  -5.113  0.00  0.00    -0.050 Br
ENDBRANCH   3   6
BRANCH   1  14
ATOM     14  C   UNL     1      -0.354  -0.925  -1.179  0.00  0.00    -0.009 C 
ATOM     15  C   UNL     1      -1.250  -0.601  -2.376  0.00  0.00    -0.003 C 
BRANCH  14  16
ATOM     16  N   UNL     1       0.882  -0.136  -1.265  0.00  0.00    +0.386 N 
ATOM     17  H   UNL     1       1.473  -0.350  -0.475  0.00  0.00    -0.089 HD
ATOM     18  H   UNL     1       1.367  -0.364  -2.119  0.00  0.00    -0.089 HD
ATOM     19  H   UNL     1       0.655   0.847  -1.259  0.00  0.00    -0.089 HD
ENDBRANCH  14  16
BRANCH  14  21
ATOM     20  C   UNL     1      -1.435   0.912   0.126  0.00  0.00    +0.003 C 
ATOM     21  C   UNL     1      -1.091  -0.579   0.117  0.00  0.00    -0.009 C 
ENDBRANCH  14  21
ENDBRANCH   1  14
TORSDOF 4
