REMARK  Name = ZINC20611174
REMARK  8 active torsions:
REMARK  status: ('A' for Active; 'I' for Inactive)
REMARK    1  A    between atoms: C_1  and  C_2
REMARK    2  A    between atoms: C_4  and  C_31
REMARK    3  A    between atoms: C_5  and  O_9
REMARK    4  A    between atoms: O_9  and  C_10
REMARK    5  A    between atoms: C_10  and  C_11
REMARK    6  A    between atoms: N_13  and  C_14
REMARK    7  A    between atoms: C_19  and  C_20
REMARK    8  A    between atoms: N_22  and  C_24
REMARK                            x       y       z     vdW  Elec       q    Type
REMARK                         _______ _______ _______ _____ _____    ______ ____
ROOT
ATOM      1  C   UNL     1      -0.540  -2.331   0.006  0.00  0.00    +0.039 A 
ATOM      2  C   UNL     1      -0.961  -1.033   0.029  0.00  0.00    +0.055 A 
ATOM      3  C   UNL     1      -0.009   0.001   0.036  0.00  0.00    +0.115 A 
ATOM      4  C   UNL     1       1.419  -0.349   0.018  0.00  0.00    +0.114 A 
ATOM      5  C   UNL     1       1.786  -1.706  -0.006  0.00  0.00    +0.037 A 
ATOM      6  C   UNL     1       0.821  -2.661  -0.012  0.00  0.00    -0.027 A 
ATOM      7  C   UNL     1       1.225  -4.113  -0.037  0.00  0.00    +0.046 C 
ATOM      8  N   UNL     1       2.051   0.815   0.030  0.00  0.00    -0.147 NA
ATOM      9  N   UNL     1       1.179   1.762   0.052  0.00  0.00    -0.149 N 
ATOM     10  N   UNL     1      -0.032   1.325   0.056  0.00  0.00    -0.147 NA
ENDROOT
BRANCH   9  11
ATOM     11  C   UNL     1       1.512   3.122   0.068  0.00  0.00    +0.086 A 
ATOM     12  C   UNL     1       2.846   3.511   0.068  0.00  0.00    +0.032 A 
ATOM     13  C   UNL     1       3.172   4.853   0.078  0.00  0.00    +0.040 A 
ATOM     14  C   UNL     1       2.171   5.810   0.101  0.00  0.00    +0.124 A 
ATOM     15  C   UNL     1       0.841   5.424   0.107  0.00  0.00    +0.040 A 
ATOM     16  C   UNL     1       0.510   4.083   0.091  0.00  0.00    +0.032 A 
ATOM     17  F   UNL     1       2.493   7.122   0.117  0.00  0.00    -0.205 F 
ENDBRANCH   9  11
BRANCH   1  20
ATOM     18  C   UNL     1      -2.730  -3.125  -0.482  0.00  0.00    +0.255 C 
ATOM     19  O   UNL     1      -2.989  -2.060  -1.000  0.00  0.00    -0.272 OA
ATOM     20  N   UNL     1      -1.492  -3.357  -0.001  0.00  0.00    -0.282 N 
ATOM     21  H   UNL     1      -1.230  -4.353   0.386  0.00  0.00    +0.155 HD
BRANCH  18  22
ATOM     22  C   UNL     1      -3.791  -4.189  -0.376  0.00  0.00    +0.325 C 
BRANCH  22  23
ATOM     23  O   UNL     1      -5.007  -3.708  -0.952  0.00  0.00    -0.481 OA
BRANCH  23  28
ATOM     24  C   UNL     1      -9.425  -7.203  -0.892  0.00  0.00    +0.044 C 
ATOM     25  C   UNL     1      -8.243  -6.269  -0.908  0.00  0.00    -0.049 A 
ATOM     26  C   UNL     1      -8.033  -5.403   0.150  0.00  0.00    +0.010 A 
ATOM     27  C   UNL     1      -6.950  -4.545   0.138  0.00  0.00    -0.007 A 
ATOM     28  C   UNL     1      -6.073  -4.552  -0.937  0.00  0.00    +0.138 A 
ATOM     29  C   UNL     1      -6.289  -5.418  -2.000  0.00  0.00    +0.060 A 
ATOM     30  C   UNL     1      -7.371  -6.278  -1.980  0.00  0.00    +0.022 A 
ATOM     31 BR   UNL     1      -5.100  -5.426  -3.471  0.00  0.00    -0.047 Br
ATOM     32  C   UNL     1      -6.722  -3.603   1.291  0.00  0.00    +0.047 C 
ENDBRANCH  23  28
ENDBRANCH  22  23
ENDBRANCH  18  22
ENDBRANCH   1  20
TORSDOF 5
