REMARK  Name = ZINC21235611
REMARK  11 active torsions:
REMARK  status: ('A' for Active; 'I' for Inactive)
REMARK    1  A    between atoms: C_1  and  N_2
REMARK    2  A    between atoms: N_2  and  C_3
REMARK    3  A    between atoms: N_2  and  C_4
REMARK    4  A    between atoms: C_7  and  C_10
REMARK    5  A    between atoms: C_15  and  C_25
REMARK    6  A    between atoms: C_27  and  O_35
REMARK    7  A    between atoms: C_28  and  O_33
REMARK    8  A    between atoms: C_30  and  O_31
REMARK    9  A    between atoms: O_31  and  C_32
REMARK   10  A    between atoms: O_33  and  C_34
REMARK   11  A    between atoms: O_35  and  C_36
REMARK                            x       y       z     vdW  Elec       q    Type
REMARK                         _______ _______ _______ _____ _____    ______ ____
ROOT
ATOM      1  C   UNL     1       5.136   1.468   7.123  0.00  0.00    +0.032 C 
ATOM      2  C   UNL     1       3.934   2.343   7.475  0.00  0.00    +0.059 C 
ATOM      3  C   UNL     1       2.646   1.564   7.262  0.00  0.00    +0.017 C 
ATOM      4  C   UNL     1       2.562   0.643   6.289  0.00  0.00    +0.037 C 
ATOM      5  C   UNL     1       1.341  -0.181   5.951  0.00  0.00    +0.140 C 
ATOM      6  N   UNL     1       0.283  -0.109   6.936  0.00  0.00    -0.331 N 
ATOM      7  C   UNL     1      -0.389   1.083   7.190  0.00  0.00    +0.049 A 
ATOM      8  C   UNL     1      -1.722   1.250   6.851  0.00  0.00    +0.025 A 
ATOM      9  C   UNL     1      -2.317   2.488   7.023  0.00  0.00    +0.002 A 
ATOM     10  C   UNL     1      -1.590   3.550   7.530  0.00  0.00    +0.002 A 
ATOM     11  C   UNL     1      -0.264   3.380   7.889  0.00  0.00    +0.025 A 
ATOM     12  C   UNL     1       0.328   2.139   7.734  0.00  0.00    +0.052 A 
ATOM     13  N   UNL     1       1.641   1.888   8.115  0.00  0.00    -0.316 N 
ATOM     14  C   UNL     1       3.682   0.366   5.470  0.00  0.00    +0.163 C 
ATOM     15  O   UNL     1       3.572  -0.462   4.587  0.00  0.00    -0.292 OA
ATOM     16  C   UNL     1       4.999   1.058   5.652  0.00  0.00    +0.088 C 
ATOM     17  H   UNL     1      -0.005  -1.008   7.501  0.00  0.00    +0.147 HD
ATOM     18  H   UNL     1       1.840   1.968   9.194  0.00  0.00    +0.152 HD
ENDROOT
BRANCH   1  22
ATOM     19  C   UNL     1       8.750   3.680   7.681  0.00  0.00    +0.029 A 
ATOM     20  C   UNL     1       8.546   2.494   8.374  0.00  0.00    +0.023 A 
ATOM     21  C   UNL     1       7.377   1.782   8.191  0.00  0.00    +0.006 A 
ATOM     22  C   UNL     1       6.410   2.248   7.320  0.00  0.00    -0.043 A 
ATOM     23  C   UNL     1       6.612   3.426   6.624  0.00  0.00    +0.006 A 
ATOM     24  C   UNL     1       7.777   4.146   6.806  0.00  0.00    +0.023 A 
BRANCH  19  26
ATOM     25  C   UNL     1      11.008   3.851   8.688  0.00  0.00    +0.129 C 
ATOM     26  N   UNL     1       9.931   4.404   7.863  0.00  0.00    -0.336 N 
ATOM     27  C   UNL     1      10.092   5.715   7.230  0.00  0.00    +0.129 C 
ENDBRANCH  19  26
ENDBRANCH   1  22
BRANCH   5  28
ATOM     28  C   UNL     1       0.796   0.291   4.628  0.00  0.00    +0.023 A 
ATOM     29  C   UNL     1       1.177   1.522   4.125  0.00  0.00    +0.058 A 
ATOM     30  C   UNL     1       0.682   1.956   2.906  0.00  0.00    +0.162 A 
ATOM     31  C   UNL     1      -0.208   1.157   2.193  0.00  0.00    +0.165 A 
ATOM     32  C   UNL     1      -0.588  -0.075   2.699  0.00  0.00    +0.095 A 
ATOM     33  C   UNL     1      -0.086  -0.508   3.917  0.00  0.00    +0.129 A 
BRANCH  33  34
ATOM     34  O   UNL     1      -0.458  -1.718   4.415  0.00  0.00    -0.495 OA
ATOM     35  C   UNL     1      -1.370  -2.489   3.630  0.00  0.00    +0.277 C 
ENDBRANCH  33  34
BRANCH  31  36
ATOM     36  O   UNL     1      -0.699   1.584   0.999  0.00  0.00    -0.491 OA
ATOM     37  C   UNL     1      -1.603   0.710   0.320  0.00  0.00    +0.277 C 
ENDBRANCH  31  36
BRANCH  30  38
ATOM     38  O   UNL     1       1.061   3.164   2.408  0.00  0.00    -0.491 OA
ATOM     39  C   UNL     1       1.884   3.980   3.244  0.00  0.00    +0.277 C 
ENDBRANCH  30  38
ENDBRANCH   5  28
TORSDOF 6
