REMARK  Name = ZINC05376701
REMARK  8 active torsions:
REMARK  status: ('A' for Active; 'I' for Inactive)
REMARK    1  A    between atoms: C_1  and  C_2
REMARK    2  A    between atoms: C_2  and  N_3
REMARK    3  A    between atoms: N_3  and  C_4
REMARK    4  A    between atoms: N_3  and  C_6
REMARK    5  A    between atoms: C_4  and  C_5
REMARK    6  A    between atoms: C_9  and  N_12
REMARK    7  A    between atoms: C_18  and  C_19
REMARK    8  A    between atoms: C_22  and  C_24
REMARK                            x       y       z     vdW  Elec       q    Type
REMARK                         _______ _______ _______ _____ _____    ______ ____
ROOT
ATOM      1  N   UNL     1      -8.242   3.011   0.514  0.00  0.00    -0.226 NA
ATOM      2  C   UNL     1      -7.013   2.826   0.942  0.00  0.00    +0.166 C 
ATOM      3  N   UNL     1      -5.925   2.348   0.244  0.00  0.00    -0.260 N 
ATOM      4  C   UNL     1      -4.749   2.222   0.835  0.00  0.00    +0.257 C 
ATOM      5  O   UNL     1      -3.777   1.801   0.233  0.00  0.00    -0.269 OA
ATOM      6  C   UNL     1      -4.665   2.613   2.251  0.00  0.00    +0.081 C 
ATOM      7  C   UNL     1      -3.594   2.587   3.094  0.00  0.00    +0.066 C 
ATOM      8  S   UNL     1      -6.348   3.123   2.572  0.00  0.00    -0.049 S 
ATOM      9  H   UNL     1      -6.023   2.101  -0.689  0.00  0.00    +0.157 HD
ENDROOT
BRANCH   1  13
ATOM     10  C   UNL     1     -11.130   4.490   3.089  0.00  0.00    +0.030 A 
ATOM     11  C   UNL     1     -11.022   5.001   1.801  0.00  0.00    +0.025 A 
ATOM     12  C   UNL     1     -10.062   4.511   0.941  0.00  0.00    +0.029 A 
ATOM     13  C   UNL     1      -9.197   3.501   1.366  0.00  0.00    +0.067 A 
ATOM     14  C   UNL     1      -9.312   2.986   2.659  0.00  0.00    +0.029 A 
ATOM     15  C   UNL     1     -10.271   3.485   3.515  0.00  0.00    +0.025 A 
BRANCH  10  16
ATOM     16  N   UNL     1     -12.105   4.990   3.958  0.00  0.00    -0.330 N 
BRANCH  16  18
ATOM     17  C   UNL     1     -11.329   5.261   6.262  0.00  0.00    +0.024 C 
ATOM     18  C   UNL     1     -12.220   4.452   5.316  0.00  0.00    +0.102 C 
ENDBRANCH  16  18
BRANCH  16  19
ATOM     19  C   UNL     1     -13.012   6.050   3.511  0.00  0.00    +0.102 C 
ATOM     20  C   UNL     1     -14.258   5.424   2.882  0.00  0.00    +0.024 C 
ENDBRANCH  16  19
ENDBRANCH  10  16
ENDBRANCH   1  13
BRANCH   7  21
ATOM     21  C   UNL     1      -2.377   2.004   2.672  0.00  0.00    +0.129 A 
ATOM     22  C   UNL     1      -1.194   1.984   3.384  0.00  0.00    +0.049 A 
ATOM     23  C   UNL     1      -0.259   1.306   2.586  0.00  0.00    +0.045 A 
ATOM     24  C   UNL     1      -0.890   0.948   1.447  0.00  0.00    +0.103 A 
ATOM     25  O   UNL     1      -2.161   1.373   1.498  0.00  0.00    -0.461 OA
ATOM     26  C   UNL     1      -0.265   0.196   0.300  0.00  0.00    +0.086 C 
ENDBRANCH   7  21
TORSDOF 5
