REMARK  Name = ZINC02758301
REMARK  11 active torsions:
REMARK  status: ('A' for Active; 'I' for Inactive)
REMARK    1  A    between atoms: C_1  and  C_2
REMARK    2  A    between atoms: C_2  and  O_3
REMARK    3  A    between atoms: O_3  and  C_4
REMARK    4  A    between atoms: C_4  and  C_5
REMARK    5  A    between atoms: C_5  and  O_6
REMARK    6  A    between atoms: O_6  and  C_7
REMARK    7  A    between atoms: C_7  and  C_9
REMARK    8  A    between atoms: C_10  and  C_37
REMARK    9  A    between atoms: C_14  and  C_16
REMARK   10  A    between atoms: C_21  and  N_22
REMARK   11  A    between atoms: C_28  and  C_31
REMARK                            x       y       z     vdW  Elec       q    Type
REMARK                         _______ _______ _______ _____ _____    ______ ____
ROOT
ATOM      1  C   UNL     1      -0.660   1.968  -0.497  0.00  0.00    +0.065 C 
ATOM      2  C   UNL     1      -1.100   0.717  -0.720  0.00  0.00    +0.016 C 
ATOM      3  N   UNL     1      -0.259  -0.350  -0.569  0.00  0.00    -0.321 N 
ATOM      4  C   UNL     1       0.887  -0.236   0.171  0.00  0.00    +0.016 C 
ATOM      5  C   UNL     1       1.413   0.978   0.437  0.00  0.00    +0.024 C 
ATOM      6  C   UNL     1       0.758   2.232  -0.085  0.00  0.00    +0.094 C 
ATOM      7  C   UNL     1       2.581   1.109   1.209  0.00  0.00    +0.162 C 
ATOM      8  O   UNL     1       3.032   2.217   1.424  0.00  0.00    -0.292 OA
ATOM      9  C   UNL     1       3.282  -0.096   1.773  0.00  0.00    +0.088 C 
ATOM     10  C   UNL     1       2.255  -1.210   2.000  0.00  0.00    +0.032 C 
ATOM     11  C   UNL     1       1.547  -1.496   0.674  0.00  0.00    +0.059 C 
ATOM     12  C   UNL     1      -2.529   0.491  -1.140  0.00  0.00    +0.061 C 
ATOM     13  H   UNL     1      -0.501  -1.312  -1.044  0.00  0.00    +0.152 HD
ENDROOT
BRANCH   6  14
ATOM     14  C   UNL     1       1.534   2.736  -1.275  0.00  0.00    -0.005 A 
ATOM     15  C   UNL     1       1.730   1.915  -2.370  0.00  0.00    +0.007 A 
ATOM     16  C   UNL     1       2.437   2.379  -3.463  0.00  0.00    +0.000 A 
ATOM     17  C   UNL     1       2.956   3.661  -3.458  0.00  0.00    +0.002 A 
ATOM     18  C   UNL     1       2.764   4.480  -2.361  0.00  0.00    +0.033 A 
ATOM     19  C   UNL     1       2.053   4.017  -1.270  0.00  0.00    +0.130 A 
BRANCH  19  20
ATOM     20  N   UNL     1       1.847   4.894  -0.095  0.00  0.00    +0.057 N 
ATOM     21  O   UNL     1       1.626   6.082  -0.253  0.00  0.00    -0.126 OA
ATOM     22  O   UNL     1       1.899   4.428   1.029  0.00  0.00    -0.126 OA
ENDBRANCH  19  20
ENDBRANCH   6  14
BRANCH  10  23
ATOM     23  C   UNL     1       2.956  -2.455   2.478  0.00  0.00    -0.044 A 
ATOM     24  C   UNL     1       3.919  -3.054   1.687  0.00  0.00    +0.004 A 
ATOM     25  C   UNL     1       4.565  -4.194   2.128  0.00  0.00    +0.000 A 
ATOM     26  C   UNL     1       4.242  -4.740   3.356  0.00  0.00    +0.000 A 
ATOM     27  C   UNL     1       3.277  -4.144   4.145  0.00  0.00    +0.000 A 
ATOM     28  C   UNL     1       2.634  -3.002   3.706  0.00  0.00    +0.004 A 
ENDBRANCH  10  23
BRANCH   1  29
ATOM     29  C   UNL     1      -1.550   3.055  -0.659  0.00  0.00    +0.338 C 
ATOM     30  O   UNL     1      -2.728   2.849  -0.880  0.00  0.00    -0.245 OA
BRANCH  29  31
ATOM     31  O   UNL     1      -1.091   4.321  -0.567  0.00  0.00    -0.459 OA
BRANCH  31  32
ATOM     32  C   UNL     1      -2.045   5.371  -0.742  0.00  0.00    +0.260 C 
BRANCH  32  33
ATOM     33  C   UNL     1      -1.345   6.724  -0.605  0.00  0.00    +0.201 C 
BRANCH  33  34
ATOM     34  O   UNL     1      -0.407   6.886  -1.671  0.00  0.00    -0.377 OA
BRANCH  34  36
ATOM     35  C   UNL     1       1.276   8.187  -2.817  0.00  0.00    +0.034 C 
ATOM     36  C   UNL     1       0.305   8.124  -1.636  0.00  0.00    +0.156 C 
ENDBRANCH  34  36
ENDBRANCH  33  34
ENDBRANCH  32  33
ENDBRANCH  31  32
ENDBRANCH  29  31
ENDBRANCH   1  29
TORSDOF 9
