REMARK  Name = ZINC04409142
REMARK  7 active torsions:
REMARK  status: ('A' for Active; 'I' for Inactive)
REMARK    1  A    between atoms: C_3  and  N_27
REMARK    2  A    between atoms: C_4  and  S_24
REMARK    3  A    between atoms: C_6  and  N_7
REMARK    4  A    between atoms: N_8  and  C_9
REMARK    5  A    between atoms: C_12  and  O_23
REMARK    6  A    between atoms: C_16  and  S_20
REMARK    7  A    between atoms: C_18  and  O_19
REMARK                            x       y       z     vdW  Elec       q    Type
REMARK                         _______ _______ _______ _____ _____    ______ ____
ROOT
ATOM      1  C   UNL     1       4.699   1.220  -0.038  0.00  0.00    +0.094 A 
ATOM      2  C   UNL     1       4.774  -0.110  -0.445  0.00  0.00    +0.034 A 
ATOM      3  C   UNL     1       5.999  -0.743  -0.563  0.00  0.00    +0.048 A 
ATOM      4  C   UNL     1       7.181  -0.093  -0.273  0.00  0.00    +0.128 A 
ATOM      5  C   UNL     1       7.171   1.251   0.149  0.00  0.00    +0.067 A 
ATOM      6  C   UNL     1       5.938   1.933   0.276  0.00  0.00    +0.018 A 
ATOM      7  C   UNL     1       5.923   3.268   0.694  0.00  0.00    +0.040 A 
ATOM      8  C   UNL     1       7.096   3.905   0.979  0.00  0.00    +0.124 A 
ATOM      9  C   UNL     1       8.315   3.246   0.859  0.00  0.00    +0.075 A 
ATOM     10  C   UNL     1       8.368   1.932   0.449  0.00  0.00    +0.130 A 
ENDROOT
BRANCH   8  11
ATOM     11  S   UNL     1       7.065   5.586   1.505  0.00  0.00    +0.140 S 
ATOM     12  O   UNL     1       5.778   5.814   2.063  0.00  0.00    -0.140 OA
ATOM     13  O   UNL     1       8.263   5.804   2.238  0.00  0.00    -0.140 OA
ATOM     14  O   UNL     1       7.156   6.450   0.255  0.00  0.00    -0.043 OA
ENDBRANCH   8  11
BRANCH   1  16
ATOM     15  N   UNL     1       2.411   1.203  -0.207  0.00  0.00    -0.149 NA
ATOM     16  N   UNL     1       3.497   1.843   0.072  0.00  0.00    -0.149 NA
BRANCH  15  22
ATOM     17  C   UNL     1       1.136   3.162   0.319  0.00  0.00    +0.032 A 
ATOM     18  C   UNL     1      -0.088   3.787   0.428  0.00  0.00    +0.037 A 
ATOM     19  C   UNL     1      -1.250   3.098   0.128  0.00  0.00    +0.154 A 
ATOM     20  C   UNL     1      -1.193   1.780  -0.289  0.00  0.00    +0.152 A 
ATOM     21  C   UNL     1       0.024   1.140  -0.398  0.00  0.00    +0.061 A 
ATOM     22  C   UNL     1       1.202   1.829  -0.097  0.00  0.00    +0.088 A 
BRANCH  20  23
ATOM     23  S   UNL     1      -2.678   0.915  -0.676  0.00  0.00    +0.142 S 
ATOM     24  O   UNL     1      -3.187   0.412   0.551  0.00  0.00    -0.140 OA
ATOM     25  O   UNL     1      -3.436   1.769  -1.523  0.00  0.00    -0.140 OA
ATOM     26  O   UNL     1      -2.290  -0.295  -1.514  0.00  0.00    -0.043 OA
ENDBRANCH  20  23
BRANCH  19  27
ATOM     27  N   UNL     1      -2.560   3.777   0.247  0.00  0.00    +0.058 N 
ATOM     28  O   UNL     1      -2.674   4.944  -0.080  0.00  0.00    -0.126 OA
ATOM     29  O   UNL     1      -3.525   3.167   0.673  0.00  0.00    -0.126 OA
ENDBRANCH  19  27
ENDBRANCH  15  22
ENDBRANCH   1  16
BRANCH  10  30
ATOM     30  O   UNL     1       9.563   1.298   0.335  0.00  0.00    -0.506 OA
ATOM     31  H   UNL     1       9.970   1.379  -0.539  0.00  0.00    +0.292 HD
ENDBRANCH  10  30
BRANCH   4  32
ATOM     32  O   UNL     1       8.360  -0.751  -0.397  0.00  0.00    -0.506 OA
ATOM     33  H   UNL     1       8.642  -1.207   0.408  0.00  0.00    +0.292 HD
ENDBRANCH   4  32
TORSDOF 7
