REMARK  Name = ZINC01201760
REMARK  8 active torsions:
REMARK  status: ('A' for Active; 'I' for Inactive)
REMARK    1  A    between atoms: C_1  and  C_2
REMARK    2  A    between atoms: C_3  and  C_29
REMARK    3  A    between atoms: C_4  and  C_23
REMARK    4  A    between atoms: C_10  and  C_15
REMARK    5  A    between atoms: C_18  and  O_21
REMARK    6  A    between atoms: O_21  and  C_22
REMARK    7  A    between atoms: C_29  and  O_31
REMARK    8  A    between atoms: O_31  and  C_32
REMARK                            x       y       z     vdW  Elec       q    Type
REMARK                         _______ _______ _______ _____ _____    ______ ____
ROOT
ATOM      1  C   UNL     1      -0.188  -3.079  -3.611  0.00  0.00    +0.061 C 
ATOM      2  C   UNL     1       0.645  -2.000  -2.970  0.00  0.00    +0.016 C 
ATOM      3  C   UNL     1       1.651  -1.435  -3.659  0.00  0.00    +0.065 C 
ATOM      4  C   UNL     1       2.507  -0.362  -3.051  0.00  0.00    +0.092 C 
ATOM      5  C   UNL     1       1.836   0.245  -1.845  0.00  0.00    +0.024 C 
ATOM      6  C   UNL     1       0.821  -0.394  -1.225  0.00  0.00    +0.016 C 
ATOM      7  N   UNL     1       0.373  -1.601  -1.691  0.00  0.00    -0.321 N 
ATOM      8  C   UNL     1       0.154   0.202  -0.010  0.00  0.00    +0.059 C 
ATOM      9  C   UNL     1       0.199   1.729  -0.097  0.00  0.00    +0.032 C 
ATOM     10  C   UNL     1       1.663   2.167  -0.200  0.00  0.00    +0.088 C 
ATOM     11  C   UNL     1       2.294   1.493  -1.387  0.00  0.00    +0.162 C 
ATOM     12  O   UNL     1       3.216   2.037  -1.962  0.00  0.00    -0.292 OA
ATOM     13  H   UNL     1      -0.212  -2.252  -1.025  0.00  0.00    +0.152 HD
ENDROOT
BRANCH   9  14
ATOM     14  C   UNL     1      -0.422   2.324   1.140  0.00  0.00    -0.043 A 
ATOM     15  C   UNL     1       0.110   2.042   2.385  0.00  0.00    +0.007 A 
ATOM     16  C   UNL     1      -0.454   2.591   3.520  0.00  0.00    +0.046 A 
ATOM     17  C   UNL     1      -1.563   3.417   3.412  0.00  0.00    +0.120 A 
ATOM     18  C   UNL     1      -2.099   3.695   2.162  0.00  0.00    +0.046 A 
ATOM     19  C   UNL     1      -1.527   3.148   1.030  0.00  0.00    +0.007 A 
BRANCH  17  20
ATOM     20  O   UNL     1      -2.123   3.954   4.527  0.00  0.00    -0.495 OA
ATOM     21  C   UNL     1      -1.519   3.624   5.779  0.00  0.00    +0.277 C 
ENDBRANCH  17  20
ENDBRANCH   9  14
BRANCH   4  22
ATOM     22  C   UNL     1       3.827  -0.958  -2.636  0.00  0.00    -0.035 A 
ATOM     23  C   UNL     1       3.864  -1.958  -1.682  0.00  0.00    +0.004 A 
ATOM     24  C   UNL     1       5.075  -2.508  -1.304  0.00  0.00    +0.000 A 
ATOM     25  C   UNL     1       6.249  -2.051  -1.873  0.00  0.00    +0.000 A 
ATOM     26  C   UNL     1       6.212  -1.047  -2.822  0.00  0.00    +0.000 A 
ATOM     27  C   UNL     1       5.001  -0.501  -3.204  0.00  0.00    +0.004 A 
ENDBRANCH   4  22
BRANCH   3  28
ATOM     28  C   UNL     1       1.909  -1.860  -4.984  0.00  0.00    +0.338 C 
ATOM     29  O   UNL     1       1.294  -2.800  -5.452  0.00  0.00    -0.245 OA
BRANCH  28  30
ATOM     30  O   UNL     1       2.836  -1.222  -5.729  0.00  0.00    -0.458 OA
BRANCH  30  31
ATOM     31  C   UNL     1       3.044  -1.705  -7.058  0.00  0.00    +0.177 C 
ATOM     32  C   UNL     1       4.175  -2.754  -7.068  0.00  0.00    +0.044 C 
ATOM     33  C   UNL     1       4.927  -2.488  -8.396  0.00  0.00    +0.004 C 
ATOM     34  C   UNL     1       4.897  -0.943  -8.503  0.00  0.00    +0.004 C 
ATOM     35  C   UNL     1       3.503  -0.554  -7.970  0.00  0.00    +0.044 C 
ENDBRANCH  30  31
ENDBRANCH  28  30
ENDBRANCH   3  28
TORSDOF 6
