REMARK  Name = ZINC04067195
REMARK  10 active torsions:
REMARK  status: ('A' for Active; 'I' for Inactive)
REMARK    1  A    between atoms: C_1  and  C_2
REMARK    2  A    between atoms: C_2  and  C_3
REMARK    3  A    between atoms: C_3  and  O_4
REMARK    4  A    between atoms: O_4  and  C_5
REMARK    5  A    between atoms: C_10  and  C_11
REMARK    6  A    between atoms: C_16  and  C_28
REMARK    7  A    between atoms: C_21  and  C_27
REMARK    8  A    between atoms: C_22  and  C_23
REMARK    9  A    between atoms: C_23  and  O_25
REMARK   10  A    between atoms: O_25  and  C_26
REMARK                            x       y       z     vdW  Elec       q    Type
REMARK                         _______ _______ _______ _____ _____    ______ ____
ROOT
ATOM      1  C   UNL     1       0.811  -4.764   1.237  0.00  0.00    +0.096 C 
ATOM      2  C   UNL     1      -0.303  -5.590   1.850  0.00  0.00    +0.028 C 
ATOM      3  C   UNL     1      -1.324  -4.986   2.483  0.00  0.00    +0.162 C 
ATOM      4  C   UNL     1      -2.442  -5.782   3.102  0.00  0.00    +0.088 C 
ATOM      5  C   UNL     1      -2.627  -7.085   2.318  0.00  0.00    +0.032 C 
ATOM      6  C   UNL     1      -1.304  -7.856   2.319  0.00  0.00    +0.064 C 
ATOM      7  C   UNL     1      -0.222  -6.987   1.725  0.00  0.00    +0.050 C 
ATOM      8  N   UNL     1       0.784  -7.550   1.097  0.00  0.00    -0.256 NA
ATOM      9  C   UNL     1       1.797  -6.909   0.532  0.00  0.00    +0.049 C 
ATOM     10  C   UNL     1       1.908  -5.554   0.545  0.00  0.00    +0.069 C 
ATOM     11  C   UNL     1       2.872  -7.715  -0.150  0.00  0.00    +0.066 C 
ATOM     12  O   UNL     1      -1.345  -3.641   2.567  0.00  0.00    -0.292 OA
ENDROOT
BRANCH   5  13
ATOM     13  C   UNL     1      -3.700  -7.918   2.971  0.00  0.00    -0.040 A 
ATOM     14  C   UNL     1      -3.551  -8.330   4.282  0.00  0.00    +0.008 A 
ATOM     15  C   UNL     1      -4.533  -9.094   4.886  0.00  0.00    +0.050 A 
ATOM     16  C   UNL     1      -5.669  -9.449   4.176  0.00  0.00    +0.166 A 
ATOM     17  C   UNL     1      -5.819  -9.034   2.855  0.00  0.00    +0.166 A 
ATOM     18  C   UNL     1      -4.833  -8.264   2.259  0.00  0.00    +0.053 A 
ATOM     19  O   UNL     1      -7.008  -9.508   2.382  0.00  0.00    -0.453 OA
ATOM     20  C   UNL     1      -7.394 -10.556   3.290  0.00  0.00    +0.466 C 
ATOM     21  O   UNL     1      -6.765 -10.182   4.530  0.00  0.00    -0.453 OA
ENDBRANCH   5  13
BRANCH   1  27
ATOM     22  C   UNL     1       1.385  -2.554   2.273  0.00  0.00    +0.125 A 
ATOM     23  C   UNL     1       1.962  -1.797   3.283  0.00  0.00    +0.046 A 
ATOM     24  C   UNL     1       2.595  -2.424   4.339  0.00  0.00    +0.004 A 
ATOM     25  C   UNL     1       2.654  -3.804   4.390  0.00  0.00    +0.001 A 
ATOM     26  C   UNL     1       2.081  -4.561   3.384  0.00  0.00    +0.008 A 
ATOM     27  C   UNL     1       1.442  -3.939   2.329  0.00  0.00    +0.006 A 
BRANCH  22  28
ATOM     28  O   UNL     1       0.761  -1.940   1.234  0.00  0.00    -0.492 OA
BRANCH  28  29
ATOM     29  C   UNL     1       0.742  -0.511   1.242  0.00  0.00    +0.229 C 
BRANCH  29  31
ATOM     30  C   UNL     1      -0.019   1.526   0.010  0.00  0.00    +0.007 C 
ATOM     31  C   UNL     1       0.002  -0.004   0.002  0.00  0.00    +0.038 C 
ENDBRANCH  29  31
ENDBRANCH  28  29
ENDBRANCH  22  28
ENDBRANCH   1  27
BRANCH  10  32
ATOM     32  C   UNL     1       3.002  -4.908  -0.064  0.00  0.00    +0.338 C 
ATOM     33  O   UNL     1       3.869  -5.564  -0.612  0.00  0.00    -0.245 OA
BRANCH  32  34
ATOM     34  O   UNL     1       3.090  -3.561  -0.039  0.00  0.00    -0.465 OA
ATOM     35  C   UNL     1       4.226  -2.973  -0.676  0.00  0.00    +0.280 C 
ENDBRANCH  32  34
ENDBRANCH  10  32
TORSDOF 7
