REMARK  Name = ZINC02109941
REMARK  9 active torsions:
REMARK  status: ('A' for Active; 'I' for Inactive)
REMARK    1  A    between atoms: C_1  and  C_2
REMARK    2  A    between atoms: C_2  and  C_3
REMARK    3  A    between atoms: C_3  and  C_4
REMARK    4  A    between atoms: C_4  and  O_5
REMARK    5  A    between atoms: O_5  and  C_6
REMARK    6  A    between atoms: C_9  and  C_12
REMARK    7  A    between atoms: N_14  and  N_15
REMARK    8  A    between atoms: C_16  and  C_17
REMARK    9  A    between atoms: C_23  and  C_28
REMARK                            x       y       z     vdW  Elec       q    Type
REMARK                         _______ _______ _______ _____ _____    ______ ____
ROOT
ATOM      1  C   UNL     1      -0.763   6.471   0.042  0.00  0.00    +0.263 C 
ATOM      2  O   UNL     1      -1.849   5.923   0.049  0.00  0.00    -0.268 OA
ATOM      3  N   UNL     1       0.364   5.733   0.028  0.00  0.00    -0.203 N 
ATOM      4  H   UNL     1       1.230   6.170   0.022  0.00  0.00    +0.178 HD
ENDROOT
BRANCH   1   8
ATOM      5  C   UNL     1      -0.526  10.711   0.061  0.00  0.00    +0.121 A 
ATOM      6  C   UNL     1      -1.768  10.086   0.069  0.00  0.00    +0.046 A 
ATOM      7  C   UNL     1      -1.849   8.711   0.063  0.00  0.00    +0.016 A 
ATOM      8  C   UNL     1      -0.681   7.944   0.049  0.00  0.00    +0.039 A 
ATOM      9  C   UNL     1       0.566   8.576   0.046  0.00  0.00    +0.016 A 
ATOM     10  C   UNL     1       0.638   9.952   0.046  0.00  0.00    +0.046 A 
BRANCH   5  11
ATOM     11  O   UNL     1      -0.450  12.066   0.067  0.00  0.00    -0.492 OA
BRANCH  11  12
ATOM     12  C   UNL     1       0.857  12.643   0.057  0.00  0.00    +0.229 C 
BRANCH  12  13
ATOM     13  C   UNL     1       0.742  14.168   0.066  0.00  0.00    +0.041 C 
BRANCH  13  15
ATOM     14  C   UNL     1       2.026  16.311   0.064  0.00  0.00    +0.004 C 
ATOM     15  C   UNL     1       2.142  14.786   0.056  0.00  0.00    -0.000 C 
ENDBRANCH  13  15
ENDBRANCH  12  13
ENDBRANCH  11  12
ENDBRANCH   5  11
ENDBRANCH   1   8
BRANCH   3  16
ATOM     16  N   UNL     1       0.286   4.334   0.021  0.00  0.00    -0.187 NA
ATOM     17  C   UNL     1       1.372   3.623   0.008  0.00  0.00    +0.145 C 
BRANCH  17  18
ATOM     18  C   UNL     1       1.290   2.152   0.001  0.00  0.00    +0.077 A 
ATOM     19  C   UNL     1       2.422   1.392  -0.012  0.00  0.00    +0.209 A 
ATOM     20  O   UNL     1       2.389   0.058  -0.020  0.00  0.00    -0.462 OA
ATOM     21  C   UNL     1       1.246  -0.656  -0.013  0.00  0.00    +0.138 A 
ATOM     22  C   UNL     1       1.282  -2.046  -0.021  0.00  0.00    +0.047 A 
ATOM     23  C   UNL     1       0.107  -2.766  -0.014  0.00  0.00    +0.007 A 
ATOM     24  C   UNL     1      -1.121  -2.120   0.001  0.00  0.00    -0.050 A 
ATOM     25  C   UNL     1      -1.180  -0.744   0.010  0.00  0.00    +0.018 A 
ATOM     26  C   UNL     1       0.002  -0.004   0.002  0.00  0.00    +0.065 A 
ATOM     27  C   UNL     1      -0.018   1.472   0.010  0.00  0.00    +0.201 A 
ATOM     28  O   UNL     1      -1.064   2.096   0.018  0.00  0.00    -0.286 OA
ATOM     29  C   UNL     1      -2.394  -2.926   0.008  0.00  0.00    +0.044 C 
ENDBRANCH  17  18
ENDBRANCH   3  16
TORSDOF 7
