REMARK  Name = ZINC36310126
REMARK  18 active torsions:
REMARK  status: ('A' for Active; 'I' for Inactive)
REMARK    1  A    between atoms: C_1  and  C_2
REMARK    2  A    between atoms: C_5  and  O_9
REMARK    3  A    between atoms: C_6  and  C_8
REMARK    4  A    between atoms: O_9  and  C_10
REMARK    5  A    between atoms: C_10  and  C_11
REMARK    6  A    between atoms: C_21  and  C_23
REMARK    7  A    between atoms: C_23  and  N_24
REMARK    8  A    between atoms: N_24  and  C_25
REMARK    9  A    between atoms: N_24  and  C_30
REMARK   10  A    between atoms: C_25  and  C_26
REMARK   11  A    between atoms: C_26  and  C_27
REMARK   12  A    between atoms: C_27  and  C_28
REMARK   13  A    between atoms: C_27  and  C_29
REMARK   14  A    between atoms: C_30  and  C_31
REMARK   15  A    between atoms: C_31  and  C_33
REMARK   16  A    between atoms: C_31  and  O_37
REMARK   17  A    between atoms: C_33  and  C_34
REMARK   18  A    between atoms: C_34  and  C_35
REMARK                            x       y       z     vdW  Elec       q    Type
REMARK                         _______ _______ _______ _____ _____    ______ ____
ROOT
ATOM      1  C   UNL     1       1.455  -4.583  -2.174  0.00  0.00    +0.144 C 
ATOM      2  C   UNL     1       0.023  -4.543  -1.644  0.00  0.00    -0.014 A 
ATOM      3  C   UNL     1      -1.058  -4.092  -2.400  0.00  0.00    +0.013 A 
ATOM      4  C   UNL     1      -2.300  -4.081  -1.865  0.00  0.00    +0.046 A 
ATOM      5  S   UNL     1      -2.000  -4.723  -0.225  0.00  0.00    -0.101 S 
ATOM      6  C   UNL     1      -0.249  -4.959  -0.378  0.00  0.00    -0.004 A 
ATOM      7  C   UNL     1       0.708  -5.494   0.638  0.00  0.00    +0.061 C 
ATOM      8  C   UNL     1       2.138  -5.140   0.202  0.00  0.00    +0.113 C 
ATOM      9  N   UNL     1       2.256  -5.390  -1.243  0.00  0.00    -0.292 N 
ATOM     10  C   UNL     1       3.086  -6.345  -1.707  0.00  0.00    +0.200 C 
ATOM     11  O   UNL     1       3.175  -6.544  -2.900  0.00  0.00    -0.278 OA
ENDROOT
BRANCH   1  12
ATOM     12  C   UNL     1       2.020  -3.163  -2.248  0.00  0.00    +0.256 C 
BRANCH  12  13
ATOM     13  O   UNL     1       1.891  -2.532  -0.972  0.00  0.00    -0.490 OA
BRANCH  13  18
ATOM     14  C   UNL     1       3.783   2.755  -0.531  0.00  0.00    +0.044 C 
ATOM     15  C   UNL     1       3.277   1.340  -0.649  0.00  0.00    -0.050 A 
ATOM     16  C   UNL     1       3.373   0.671  -1.855  0.00  0.00    +0.007 A 
ATOM     17  C   UNL     1       2.910  -0.626  -1.966  0.00  0.00    +0.046 A 
ATOM     18  C   UNL     1       2.348  -1.256  -0.866  0.00  0.00    +0.124 A 
ATOM     19  C   UNL     1       2.253  -0.583   0.343  0.00  0.00    -0.009 A 
ATOM     20  C   UNL     1       2.723   0.712   0.450  0.00  0.00    +0.010 A 
ATOM     21  C   UNL     1       1.643  -1.266   1.541  0.00  0.00    +0.047 C 
ENDBRANCH  13  18
ENDBRANCH  12  13
ENDBRANCH   1  12
BRANCH  10  22
ATOM     22  C   UNL     1       3.903  -7.166  -0.743  0.00  0.00    +0.019 C 
BRANCH  22  23
ATOM     23  N   UNL     1       4.606  -8.227  -1.477  0.00  0.00    +0.387 N 
ATOM     24  H   UNL     1       5.127  -7.820  -2.240  0.00  0.00    -0.081 HD
BRANCH  23  25
ATOM     25  C   UNL     1       3.628  -9.186  -2.009  0.00  0.00    -0.078 C 
BRANCH  25  26
ATOM     26  C   UNL     1       2.899  -9.867  -0.849  0.00  0.00    -0.016 C 
BRANCH  26  27
ATOM     27  C   UNL     1       1.954 -10.937  -1.399  0.00  0.00    -0.019 C 
ATOM     28  C   UNL     1       1.319 -11.702  -0.236  0.00  0.00    +0.007 C 
ATOM     29  C   UNL     1       0.857 -10.270  -2.231  0.00  0.00    +0.007 C 
ENDBRANCH  26  27
ENDBRANCH  25  26
ENDBRANCH  23  25
BRANCH  23  30
ATOM     30  C   UNL     1       5.529  -8.922  -0.569  0.00  0.00    -0.047 C 
BRANCH  30  31
ATOM     31  C   UNL     1       6.380  -9.912  -1.367  0.00  0.00    +0.098 C 
BRANCH  31  32
ATOM     32  O   UNL     1       5.550 -10.967  -1.856  0.00  0.00    -0.394 OA
ATOM     33  H   UNL     1       5.103 -11.470  -1.161  0.00  0.00    +0.210 HD
ENDBRANCH  31  32
BRANCH  31  34
ATOM     34  C   UNL     1       7.467 -10.495  -0.462  0.00  0.00    +0.033 C 
BRANCH  34  35
ATOM     35  C   UNL     1       8.394 -11.389  -1.288  0.00  0.00    +0.029 C 
BRANCH  35  36
ATOM     36  C   UNL     1       9.464 -11.963  -0.397  0.00  0.00    -0.034 C 
ATOM     37  C   UNL     1       9.640 -13.260  -0.336  0.00  0.00    +0.004 C 
ENDBRANCH  35  36
ENDBRANCH  34  35
ENDBRANCH  31  34
ENDBRANCH  30  31
ENDBRANCH  23  30
ENDBRANCH  22  23
ENDBRANCH  10  22
TORSDOF 14
