REMARK  Name = ZINC13032600
REMARK  14 active torsions:
REMARK  status: ('A' for Active; 'I' for Inactive)
REMARK    1  A    between atoms: C_1  and  C_2
REMARK    2  A    between atoms: C_2  and  C_3
REMARK    3  A    between atoms: C_3  and  C_4
REMARK    4  A    between atoms: C_3  and  C_5
REMARK    5  A    between atoms: C_3  and  N_6
REMARK    6  A    between atoms: C_7  and  C_9
REMARK    7  A    between atoms: C_9  and  C_11
REMARK    8  A    between atoms: C_9  and  N_16
REMARK    9  A    between atoms: N_16  and  C_17
REMARK   10  A    between atoms: C_20  and  C_23
REMARK   11  A    between atoms: C_23  and  O_25
REMARK   12  A    between atoms: O_25  and  C_26
REMARK   13  A    between atoms: C_27  and  C_29
REMARK   14  A    between atoms: C_29  and  N_30
REMARK                            x       y       z     vdW  Elec       q    Type
REMARK                         _______ _______ _______ _____ _____    ______ ____
ROOT
ATOM      1  N   UNL     1      -5.944   3.316  -1.740  0.00  0.00    -0.253 N 
ATOM      2  C   UNL     1      -4.637   3.175  -2.037  0.00  0.00    +0.242 C 
ATOM      3  O   UNL     1      -4.296   2.936  -3.176  0.00  0.00    -0.273 OA
ENDROOT
BRANCH   1   4
ATOM      4  C   UNL     1      -6.894   3.325  -2.761  0.00  0.00    +0.038 A 
ATOM      5  C   UNL     1      -8.250   3.309  -2.448  0.00  0.00    +0.024 A 
ATOM      6  C   UNL     1      -9.190   3.323  -3.453  0.00  0.00    +0.017 A 
ATOM      7  C   UNL     1      -8.781   3.341  -4.790  0.00  0.00    +0.059 A 
ATOM      8  C   UNL     1      -7.418   3.352  -5.101  0.00  0.00    +0.017 A 
ATOM      9  C   UNL     1      -6.484   3.343  -4.090  0.00  0.00    +0.024 A 
BRANCH   7  10
ATOM     10  C   UNL     1      -9.786   3.350  -5.870  0.00  0.00    +0.339 C 
ATOM     11  O   UNL     1      -9.429   3.367  -7.031  0.00  0.00    -0.245 OA
BRANCH  10  12
ATOM     12  O   UNL     1     -11.099   3.341  -5.569  0.00  0.00    -0.464 OA
ATOM     13  C   UNL     1     -12.031   3.351  -6.682  0.00  0.00    +0.280 C 
ENDBRANCH  10  12
ENDBRANCH   7  10
ENDBRANCH   1   4
BRANCH   1  14
ATOM     14  C   UNL     1      -6.368   3.460  -0.345  0.00  0.00    +0.204 C 
BRANCH  14  15
ATOM     15  C   UNL     1      -7.221   4.694  -0.204  0.00  0.00    +0.019 A 
ATOM     16  C   UNL     1      -7.600   5.345   0.923  0.00  0.00    +0.013 A 
ATOM     17  C   UNL     1      -8.394   6.471   0.812  0.00  0.00    +0.008 A 
ATOM     18  C   UNL     1      -8.771   6.890  -0.421  0.00  0.00    +0.045 A 
ATOM     19  S   UNL     1      -7.990   5.681  -1.477  0.00  0.00    -0.099 S 
ENDBRANCH  14  15
BRANCH  14  21
ATOM     20  N   UNL     1      -7.316   1.952   1.372  0.00  0.00    -0.308 N 
ATOM     21  C   UNL     1      -7.164   2.248   0.066  0.00  0.00    +0.239 C 
ATOM     22  O   UNL     1      -7.668   1.539  -0.779  0.00  0.00    -0.273 OA
ATOM     23  H   UNL     1      -6.912   2.519   2.047  0.00  0.00    +0.149 HD
BRANCH  20  24
ATOM     24  C   UNL     1      -8.090   0.774   1.771  0.00  0.00    +0.029 C 
ATOM     25  C   UNL     1      -9.523   0.907   1.253  0.00  0.00    +0.031 C 
ATOM     26  C   UNL     1      -7.448  -0.482   1.180  0.00  0.00    +0.031 C 
BRANCH  24  28
ATOM     27  C   UNL     1      -8.915  -0.562   3.715  0.00  0.00    +0.006 C 
ATOM     28  C   UNL     1      -8.107   0.669   3.297  0.00  0.00    +0.022 C 
ENDBRANCH  24  28
ENDBRANCH  20  24
ENDBRANCH  14  21
ENDBRANCH   1  14
BRANCH   2  29
ATOM     29  C   UNL     1      -3.599   3.316  -0.953  0.00  0.00    +0.242 C 
BRANCH  29  30
ATOM     30  N   UNL     1      -2.265   3.120  -1.527  0.00  0.00    -0.235 N 
ATOM     31  C   UNL     1      -1.586   1.931  -1.643  0.00  0.00    +0.090 A 
ATOM     32  C   UNL     1      -1.878   0.614  -1.303  0.00  0.00    +0.029 A 
ATOM     33  C   UNL     1      -0.964  -0.370  -1.553  0.00  0.00    +0.002 A 
ATOM     34  C   UNL     1       0.253  -0.070  -2.153  0.00  0.00    +0.002 A 
ATOM     35  C   UNL     1       0.561   1.213  -2.500  0.00  0.00    +0.032 A 
ATOM     36  C   UNL     1      -0.357   2.242  -2.250  0.00  0.00    +0.113 A 
ATOM     37  N   UNL     1      -0.336   3.571  -2.474  0.00  0.00    -0.129 NA
ATOM     38  N   UNL     1      -1.430   4.110  -2.065  0.00  0.00    -0.064 NA
ENDBRANCH  29  30
ENDBRANCH   2  29
TORSDOF 10
