REMARK  Name = ZINC41584656
REMARK  7 active torsions:
REMARK  status: ('A' for Active; 'I' for Inactive)
REMARK    1  A    between atoms: C_4  and  O_33
REMARK    2  A    between atoms: C_5  and  C_7
REMARK    3  A    between atoms: C_14  and  O_32
REMARK    4  A    between atoms: C_15  and  C_18
REMARK    5  A    between atoms: C_18  and  N_19
REMARK    6  A    between atoms: C_24  and  C_26
REMARK    7  A    between atoms: O_33  and  C_34
REMARK                            x       y       z     vdW  Elec       q    Type
REMARK                         _______ _______ _______ _____ _____    ______ ____
ROOT
ATOM      1  C   UNL     1       1.264  -0.209   0.822  0.00  0.00    +0.061 C 
ATOM      2  C   UNL     1       0.310  -1.168   0.936  0.00  0.00    +0.176 C 
ATOM      3  C   UNL     1       0.535  -2.582   1.268  0.00  0.00    +0.231 C 
ATOM      4  O   UNL     1       1.597  -3.135   1.497  0.00  0.00    -0.283 OA
ATOM      5  C   UNL     1      -0.811  -3.182   1.264  0.00  0.00    +0.068 A 
ATOM      6  C   UNL     1      -1.281  -4.475   1.500  0.00  0.00    +0.019 A 
ATOM      7  C   UNL     1      -2.619  -4.738   1.422  0.00  0.00    +0.046 A 
ATOM      8  C   UNL     1      -3.515  -3.719   1.108  0.00  0.00    +0.122 A 
ATOM      9  C   UNL     1      -3.063  -2.431   0.872  0.00  0.00    +0.020 A 
ATOM     10  C   UNL     1      -1.705  -2.147   0.947  0.00  0.00    +0.144 A 
ATOM     11  O   UNL     1      -1.022  -0.995   0.769  0.00  0.00    -0.451 OA
ENDROOT
BRANCH   1  16
ATOM     12  C   UNL     1      -0.778   2.824   0.003  0.00  0.00    +0.001 A 
ATOM     13  C   UNL     1       0.143   3.837   0.217  0.00  0.00    +0.004 A 
ATOM     14  C   UNL     1       1.428   3.539   0.627  0.00  0.00    +0.046 A 
ATOM     15  C   UNL     1       1.806   2.221   0.828  0.00  0.00    +0.134 A 
ATOM     16  C   UNL     1       0.877   1.190   0.613  0.00  0.00    +0.020 A 
ATOM     17  C   UNL     1      -0.422   1.507   0.197  0.00  0.00    +0.011 A 
BRANCH  15  18
ATOM     18  O   UNL     1       3.069   1.928   1.231  0.00  0.00    -0.434 OA
BRANCH  18  19
ATOM     19  C   UNL     1       3.959   3.029   1.429  0.00  0.00    +0.541 C 
ATOM     20  F   UNL     1       4.101   3.735   0.230  0.00  0.00    -0.166 F 
ATOM     21  F   UNL     1       3.438   3.878   2.411  0.00  0.00    -0.166 F 
ENDBRANCH  18  19
ENDBRANCH  15  18
ENDBRANCH   1  16
BRANCH   8  22
ATOM     22  O   UNL     1      -4.843  -3.990   1.033  0.00  0.00    -0.506 OA
ATOM     23  H   UNL     1      -5.315  -3.881   1.870  0.00  0.00    +0.292 HD
ENDBRANCH   8  22
BRANCH   9  24
ATOM     24  C   UNL     1      -4.044  -1.338   0.533  0.00  0.00    -0.035 C 
BRANCH  24  25
ATOM     25  N   UNL     1      -4.398  -1.423  -0.890  0.00  0.00    +0.387 N 
ATOM     26  C   UNL     1      -3.208  -1.156  -1.706  0.00  0.00    -0.078 C 
ATOM     27  C   UNL     1      -3.552  -1.323  -3.188  0.00  0.00    -0.019 C 
ATOM     28  C   UNL     1      -4.661  -0.335  -3.562  0.00  0.00    -0.003 C 
ATOM     29  C   UNL     1      -5.871  -0.573  -2.655  0.00  0.00    -0.011 C 
ATOM     30  C   UNL     1      -5.441  -0.435  -1.193  0.00  0.00    -0.036 C 
ATOM     31  H   UNL     1      -4.744  -2.348  -1.096  0.00  0.00    -0.080 HD
BRANCH  30  32
ATOM     32  C   UNL     1      -6.629  -0.668  -0.296  0.00  0.00    -0.043 A 
ATOM     33  C   UNL     1      -7.187   0.382   0.418  0.00  0.00    +0.005 A 
ATOM     34  C   UNL     1      -8.279   0.120   1.231  0.00  0.00    +0.020 A 
ATOM     35  C   UNL     1      -8.772  -1.169   1.302  0.00  0.00    +0.111 A 
ATOM     36  N   UNL     1      -8.216  -2.143   0.610  0.00  0.00    -0.263 NA
ATOM     37  C   UNL     1      -7.180  -1.930  -0.178  0.00  0.00    +0.112 A 
ENDBRANCH  30  32
ENDBRANCH  24  25
ENDBRANCH   9  24
TORSDOF 7
