REMARK  Name = ZINC12389436
REMARK  3 active torsions:
REMARK  status: ('A' for Active; 'I' for Inactive)
REMARK    1  A    between atoms: C_3  and  C_11
REMARK    2  A    between atoms: C_13  and  C_16
REMARK    3  A    between atoms: N_18  and  C_19
REMARK                            x       y       z     vdW  Elec       q    Type
REMARK                         _______ _______ _______ _____ _____    ______ ____
ROOT
ATOM      1  C   UNL     1      -0.016   1.305   0.009  0.00  0.00    +0.203 A 
ATOM      2  N   UNL     1       1.266   1.725  -0.001  0.00  0.00    -0.183 NA
ATOM      3  C   UNL     1       1.996   0.630  -0.014  0.00  0.00    +0.314 A 
ATOM      4  O   UNL     1       1.146  -0.408  -0.011  0.00  0.00    -0.328 OA
ATOM      5  N   UNL     1       0.002  -0.004   0.002  0.00  0.00    -0.055 NA
ENDROOT
BRANCH   1   8
ATOM      6  C   UNL     1      -2.183   4.364   0.037  0.00  0.00    +0.011 A 
ATOM      7  C   UNL     1      -1.082   3.559   0.032  0.00  0.00    +0.012 A 
ATOM      8  C   UNL     1      -1.223   2.168   0.020  0.00  0.00    +0.024 A 
ATOM      9  C   UNL     1      -2.485   1.588   0.024  0.00  0.00    +0.038 A 
ATOM     10  C   UNL     1      -3.613   2.398   0.034  0.00  0.00    +0.047 A 
ATOM     11  C   UNL     1      -3.461   3.798   0.041  0.00  0.00    -0.000 A 
ATOM     12  C   UNL     1      -4.816   4.351   0.051  0.00  0.00    +0.027 A 
ATOM     13  C   UNL     1      -5.666   3.311   0.049  0.00  0.00    +0.083 A 
ATOM     14  N   UNL     1      -4.966   2.136   0.039  0.00  0.00    -0.361 N 
ATOM     15  H   UNL     1      -5.362   1.251   0.036  0.00  0.00    +0.165 HD
ENDBRANCH   1   8
BRANCH   3  16
ATOM     16  C   UNL     1       3.477   0.557  -0.028  0.00  0.00    +0.302 C 
ATOM     17  O   UNL     1       4.136   1.577  -0.029  0.00  0.00    -0.265 OA
ATOM     18  N   UNL     1       4.093  -0.642  -0.040  0.00  0.00    -0.305 N 
ATOM     19  H   UNL     1       3.567  -1.458  -0.039  0.00  0.00    +0.149 HD
BRANCH  18  20
ATOM     20  C   UNL     1       5.556  -0.715  -0.054  0.00  0.00    +0.074 C 
ATOM     21  C   UNL     1       6.204  -1.726  -1.002  0.00  0.00    +0.024 C 
ATOM     22  C   UNL     1       6.206  -1.981   0.507  0.00  0.00    +0.024 C 
ENDBRANCH  18  20
ENDBRANCH   3  16
TORSDOF 3
