REMARK  Name = ZINC00653608
REMARK  11 active torsions:
REMARK  status: ('A' for Active; 'I' for Inactive)
REMARK    1  A    between atoms: C_1  and  C_2
REMARK    2  A    between atoms: C_2  and  O_3
REMARK    3  A    between atoms: O_3  and  C_4
REMARK    4  A    between atoms: C_6  and  C_11
REMARK    5  A    between atoms: C_9  and  O_10
REMARK    6  A    between atoms: C_18  and  C_36
REMARK    7  A    between atoms: C_19  and  C_31
REMARK    8  A    between atoms: C_20  and  C_22
REMARK    9  A    between atoms: C_31  and  O_33
REMARK   10  A    between atoms: O_33  and  C_34
REMARK   11  A    between atoms: C_34  and  C_35
REMARK                            x       y       z     vdW  Elec       q    Type
REMARK                         _______ _______ _______ _____ _____    ______ ____
ROOT
ATOM      1  C   UNL     1       0.192   9.309  -0.892  0.00  0.00    +0.028 C 
ATOM      2  C   UNL     1      -0.962   8.602  -0.780  0.00  0.00    +0.081 A 
ATOM      3  C   UNL     1      -1.170   7.220  -0.326  0.00  0.00    +0.268 A 
ATOM      4  O   UNL     1      -0.232   6.527   0.022  0.00  0.00    -0.266 OA
ATOM      5  N   UNL     1      -2.423   6.746  -0.307  0.00  0.00    -0.275 N 
ATOM      6  C   UNL     1      -3.447   7.572  -0.711  0.00  0.00    +0.178 A 
ATOM      7  N   UNL     1      -4.707   7.218  -0.735  0.00  0.00    -0.228 NA
ATOM      8  C   UNL     1      -5.166   6.026  -0.376  0.00  0.00    +0.053 C 
ATOM      9  C   UNL     1      -4.310   5.054   0.060  0.00  0.00    +0.085 C 
ATOM     10  C   UNL     1      -2.835   5.379   0.118  0.00  0.00    +0.162 C 
ATOM     11  C   UNL     1      -6.644   5.742  -0.448  0.00  0.00    +0.066 C 
ATOM     12  S   UNL     1      -2.638   9.099  -1.146  0.00  0.00    -0.046 S 
ENDROOT
BRANCH  10  13
ATOM     13  C   UNL     1      -2.106   4.385  -0.750  0.00  0.00    -0.016 A 
ATOM     14  C   UNL     1      -2.076   4.558  -2.121  0.00  0.00    +0.010 A 
ATOM     15  C   UNL     1      -1.409   3.649  -2.921  0.00  0.00    +0.050 A 
ATOM     16  C   UNL     1      -0.769   2.561  -2.349  0.00  0.00    +0.166 A 
ATOM     17  C   UNL     1      -0.800   2.387  -0.968  0.00  0.00    +0.167 A 
ATOM     18  C   UNL     1      -1.470   3.302  -0.172  0.00  0.00    +0.055 A 
ATOM     19  O   UNL     1      -0.102   1.254  -0.653  0.00  0.00    -0.453 OA
ATOM     20  C   UNL     1       0.695   0.962  -1.816  0.00  0.00    +0.466 C 
ATOM     21  O   UNL     1      -0.055   1.538  -2.902  0.00  0.00    -0.453 OA
ENDBRANCH  10  13
BRANCH   1  24
ATOM     22  C   UNL     1       1.252  12.744  -1.960  0.00  0.00    +0.162 A 
ATOM     23  C   UNL     1       1.266  11.503  -1.356  0.00  0.00    +0.057 A 
ATOM     24  C   UNL     1       0.184  10.631  -1.531  0.00  0.00    -0.020 A 
ATOM     25  C   UNL     1      -0.903  11.022  -2.323  0.00  0.00    +0.012 A 
ATOM     26  C   UNL     1      -0.910  12.264  -2.917  0.00  0.00    +0.050 A 
ATOM     27  C   UNL     1       0.163  13.128  -2.742  0.00  0.00    +0.158 A 
BRANCH  27  28
ATOM     28  O   UNL     1       0.153  14.350  -3.335  0.00  0.00    -0.503 OA
ATOM     29  H   UNL     1       0.542  14.361  -4.220  0.00  0.00    +0.292 HD
ENDBRANCH  27  28
BRANCH  22  30
ATOM     30  O   UNL     1       2.301  13.594  -1.792  0.00  0.00    -0.489 OA
BRANCH  30  32
ATOM     31  C   UNL     1       4.461  14.219  -0.906  0.00  0.00    +0.048 C 
ATOM     32  C   UNL     1       3.383  13.136  -0.978  0.00  0.00    +0.226 C 
ENDBRANCH  30  32
ENDBRANCH  22  30
ENDBRANCH   1  24
BRANCH   9  33
ATOM     33  C   UNL     1      -4.786   3.789   0.441  0.00  0.00    +0.339 C 
ATOM     34  O   UNL     1      -5.962   3.509   0.288  0.00  0.00    -0.245 OA
BRANCH  33  35
ATOM     35  O   UNL     1      -3.941   2.882   0.978  0.00  0.00    -0.462 OA
BRANCH  35  36
ATOM     36  C   UNL     1      -4.494   1.616   1.343  0.00  0.00    +0.229 C 
ATOM     37  C   UNL     1      -3.394   0.729   1.930  0.00  0.00    +0.048 C 
ENDBRANCH  35  36
ENDBRANCH  33  35
ENDBRANCH   9  33
TORSDOF 8
