REMARK  Name = ZINC28067043
REMARK  9 active torsions:
REMARK  status: ('A' for Active; 'I' for Inactive)
REMARK    1  A    between atoms: C_1  and  C_2
REMARK    2  A    between atoms: C_2  and  C_3
REMARK    3  A    between atoms: C_6  and  C_9
REMARK    4  A    between atoms: C_12  and  C_34
REMARK    5  A    between atoms: C_19  and  C_22
REMARK    6  A    between atoms: C_22  and  C_23
REMARK    7  A    between atoms: N_25  and  C_26
REMARK    8  A    between atoms: C_28  and  C_33
REMARK    9  A    between atoms: C_31  and  C_32
REMARK                            x       y       z     vdW  Elec       q    Type
REMARK                         _______ _______ _______ _____ _____    ______ ____
ROOT
ATOM      1  C   UNL     1      -2.543   1.003  -0.008  0.00  0.00    +0.136 C 
ATOM      2  C   UNL     1      -3.181   0.996  -1.411  0.00  0.00    +0.087 C 
ATOM      3  C   UNL     1      -4.510   1.689  -1.211  0.00  0.00    +0.069 C 
ATOM      4  N   UNL     1      -4.635   2.031   0.025  0.00  0.00    -0.182 NA
ATOM      5  N   UNL     1      -3.547   1.680   0.828  0.00  0.00    -0.195 N 
ATOM      6  C   UNL     1      -3.433   1.924   2.166  0.00  0.00    +0.170 C 
ATOM      7  N   UNL     1      -2.428   1.608   2.974  0.00  0.00    -0.157 NA
ATOM      8  C   UNL     1      -2.394   1.883   4.249  0.00  0.00    +0.252 C 
ATOM      9  O   UNL     1      -1.452   1.581   4.954  0.00  0.00    -0.272 OA
ATOM     10  C   UNL     1      -3.622   2.604   4.793  0.00  0.00    +0.150 C 
ATOM     11  S   UNL     1      -4.604   2.737   3.245  0.00  0.00    -0.078 S 
ENDROOT
BRANCH   1  15
ATOM     12  C   UNL     1       1.120   3.200  -0.039  0.00  0.00    -0.048 A 
ATOM     13  C   UNL     1       1.143   1.817  -0.050  0.00  0.00    +0.004 A 
ATOM     14  C   UNL     1      -0.043   1.107  -0.036  0.00  0.00    +0.006 A 
ATOM     15  C   UNL     1      -1.251   1.778  -0.017  0.00  0.00    -0.025 A 
ATOM     16  C   UNL     1      -1.274   3.160  -0.001  0.00  0.00    +0.006 A 
ATOM     17  C   UNL     1      -0.088   3.871  -0.014  0.00  0.00    +0.004 A 
BRANCH  12  19
ATOM     18  C   UNL     1       2.827   4.249  -1.500  0.00  0.00    +0.009 C 
ATOM     19  C   UNL     1       2.413   3.975  -0.053  0.00  0.00    +0.032 C 
ENDBRANCH  12  19
ENDBRANCH   1  15
BRANCH   3  20
ATOM     20  C   UNL     1      -5.508   1.937  -2.268  0.00  0.00    -0.002 A 
ATOM     21  C   UNL     1      -5.259   1.525  -3.579  0.00  0.00    +0.010 A 
ATOM     22  C   UNL     1      -6.200   1.754  -4.561  0.00  0.00    +0.001 A 
ATOM     23  C   UNL     1      -7.383   2.402  -4.252  0.00  0.00    +0.000 A 
ATOM     24  C   UNL     1      -7.634   2.818  -2.957  0.00  0.00    +0.001 A 
ATOM     25  C   UNL     1      -6.705   2.590  -1.963  0.00  0.00    +0.010 A 
ENDBRANCH   3  20
BRANCH  10  26
ATOM     26  C   UNL     1      -3.260   3.984   5.345  0.00  0.00    +0.120 C 
BRANCH  26  27
ATOM     27  C   UNL     1      -4.513   4.691   5.792  0.00  0.00    +0.219 C 
ATOM     28  O   UNL     1      -5.590   4.145   5.679  0.00  0.00    -0.275 OA
ATOM     29  N   UNL     1      -4.438   5.931   6.316  0.00  0.00    -0.285 N 
ATOM     30  H   UNL     1      -3.455   6.390   6.502  0.00  0.00    +0.155 HD
BRANCH  29  31
ATOM     31  C   UNL     1      -5.608   6.633   6.623  0.00  0.00    +0.037 A 
ATOM     32  C   UNL     1      -6.792   6.337   5.959  0.00  0.00    +0.027 A 
ATOM     33  C   UNL     1      -7.946   7.029   6.268  0.00  0.00    -0.049 A 
ATOM     34  C   UNL     1      -7.923   8.022   7.230  0.00  0.00    +0.004 A 
ATOM     35  C   UNL     1      -6.745   8.323   7.889  0.00  0.00    +0.005 A 
ATOM     36  C   UNL     1      -5.588   7.631   7.588  0.00  0.00    -0.029 A 
ATOM     37  C   UNL     1      -4.304   7.960   8.306  0.00  0.00    +0.045 C 
ATOM     38  C   UNL     1      -9.232   6.704   5.553  0.00  0.00    +0.044 C 
ENDBRANCH  29  31
ENDBRANCH  26  27
ENDBRANCH  10  26
TORSDOF 6
