REMARK  Name = ZINC21405346
REMARK  13 active torsions:
REMARK  status: ('A' for Active; 'I' for Inactive)
REMARK    1  A    between atoms: C_1  and  C_2
REMARK    2  A    between atoms: C_5  and  C_35
REMARK    3  A    between atoms: N_8  and  S_10
REMARK    4  A    between atoms: S_10  and  C_13
REMARK    5  A    between atoms: C_15  and  C_21
REMARK    6  A    between atoms: C_18  and  O_19
REMARK    7  A    between atoms: O_19  and  C_20
REMARK    8  A    between atoms: N_23  and  C_24
REMARK    9  A    between atoms: C_24  and  C_25
REMARK   10  A    between atoms: C_30  and  C_31
REMARK   11  A    between atoms: C_31  and  N_32
REMARK   12  A    between atoms: N_32  and  C_33
REMARK   13  A    between atoms: N_32  and  C_34
REMARK                            x       y       z     vdW  Elec       q    Type
REMARK                         _______ _______ _______ _____ _____    ______ ____
ROOT
ATOM      1  C   UNL     1      -5.386  -1.951  -4.759  0.00  0.00    +0.148 A 
ATOM      2  C   UNL     1      -5.026  -1.842  -3.434  0.00  0.00    +0.045 A 
ATOM      3  C   UNL     1      -3.771  -1.332  -3.093  0.00  0.00    +0.039 A 
ATOM      4  C   UNL     1      -2.887  -0.930  -4.098  0.00  0.00    +0.017 A 
ATOM      5  C   UNL     1      -3.253  -1.046  -5.420  0.00  0.00    +0.048 A 
ATOM      6  C   UNL     1      -4.502  -1.554  -5.756  0.00  0.00    +0.146 A 
ENDROOT
BRANCH   3   7
ATOM      7  C   UNL     1      -3.382  -1.213  -1.674  0.00  0.00    +0.244 C 
ATOM      8  O   UNL     1      -4.154  -1.559  -0.801  0.00  0.00    -0.270 OA
ATOM      9  N   UNL     1      -2.170  -0.722  -1.347  0.00  0.00    -0.307 N 
ATOM     10  H   UNL     1      -1.472  -0.409  -2.137  0.00  0.00    +0.149 HD
BRANCH   9  11
ATOM     11  C   UNL     1      -1.784  -0.604   0.062  0.00  0.00    +0.140 C 
BRANCH  11  12
ATOM     12  C   UNL     1      -0.393  -0.030   0.154  0.00  0.00    -0.029 A 
ATOM     13  C   UNL     1       0.683  -0.864   0.396  0.00  0.00    +0.005 A 
ATOM     14  C   UNL     1       1.959  -0.338   0.481  0.00  0.00    +0.000 A 
ATOM     15  C   UNL     1       2.158   1.021   0.324  0.00  0.00    +0.000 A 
ATOM     16  C   UNL     1       1.082   1.854   0.083  0.00  0.00    +0.002 A 
ATOM     17  C   UNL     1      -0.194   1.328  -0.002  0.00  0.00    -0.059 A 
BRANCH  17  18
ATOM     18  C   UNL     1      -1.366   2.236  -0.272  0.00  0.00    -0.043 C 
BRANCH  18  19
ATOM     19  N   UNL     1      -1.790   2.086  -1.671  0.00  0.00    +0.379 N 
ATOM     20  C   UNL     1      -3.132   2.645  -1.877  0.00  0.00    -0.096 C 
ATOM     21  C   UNL     1      -0.817   2.701  -2.584  0.00  0.00    -0.096 C 
ATOM     22  H   UNL     1      -1.832   1.010  -1.898  0.00  0.00    -0.082 HD
ENDBRANCH  18  19
ENDBRANCH  17  18
ENDBRANCH  11  12
ENDBRANCH   9  11
ENDBRANCH   3   7
BRANCH   1  23
ATOM     23  S   UNL     1      -6.968  -2.594  -5.191  0.00  0.00    +0.064 S 
ATOM     24  O   UNL     1      -6.747  -3.582  -6.188  0.00  0.00    -0.153 OA
ATOM     25  O   UNL     1      -7.638  -2.879  -3.971  0.00  0.00    -0.153 OA
BRANCH  23  31
ATOM     26  C   UNL     1      -6.801   1.220  -4.948  0.00  0.00    +0.009 C 
ATOM     27  C   UNL     1      -8.233   0.985  -5.431  0.00  0.00    +0.002 C 
ATOM     28  C   UNL     1      -8.309   1.222  -6.941  0.00  0.00    +0.009 C 
ATOM     29  C   UNL     1      -7.339   0.279  -7.656  0.00  0.00    +0.002 C 
ATOM     30  C   UNL     1      -7.742  -1.172  -7.373  0.00  0.00    +0.112 C 
ATOM     31  N   UNL     1      -7.812  -1.369  -5.919  0.00  0.00    -0.176 NA
ATOM     32  C   UNL     1      -8.651  -0.462  -5.124  0.00  0.00    +0.112 C 
ATOM     33  C   UNL     1      -7.391   0.539  -9.163  0.00  0.00    +0.009 C 
ENDBRANCH  23  31
ENDBRANCH   1  23
BRANCH   6  34
ATOM     34  O   UNL     1      -4.861  -1.663  -7.060  0.00  0.00    -0.493 OA
ATOM     35  C   UNL     1      -3.905  -1.237  -8.033  0.00  0.00    +0.277 C 
ENDBRANCH   6  34
TORSDOF 8
