REMARK  Name = ZINC09345192
REMARK  9 active torsions:
REMARK  status: ('A' for Active; 'I' for Inactive)
REMARK    1  A    between atoms: C_1  and  C_2
REMARK    2  A    between atoms: C_2  and  O_3
REMARK    3  A    between atoms: O_3  and  C_4
REMARK    4  A    between atoms: C_7  and  C_10
REMARK    5  A    between atoms: C_16  and  C_21
REMARK    6  A    between atoms: C_25  and  S_37
REMARK    7  A    between atoms: C_28  and  C_30
REMARK    8  A    between atoms: C_33  and  C_36
REMARK    9  A    between atoms: S_37  and  C_38
REMARK                            x       y       z     vdW  Elec       q    Type
REMARK                         _______ _______ _______ _____ _____    ______ ____
ROOT
ATOM      1  C   UNL     1       1.144  -6.059   1.764  0.00  0.00    +0.234 C 
ATOM      2  C   UNL     1       0.022  -6.557   2.627  0.00  0.00    +0.025 C 
ATOM      3  C   UNL     1       0.163  -6.628   3.966  0.00  0.00    +0.058 C 
ATOM      4  C   UNL     1       1.466  -6.206   4.540  0.00  0.00    +0.040 A 
ATOM      5  C   UNL     1       1.609  -5.931   5.893  0.00  0.00    +0.017 A 
ATOM      6  C   UNL     1       2.840  -5.540   6.384  0.00  0.00    -0.050 A 
ATOM      7  C   UNL     1       3.925  -5.423   5.532  0.00  0.00    +0.007 A 
ATOM      8  C   UNL     1       3.791  -5.696   4.183  0.00  0.00    +0.046 A 
ATOM      9  C   UNL     1       2.564  -6.090   3.678  0.00  0.00    +0.131 A 
ATOM     10  O   UNL     1       2.404  -6.369   2.363  0.00  0.00    -0.479 OA
ATOM     11  C   UNL     1       3.002  -5.240   7.852  0.00  0.00    +0.044 C 
ATOM     12  N   UNL     1      -0.841  -7.067   4.763  0.00  0.00    -0.326 N 
ATOM     13  C   UNL     1      -2.017  -7.465   4.324  0.00  0.00    +0.216 C 
ATOM     14  N   UNL     1      -3.103  -7.925   4.971  0.00  0.00    -0.192 NA
ATOM     15  C   UNL     1      -4.061  -8.209   4.111  0.00  0.00    +0.174 C 
ATOM     16  N   UNL     1      -3.621  -7.936   2.843  0.00  0.00    -0.239 N 
ATOM     17  N   UNL     1      -2.314  -7.459   2.975  0.00  0.00    -0.209 N 
ATOM     18  C   UNL     1      -1.296  -6.994   2.026  0.00  0.00    +0.159 C 
ATOM     19  H   UNL     1      -0.683  -7.090   5.720  0.00  0.00    +0.169 HD
ATOM     20  H   UNL     1      -4.117  -8.051   2.018  0.00  0.00    +0.172 HD
ENDROOT
BRANCH  18  21
ATOM     21  C   UNL     1      -1.021  -8.108   1.049  0.00  0.00    -0.021 A 
ATOM     22  C   UNL     1      -0.829  -9.398   1.508  0.00  0.00    +0.006 A 
ATOM     23  C   UNL     1      -0.577 -10.420   0.612  0.00  0.00    +0.004 A 
ATOM     24  C   UNL     1      -0.516 -10.152  -0.743  0.00  0.00    -0.050 A 
ATOM     25  C   UNL     1      -0.708  -8.863  -1.202  0.00  0.00    +0.004 A 
ATOM     26  C   UNL     1      -0.965  -7.841  -0.306  0.00  0.00    +0.006 A 
ATOM     27  C   UNL     1      -0.240 -11.266  -1.720  0.00  0.00    +0.044 C 
ENDBRANCH  18  21
BRANCH   1  31
ATOM     28  C   UNL     1       0.802  -1.824   1.306  0.00  0.00    +0.121 A 
ATOM     29  C   UNL     1       0.260  -2.673   0.351  0.00  0.00    +0.046 A 
ATOM     30  C   UNL     1       0.372  -4.041   0.502  0.00  0.00    +0.011 A 
ATOM     31  C   UNL     1       1.024  -4.566   1.603  0.00  0.00    -0.003 A 
ATOM     32  C   UNL     1       1.565  -3.722   2.555  0.00  0.00    +0.011 A 
ATOM     33  C   UNL     1       1.460  -2.353   2.406  0.00  0.00    +0.046 A 
BRANCH  28  34
ATOM     34  O   UNL     1       0.693  -0.477   1.160  0.00  0.00    -0.492 OA
BRANCH  34  36
ATOM     35  C   UNL     1      -0.019   1.526   0.010  0.00  0.00    +0.048 C 
ATOM     36  C   UNL     1       0.002  -0.004   0.002  0.00  0.00    +0.225 C 
ENDBRANCH  34  36
ENDBRANCH  28  34
ENDBRANCH   1  31
BRANCH  15  37
ATOM     37  S   UNL     1      -5.654  -8.838   4.527  0.00  0.00    -0.092 S 
ATOM     38  C   UNL     1      -5.613  -8.977   6.335  0.00  0.00    +0.093 C 
ENDBRANCH  15  37
TORSDOF 5
