REMARK  Name = ZINC35456546
REMARK  9 active torsions:
REMARK  status: ('A' for Active; 'I' for Inactive)
REMARK    1  A    between atoms: C_1  and  C_2
REMARK    2  A    between atoms: C_6  and  C_31
REMARK    3  A    between atoms: C_9  and  C_10
REMARK    4  A    between atoms: C_9  and  C_11
REMARK    5  A    between atoms: C_11  and  C_12
REMARK    6  A    between atoms: C_12  and  C_13
REMARK    7  A    between atoms: C_18  and  O_20
REMARK    8  A    between atoms: C_22  and  O_30
REMARK    9  A    between atoms: C_24  and  O_29
REMARK                            x       y       z     vdW  Elec       q    Type
REMARK                         _______ _______ _______ _____ _____    ______ ____
ROOT
ATOM      1  C   UNL     1      -0.580   1.051  -0.045  0.00  0.00    +0.008 C 
ATOM      2  C   UNL     1      -0.318  -0.455   0.069  0.00  0.00    -0.008 C 
ATOM      3  C   UNL     1      -1.641  -1.186   0.256  0.00  0.00    +0.004 C 
ATOM      4  C   UNL     1      -1.391  -2.689   0.386  0.00  0.00    +0.010 C 
ATOM      5  C   UNL     1      -0.531  -2.959   1.619  0.00  0.00    +0.005 C 
ATOM      6  C   UNL     1       0.779  -2.188   1.530  0.00  0.00    +0.007 C 
ATOM      7  C   UNL     1       0.642  -0.710   1.232  0.00  0.00    -0.026 C 
ATOM      8  C   UNL     1       0.211   0.101   2.453  0.00  0.00    +0.012 C 
ATOM      9  C   UNL     1       1.638  -2.474   2.758  0.00  0.00    +0.038 C 
ATOM     10  C   UNL     1       2.031  -3.955   2.772  0.00  0.00    +0.146 C 
ATOM     11  C   UNL     1       0.788  -4.844   2.798  0.00  0.00    +0.177 C 
ATOM     12  C   UNL     1      -0.168  -4.453   1.671  0.00  0.00    +0.126 C 
ATOM     13  C   UNL     1      -1.232  -5.462   1.248  0.00  0.00    +0.199 C 
ATOM     14  O   UNL     1      -0.091  -5.163   0.439  0.00  0.00    -0.365 OA
ATOM     15  C   UNL     1      -1.329  -2.630   2.880  0.00  0.00    +0.014 C 
ENDROOT
BRANCH  11  16
ATOM     16  O   UNL     1       1.184  -6.210   2.629  0.00  0.00    -0.386 OA
ATOM     17  H   UNL     1       1.785  -6.534   3.315  0.00  0.00    +0.210 HD
ENDBRANCH  11  16
BRANCH  10  18
ATOM     18  O   UNL     1       2.812  -4.253   1.613  0.00  0.00    -0.389 OA
ATOM     19  H   UNL     1       3.630  -3.742   1.548  0.00  0.00    +0.210 HD
ENDBRANCH  10  18
BRANCH   7  20
ATOM     20  C   UNL     1       2.025  -0.174   0.789  0.00  0.00    +0.012 C 
BRANCH  20  21
ATOM     21  C   UNL     1       2.473  -0.903  -0.479  0.00  0.00    +0.038 C 
BRANCH  21  22
ATOM     22  C   UNL     1       3.819  -0.381  -0.910  0.00  0.00    +0.004 C 
ATOM     23  C   UNL     1       5.006  -0.909  -0.618  0.00  0.00    +0.097 C 
ATOM     24  C   UNL     1       6.056  -0.093  -1.233  0.00  0.00    +0.334 C 
ATOM     25  O   UNL     1       7.249  -0.312  -1.153  0.00  0.00    -0.246 OA
ATOM     26  O   UNL     1       5.502   0.936  -1.901  0.00  0.00    -0.428 OA
ATOM     27  C   UNL     1       4.081   0.839  -1.761  0.00  0.00    +0.337 C 
BRANCH  27  28
ATOM     28  O   UNL     1       3.574   2.007  -1.113  0.00  0.00    -0.354 OA
ATOM     29  H   UNL     1       3.712   2.825  -1.611  0.00  0.00    +0.214 HD
ENDBRANCH  27  28
ENDBRANCH  21  22
ENDBRANCH  20  21
ENDBRANCH   7  20
TORSDOF 6
