REMARK  Name = ZINC37176444
REMARK  12 active torsions:
REMARK  status: ('A' for Active; 'I' for Inactive)
REMARK    1  A    between atoms: C_1  and  C_2
REMARK    2  A    between atoms: C_2  and  C_34
REMARK    3  A    between atoms: N_9  and  C_33
REMARK    4  A    between atoms: C_11  and  C_12
REMARK    5  A    between atoms: C_12  and  C_14
REMARK    6  A    between atoms: C_14  and  N_15
REMARK    7  A    between atoms: N_15  and  C_16
REMARK    8  A    between atoms: N_15  and  C_27
REMARK    9  A    between atoms: C_16  and  C_17
REMARK   10  A    between atoms: C_20  and  C_23
REMARK   11  A    between atoms: N_25  and  C_26
REMARK   12  A    between atoms: C_27  and  C_28
REMARK                            x       y       z     vdW  Elec       q    Type
REMARK                         _______ _______ _______ _____ _____    ______ ____
ROOT
ATOM      1  N   UNL     1       2.316   0.860   6.196  0.00  0.00    +0.392 N 
ATOM      2  H   UNL     1       1.526   0.361   6.579  0.00  0.00    -0.080 HD
ENDROOT
BRANCH   1   3
ATOM      3  C   UNL     1       1.931   1.482   4.922  0.00  0.00    +0.003 C 
BRANCH   3   4
ATOM      4  C   UNL     1       1.378   0.429   3.996  0.00  0.00    +0.141 C 
ATOM      5  O   UNL     1       1.312  -0.728   4.362  0.00  0.00    -0.295 OA
BRANCH   4  16
ATOM      6  C   UNL     1      -0.509   1.244  -0.043  0.00  0.00    +0.022 C 
ATOM      7  C   UNL     1      -0.161  -0.111   0.577  0.00  0.00    +0.030 C 
ATOM      8  C   UNL     1      -1.316  -1.074   0.428  0.00  0.00    -0.015 A 
ATOM      9  C   UNL     1      -1.958  -1.597  -0.673  0.00  0.00    +0.006 A 
ATOM     10  C   UNL     1      -3.011  -2.479  -0.503  0.00  0.00    +0.000 A 
ATOM     11  C   UNL     1      -3.416  -2.831   0.771  0.00  0.00    +0.002 A 
ATOM     12  C   UNL     1      -2.775  -2.309   1.875  0.00  0.00    +0.024 A 
ATOM     13  C   UNL     1      -1.712  -1.420   1.713  0.00  0.00    +0.038 A 
ATOM     14  N   UNL     1      -0.920  -0.769   2.658  0.00  0.00    -0.305 N 
ATOM     15  C   UNL     1       0.019   0.022   2.074  0.00  0.00    +0.024 C 
ATOM     16  C   UNL     1       0.941   0.785   2.712  0.00  0.00    +0.064 C 
ATOM     17  C   UNL     1      -1.081  -0.920   4.106  0.00  0.00    +0.135 C 
ATOM     18  C   UNL     1       1.105  -0.683  -0.065  0.00  0.00    +0.022 C 
ENDBRANCH   4  16
ENDBRANCH   3   4
ENDBRANCH   1   3
BRANCH   1  19
ATOM     19  C   UNL     1       2.742   1.901   7.141  0.00  0.00    -0.042 C 
BRANCH  19  20
ATOM     20  C   UNL     1       1.558   2.756   7.514  0.00  0.00    -0.064 A 
ATOM     21  C   UNL     1       1.283   3.904   6.793  0.00  0.00    +0.002 A 
ATOM     22  C   UNL     1       0.201   4.691   7.130  0.00  0.00    +0.013 A 
ATOM     23  C   UNL     1      -0.618   4.326   8.199  0.00  0.00    +0.037 A 
ATOM     24  C   UNL     1      -0.335   3.166   8.922  0.00  0.00    +0.013 A 
ATOM     25  C   UNL     1       0.747   2.385   8.572  0.00  0.00    +0.002 A 
BRANCH  23  26
ATOM     26  C   UNL     1      -1.779   5.165   8.566  0.00  0.00    +0.244 C 
ATOM     27  O   UNL     1      -2.022   6.175   7.935  0.00  0.00    -0.270 OA
ATOM     28  N   UNL     1      -2.567   4.809   9.599  0.00  0.00    -0.314 N 
ATOM     29  C   UNL     1      -3.718   5.640   9.963  0.00  0.00    +0.128 C 
ATOM     30  H   UNL     1      -2.373   4.003  10.103  0.00  0.00    +0.149 HD
ENDBRANCH  23  26
ENDBRANCH  19  20
ENDBRANCH   1  19
BRANCH   1  31
ATOM     31  C   UNL     1       3.423  -0.077   5.968  0.00  0.00    -0.002 C 
BRANCH  31  32
ATOM     32  C   UNL     1       3.729  -0.815   7.247  0.00  0.00    +0.089 A 
ATOM     33  C   UNL     1       3.226  -2.010   7.605  0.00  0.00    +0.042 A 
ATOM     34  C   UNL     1       3.776  -2.323   8.869  0.00  0.00    +0.041 A 
ATOM     35  C   UNL     1       4.582  -1.301   9.208  0.00  0.00    +0.195 A 
ATOM     36  O   UNL     1       4.554  -0.393   8.219  0.00  0.00    -0.470 OA
ENDBRANCH  31  32
ENDBRANCH   1  31
TORSDOF 8
