REMARK  Name = ZINC22454317
REMARK  2 active torsions:
REMARK  status: ('A' for Active; 'I' for Inactive)
REMARK    1  A    between atoms: C_6  and  C_7
REMARK    2  A    between atoms: C_18  and  C_21
REMARK                            x       y       z     vdW  Elec       q    Type
REMARK                         _______ _______ _______ _____ _____    ______ ____
ROOT
ATOM      1  C   UNL     1       2.400   0.097  -0.020  0.00  0.00    +0.080 A 
ATOM      2  C   UNL     1       1.240  -0.664  -0.013  0.00  0.00    +0.098 A 
ATOM      3  C   UNL     1       0.002  -0.004   0.002  0.00  0.00    +0.253 A 
ATOM      4  O   UNL     1      -1.040  -0.639   0.008  0.00  0.00    -0.268 OA
ATOM      5  N   UNL     1      -0.016   1.345   0.009  0.00  0.00    -0.295 N 
ATOM      6  H   UNL     1      -0.976   1.882   0.021  0.00  0.00    +0.172 HD
ATOM      7  C   UNL     1       1.151   2.045   0.002  0.00  0.00    +0.199 A 
ATOM      8  N   UNL     1       2.317   1.435  -0.012  0.00  0.00    -0.216 NA
ATOM      9  N   UNL     1       1.111   3.414   0.009  0.00  0.00    -0.301 N 
ATOM     10  C   UNL     1       0.220   3.920  -1.042  0.00  0.00    +0.108 C 
ATOM     11  C   UNL     1       0.087   5.439  -0.912  0.00  0.00    +0.032 C 
ATOM     12  C   UNL     1       1.472   6.081  -1.038  0.00  0.00    +0.078 C 
ATOM     13  C   UNL     1       2.394   5.501   0.038  0.00  0.00    +0.032 C 
ATOM     14  C   UNL     1       2.460   3.980  -0.120  0.00  0.00    +0.108 C 
ENDROOT
BRANCH   1  20
ATOM     15  C   UNL     1       3.810  -1.958  -0.040  0.00  0.00    +0.013 A 
ATOM     16  C   UNL     1       5.045  -2.571  -0.061  0.00  0.00    +0.039 A 
ATOM     17  C   UNL     1       6.200  -1.806  -0.069  0.00  0.00    +0.123 A 
ATOM     18  C   UNL     1       6.121  -0.422  -0.060  0.00  0.00    +0.039 A 
ATOM     19  C   UNL     1       4.890   0.200  -0.044  0.00  0.00    +0.013 A 
ATOM     20  C   UNL     1       3.724  -0.566  -0.037  0.00  0.00    +0.001 A 
ATOM     21  F   UNL     1       7.409  -2.410  -0.084  0.00  0.00    -0.205 F 
ENDBRANCH   1  20
BRANCH  12  22
ATOM     22  C   UNL     1       1.356   7.572  -0.852  0.00  0.00    +0.214 C 
ATOM     23  O   UNL     1       1.952   8.118   0.052  0.00  0.00    -0.276 OA
ATOM     24  N   UNL     1       0.590   8.298  -1.690  0.00  0.00    -0.329 N 
ATOM     25  H   UNL     1       0.505   9.387  -1.554  0.00  0.00    +0.145 HD
ATOM     26  H   UNL     1       0.049   7.803  -2.509  0.00  0.00    +0.145 HD
ENDBRANCH  12  22
TORSDOF 2
