REMARK  Name = ZINC64166515
REMARK  10 active torsions:
REMARK  status: ('A' for Active; 'I' for Inactive)
REMARK    1  A    between atoms: C_1  and  O_2
REMARK    2  A    between atoms: O_2  and  C_3
REMARK    3  A    between atoms: C_3  and  C_4
REMARK    4  A    between atoms: C_4  and  N_5
REMARK    5  A    between atoms: C_6  and  C_8
REMARK    6  A    between atoms: C_11  and  S_26
REMARK    7  A    between atoms: N_14  and  C_15
REMARK    8  A    between atoms: C_15  and  C_16
REMARK    9  A    between atoms: C_21  and  C_22
REMARK   10  A    between atoms: S_26  and  C_27
REMARK                            x       y       z     vdW  Elec       q    Type
REMARK                         _______ _______ _______ _____ _____    ______ ____
ROOT
ATOM      1  C   UNL     1       1.748  -4.699  -1.574  0.00  0.00    +0.144 C 
ATOM      2  C   UNL     1       0.958  -4.402  -2.873  0.00  0.00    +0.044 C 
ATOM      3  C   UNL     1       1.663  -5.337  -3.890  0.00  0.00    +0.066 C 
ATOM      4  C   UNL     1       2.007  -6.578  -3.041  0.00  0.00    +0.099 C 
ATOM      5  N   UNL     1       2.038  -6.148  -1.629  0.00  0.00    -0.286 NA
ENDROOT
BRANCH   1   7
ATOM      6  N   UNL     1       0.507  -3.110  -0.142  0.00  0.00    -0.312 N 
ATOM      7  C   UNL     1       0.910  -4.377  -0.364  0.00  0.00    +0.230 C 
ATOM      8  O   UNL     1       0.599  -5.257   0.410  0.00  0.00    -0.274 OA
ATOM      9  H   UNL     1       0.756  -2.406  -0.761  0.00  0.00    +0.149 HD
BRANCH   6  10
ATOM     10  C   UNL     1      -0.308  -2.796   1.034  0.00  0.00    +0.132 C 
BRANCH  10  11
ATOM     11  C   UNL     1      -0.627  -1.300   1.049  0.00  0.00    +0.178 C 
BRANCH  11  13
ATOM     12  C   UNL     1      -1.804   0.405  -0.156  0.00  0.00    +0.194 C 
ATOM     13  O   UNL     1      -1.447  -0.976  -0.075  0.00  0.00    -0.381 OA
ENDBRANCH  11  13
ENDBRANCH  10  11
ENDBRANCH   6  10
ENDBRANCH   1   7
BRANCH   5  14
ATOM     14  C   UNL     1       3.336  -6.449  -1.012  0.00  0.00    +0.121 C 
BRANCH  14  15
ATOM     15  C   UNL     1       3.204  -6.395   0.489  0.00  0.00    -0.022 A 
ATOM     16  C   UNL     1       3.661  -5.291   1.184  0.00  0.00    +0.005 A 
ATOM     17  C   UNL     1       3.540  -5.241   2.559  0.00  0.00    +0.000 A 
ATOM     18  C   UNL     1       2.960  -6.295   3.241  0.00  0.00    +0.001 A 
ATOM     19  C   UNL     1       2.502  -7.399   2.546  0.00  0.00    +0.013 A 
ATOM     20  C   UNL     1       2.619  -7.447   1.169  0.00  0.00    +0.059 A 
BRANCH  20  21
ATOM     21  C   UNL     1       2.115  -8.648   0.411  0.00  0.00    +0.418 C 
ATOM     22  F   UNL     1       1.621  -9.595   1.314  0.00  0.00    -0.166 F 
ATOM     23  F   UNL     1       1.092  -8.254  -0.458  0.00  0.00    -0.166 F 
ATOM     24  F   UNL     1       3.163  -9.208  -0.326  0.00  0.00    -0.166 F 
ENDBRANCH  20  21
ENDBRANCH  14  15
ENDBRANCH   5  14
BRANCH   3  25
ATOM     25  S   UNL     1       0.539  -5.774  -5.246  0.00  0.00    -0.110 S 
BRANCH  25  26
ATOM     26  C   UNL     1       1.605  -6.623  -6.443  0.00  0.00    +0.236 C 
ATOM     27  N   UNL     1       2.167  -7.840  -5.843  0.00  0.00    -0.355 N 
ATOM     28  C   UNL     1       3.463  -7.714  -5.845  0.00  0.00    +0.061 A 
ATOM     29  C   UNL     1       4.552  -8.586  -5.385  0.00  0.00    +0.027 A 
ATOM     30  C   UNL     1       5.831  -8.181  -5.519  0.00  0.00    +0.002 A 
ATOM     31  C   UNL     1       6.178  -6.943  -6.090  0.00  0.00    +0.002 A 
ATOM     32  C   UNL     1       5.257  -6.069  -6.544  0.00  0.00    +0.027 A 
ATOM     33  C   UNL     1       3.830  -6.403  -6.448  0.00  0.00    +0.061 A 
ATOM     34  N   UNL     1       2.747  -5.770  -6.795  0.00  0.00    -0.355 N 
ATOM     35  H   UNL     1       1.665  -8.598  -5.506  0.00  0.00    +0.162 HD
ATOM     36  H   UNL     1       2.703  -4.895  -7.211  0.00  0.00    +0.162 HD
ENDBRANCH  25  26
ENDBRANCH   3  25
TORSDOF 9
