REMARK  Name = ZINC23038206
REMARK  10 active torsions:
REMARK  status: ('A' for Active; 'I' for Inactive)
REMARK    1  A    between atoms: C_1  and  C_2
REMARK    2  A    between atoms: C_2  and  C_3
REMARK    3  A    between atoms: C_3  and  C_27
REMARK    4  A    between atoms: N_6  and  N_10
REMARK    5  A    between atoms: C_11  and  C_13
REMARK    6  A    between atoms: C_13  and  N_14
REMARK    7  A    between atoms: N_14  and  C_15
REMARK    8  A    between atoms: N_14  and  C_16
REMARK    9  A    between atoms: C_16  and  C_17
REMARK   10  A    between atoms: N_19  and  C_20
REMARK                            x       y       z     vdW  Elec       q    Type
REMARK                         _______ _______ _______ _____ _____    ______ ____
ROOT
ATOM      1  N   UNL     1      -1.154  -0.701  -0.041  0.00  0.00    -0.225 N 
ATOM      2  C   UNL     1       0.003  -0.010  -0.038  0.00  0.00    +0.213 C 
ATOM      3  O   UNL     1       1.062  -0.601  -0.045  0.00  0.00    -0.276 OA
ATOM      4  H   UNL     1      -2.115  -0.165  -0.034  0.00  0.00    +0.173 HD
ENDROOT
BRANCH   1   8
ATOM      5  C   UNL     1      -1.265  -4.304   0.540  0.00  0.00    +0.139 C 
ATOM      6  C   UNL     1      -1.409  -2.872   1.018  0.00  0.00    +0.268 C 
ATOM      7  O   UNL     1      -1.708  -2.498   2.132  0.00  0.00    -0.271 OA
ATOM      8  N   UNL     1      -1.134  -2.102  -0.053  0.00  0.00    -0.137 N 
ATOM      9  C   UNL     1      -0.845  -2.839  -1.131  0.00  0.00    +0.327 C 
ATOM     10  O   UNL     1      -0.568  -2.369  -2.217  0.00  0.00    -0.251 OA
ATOM     11  N   UNL     1      -0.891  -4.160  -0.877  0.00  0.00    -0.280 N 
ATOM     12  H   UNL     1      -0.714  -5.054  -1.493  0.00  0.00    +0.152 HD
BRANCH   5  13
ATOM     13  C   UNL     1      -2.572  -5.041   0.675  0.00  0.00    -0.015 A 
ATOM     14  C   UNL     1      -2.858  -5.735   1.836  0.00  0.00    +0.006 A 
ATOM     15  C   UNL     1      -4.060  -6.407   1.961  0.00  0.00    +0.000 A 
ATOM     16  C   UNL     1      -4.971  -6.394   0.921  0.00  0.00    +0.000 A 
ATOM     17  C   UNL     1      -4.682  -5.705  -0.242  0.00  0.00    +0.000 A 
ATOM     18  C   UNL     1      -3.483  -5.028  -0.365  0.00  0.00    +0.006 A 
ENDBRANCH   5  13
BRANCH   5  20
ATOM     19  C   UNL     1       1.165  -4.284   1.122  0.00  0.00    +0.007 C 
ATOM     20  C   UNL     1      -0.161  -5.022   1.318  0.00  0.00    +0.037 C 
ENDBRANCH   5  20
ENDBRANCH   1   8
BRANCH   2  21
ATOM     21  C   UNL     1      -0.019   1.497  -0.024  0.00  0.00    +0.020 C 
BRANCH  21  22
ATOM     22  N   UNL     1       1.358   2.007  -0.023  0.00  0.00    +0.389 N 
ATOM     23  C   UNL     1       2.048   1.657   1.225  0.00  0.00    -0.095 C 
ATOM     24  H   UNL     1       1.897   1.527  -0.853  0.00  0.00    -0.081 HD
BRANCH  22  25
ATOM     25  C   UNL     1       1.383   3.458  -0.249  0.00  0.00    +0.019 C 
BRANCH  25  26
ATOM     26  C   UNL     1       2.802   3.906  -0.486  0.00  0.00    +0.201 C 
ATOM     27  O   UNL     1       3.704   3.096  -0.468  0.00  0.00    -0.278 OA
ATOM     28  N   UNL     1       3.068   5.207  -0.717  0.00  0.00    -0.286 N 
ATOM     29  H   UNL     1       2.244   5.930  -0.805  0.00  0.00    +0.155 HD
BRANCH  28  30
ATOM     30  C   UNL     1       4.394   5.638  -0.844  0.00  0.00    +0.052 A 
ATOM     31  C   UNL     1       5.340   4.813  -1.436  0.00  0.00    +0.025 A 
ATOM     32  C   UNL     1       6.646   5.243  -1.565  0.00  0.00    +0.002 A 
ATOM     33  C   UNL     1       7.015   6.490  -1.094  0.00  0.00    +0.002 A 
ATOM     34  C   UNL     1       6.077   7.313  -0.498  0.00  0.00    +0.022 A 
ATOM     35  C   UNL     1       4.767   6.891  -0.371  0.00  0.00    +0.062 A 
ATOM     36 CL   UNL     1       3.590   7.923   0.378  0.00  0.00    -0.082 Cl
ENDBRANCH  28  30
ENDBRANCH  25  26
ENDBRANCH  22  25
ENDBRANCH  21  22
ENDBRANCH   2  21
TORSDOF 8
