REMARK  Name = ZINC40947428
REMARK  11 active torsions:
REMARK  status: ('A' for Active; 'I' for Inactive)
REMARK    1  A    between atoms: C_1  and  C_2
REMARK    2  A    between atoms: C_5  and  C_9
REMARK    3  A    between atoms: C_7  and  C_8
REMARK    4  A    between atoms: C_10  and  C_37
REMARK    5  A    between atoms: C_12  and  N_18
REMARK    6  A    between atoms: C_13  and  C_14
REMARK    7  A    between atoms: C_14  and  O_16
REMARK    8  A    between atoms: O_16  and  C_17
REMARK    9  A    between atoms: C_19  and  C_21
REMARK   10  A    between atoms: C_21  and  O_22
REMARK   11  A    between atoms: O_22  and  C_23
REMARK                            x       y       z     vdW  Elec       q    Type
REMARK                         _______ _______ _______ _____ _____    ______ ____
ROOT
ATOM      1  N   UNL     1       1.997  -7.334  -0.925  0.00  0.00    -0.277 N 
ATOM      2  C   UNL     1       1.729  -8.648  -0.799  0.00  0.00    +0.255 C 
ATOM      3  O   UNL     1       0.679  -9.009  -0.309  0.00  0.00    -0.272 OA
ATOM      4  H   UNL     1       2.837  -7.045  -1.316  0.00  0.00    +0.155 HD
ENDROOT
BRANCH   1   8
ATOM      5  C   UNL     1       0.060  -4.255  -0.021  0.00  0.00    +0.008 A 
ATOM      6  C   UNL     1      -0.971  -4.997   0.460  0.00  0.00    -0.003 A 
ATOM      7  S   UNL     1      -0.424  -6.670   0.205  0.00  0.00    -0.077 S 
ATOM      8  C   UNL     1       1.075  -6.394  -0.494  0.00  0.00    +0.087 A 
ATOM      9  C   UNL     1       1.180  -5.013  -0.550  0.00  0.00    +0.095 A 
ATOM     10  C   UNL     1      -2.265  -4.518   1.065  0.00  0.00    +0.052 C 
BRANCH   5  15
ATOM     11  C   UNL     1      -0.018   1.503   0.010  0.00  0.00    +0.044 C 
ATOM     12  C   UNL     1       0.002  -0.004   0.002  0.00  0.00    -0.048 A 
ATOM     13  C   UNL     1       0.006  -0.686  -1.202  0.00  0.00    +0.004 A 
ATOM     14  C   UNL     1       0.024  -2.066  -1.215  0.00  0.00    +0.009 A 
ATOM     15  C   UNL     1       0.040  -2.772  -0.013  0.00  0.00    -0.016 A 
ATOM     16  C   UNL     1       0.037  -2.079   1.196  0.00  0.00    +0.012 A 
ATOM     17  C   UNL     1       0.023  -0.699   1.198  0.00  0.00    -0.047 A 
ATOM     18  C   UNL     1       0.025   0.052   2.504  0.00  0.00    +0.044 C 
ENDBRANCH   5  15
BRANCH   9  19
ATOM     19  C   UNL     1       2.360  -4.353  -1.109  0.00  0.00    +0.342 C 
ATOM     20  O   UNL     1       3.301  -4.078  -0.389  0.00  0.00    -0.245 OA
BRANCH  19  21
ATOM     21  O   UNL     1       2.405  -4.050  -2.422  0.00  0.00    -0.464 OA
ATOM     22  C   UNL     1       3.588  -3.406  -2.900  0.00  0.00    +0.280 C 
ENDBRANCH  19  21
ENDBRANCH   9  19
ENDBRANCH   1   8
BRANCH   2  23
ATOM     23  C   UNL     1       2.732  -9.671  -1.267  0.00  0.00    +0.324 C 
BRANCH  23  24
ATOM     24  O   UNL     1       2.221 -10.984  -1.028  0.00  0.00    -0.483 OA
BRANCH  24  25
ATOM     25  C   UNL     1       3.008 -12.027  -1.394  0.00  0.00    +0.125 A 
ATOM     26  C   UNL     1       4.255 -11.785  -1.969  0.00  0.00    +0.046 A 
ATOM     27  C   UNL     1       5.057 -12.823  -2.343  0.00  0.00    +0.015 A 
ATOM     28  C   UNL     1       4.626 -14.140  -2.148  0.00  0.00    +0.021 A 
ATOM     29  C   UNL     1       3.369 -14.391  -1.569  0.00  0.00    +0.143 A 
ATOM     30  C   UNL     1       2.568 -13.325  -1.189  0.00  0.00    +0.092 A 
ATOM     31  O   UNL     1       2.959 -15.664  -1.384  0.00  0.00    -0.422 OA
ATOM     32  C   UNL     1       3.721 -16.706  -1.748  0.00  0.00    +0.341 A 
ATOM     33  O   UNL     1       3.303 -17.836  -1.569  0.00  0.00    -0.245 OA
ATOM     34  C   UNL     1       4.995 -16.529  -2.333  0.00  0.00    +0.041 A 
ATOM     35  C   UNL     1       5.467 -15.274  -2.541  0.00  0.00    -0.027 A 
ATOM     36  C   UNL     1       6.840 -15.325  -3.170  0.00  0.00    +0.036 C 
ATOM     37  C   UNL     1       7.336 -16.768  -2.931  0.00  0.00    +0.010 C 
ATOM     38  C   UNL     1       6.009 -17.548  -2.808  0.00  0.00    +0.043 C 
ENDBRANCH  24  25
ENDBRANCH  23  24
ENDBRANCH   2  23
TORSDOF 7
