REMARK  Name = ZINC01294393
REMARK  10 active torsions:
REMARK  status: ('A' for Active; 'I' for Inactive)
REMARK    1  A    between atoms: C_1  and  C_2
REMARK    2  A    between atoms: C_2  and  C_4
REMARK    3  A    between atoms: C_2  and  N_11
REMARK    4  A    between atoms: C_4  and  C_5
REMARK    5  A    between atoms: C_12  and  C_14
REMARK    6  A    between atoms: C_14  and  S_15
REMARK    7  A    between atoms: S_15  and  C_16
REMARK    8  A    between atoms: C_28  and  C_30
REMARK    9  A    between atoms: C_28  and  C_31
REMARK   10  A    between atoms: N_34  and  C_35
REMARK                            x       y       z     vdW  Elec       q    Type
REMARK                         _______ _______ _______ _____ _____    ______ ____
ROOT
ATOM      1  C   UNL     1       5.824  -0.398   4.007  0.00  0.00    +0.198 A 
ATOM      2  N   UNL     1       5.323  -0.341   5.217  0.00  0.00    -0.120 NA
ATOM      3  N   UNL     1       6.062  -1.206   6.034  0.00  0.00    -0.109 NA
ATOM      4  C   UNL     1       6.993  -1.765   5.297  0.00  0.00    +0.245 A 
ATOM      5  N   UNL     1       6.868  -1.285   4.020  0.00  0.00    -0.249 N 
ATOM      6  C   UNL     1       7.724  -1.715   3.028  0.00  0.00    +0.102 A 
ATOM      7  C   UNL     1       8.730  -2.641   3.282  0.00  0.00    +0.075 A 
ATOM      8  C   UNL     1       9.556  -3.000   2.132  0.00  0.00    -0.018 A 
ATOM      9  C   UNL     1       9.227  -2.381   0.978  0.00  0.00    +0.021 A 
ATOM     10  S   UNL     1       7.858  -1.348   1.401  0.00  0.00    -0.072 S 
ATOM     11  C   UNL     1       9.908  -2.564  -0.343  0.00  0.00    +0.203 C 
ATOM     12  O   UNL     1      11.149  -3.248  -0.105  0.00  0.00    -0.368 OA
ATOM     13  C   UNL     1      11.018  -4.406   0.724  0.00  0.00    +0.068 C 
ATOM     14  C   UNL     1      10.711  -3.991   2.167  0.00  0.00    +0.071 C 
ATOM     15  C   UNL     1      12.325  -5.202   0.692  0.00  0.00    +0.041 C 
ATOM     16  C   UNL     1       9.881  -5.283   0.195  0.00  0.00    +0.041 C 
ATOM     17  C   UNL     1       8.833  -3.139   4.672  0.00  0.00    +0.268 A 
ATOM     18  O   UNL     1       9.690  -3.951   4.969  0.00  0.00    -0.266 OA
ATOM     19  N   UNL     1       7.982  -2.686   5.607  0.00  0.00    -0.245 N 
ENDROOT
BRANCH  19  20
ATOM     20  C   UNL     1       8.085  -3.164   6.919  0.00  0.00    +0.053 A 
ATOM     21  C   UNL     1       8.893  -2.507   7.838  0.00  0.00    +0.026 A 
ATOM     22  C   UNL     1       8.993  -2.982   9.131  0.00  0.00    +0.002 A 
ATOM     23  C   UNL     1       8.290  -4.110   9.511  0.00  0.00    +0.000 A 
ATOM     24  C   UNL     1       7.484  -4.767   8.599  0.00  0.00    +0.002 A 
ATOM     25  C   UNL     1       7.376  -4.294   7.305  0.00  0.00    +0.026 A 
ENDBRANCH  19  20
BRANCH   1  26
ATOM     26  S   UNL     1       5.250   0.504   2.606  0.00  0.00    -0.076 S 
BRANCH  26  27
ATOM     27  C   UNL     1       3.865   1.483   3.251  0.00  0.00    +0.173 C 
BRANCH  27  29
ATOM     28  N   UNL     1       2.228   3.124   2.388  0.00  0.00    -0.312 N 
ATOM     29  C   UNL     1       3.275   2.312   2.140  0.00  0.00    +0.224 C 
ATOM     30  O   UNL     1       3.743   2.249   1.023  0.00  0.00    -0.275 OA
ATOM     31  H   UNL     1       1.855   3.174   3.282  0.00  0.00    +0.149 HD
BRANCH  28  33
ATOM     32  C   UNL     1       2.444   5.233   1.169  0.00  0.00    +0.028 C 
ATOM     33  C   UNL     1       1.655   3.930   1.307  0.00  0.00    +0.074 C 
BRANCH  33  34
ATOM     34  C   UNL     1       0.194   4.250   1.631  0.00  0.00    +0.057 C 
BRANCH  34  35
ATOM     35  C   UNL     1      -0.609   2.975   1.646  0.00  0.00    -0.046 A 
ATOM     36  C   UNL     1      -1.202   2.518   0.484  0.00  0.00    +0.004 A 
ATOM     37  C   UNL     1      -1.938   1.348   0.498  0.00  0.00    +0.000 A 
ATOM     38  C   UNL     1      -2.081   0.635   1.674  0.00  0.00    +0.000 A 
ATOM     39  C   UNL     1      -1.487   1.092   2.835  0.00  0.00    +0.000 A 
ATOM     40  C   UNL     1      -0.747   2.260   2.821  0.00  0.00    +0.004 A 
ENDBRANCH  34  35
ENDBRANCH  33  34
ENDBRANCH  28  33
ENDBRANCH  27  29
ENDBRANCH  26  27
ENDBRANCH   1  26
TORSDOF 7
