REMARK  Name = ZINC63426727
REMARK  11 active torsions:
REMARK  status: ('A' for Active; 'I' for Inactive)
REMARK    1  A    between atoms: C_1  and  C_2
REMARK    2  A    between atoms: C_2  and  C_3
REMARK    3  A    between atoms: C_3  and  N_20
REMARK    4  A    between atoms: N_10  and  C_13
REMARK    5  A    between atoms: C_16  and  C_19
REMARK    6  A    between atoms: N_20  and  C_21
REMARK    7  A    between atoms: C_21  and  C_23
REMARK    8  A    between atoms: C_21  and  C_33
REMARK    9  A    between atoms: C_23  and  C_24
REMARK   10  A    between atoms: C_33  and  O_35
REMARK   11  A    between atoms: O_35  and  C_36
REMARK                            x       y       z     vdW  Elec       q    Type
REMARK                         _______ _______ _______ _____ _____    ______ ____
ROOT
ATOM      1  C   UNL     1       0.791  -0.035   1.813  0.00  0.00    +0.022 C 
ATOM      2  C   UNL     1       0.080  -0.789   2.727  0.00  0.00    +0.116 C 
ATOM      3  C   UNL     1       0.753  -1.734   3.635  0.00  0.00    +0.258 C 
ATOM      4  O   UNL     1       1.961  -1.878   3.604  0.00  0.00    -0.270 OA
ATOM      5  N   UNL     1      -0.005  -2.436   4.502  0.00  0.00    -0.235 N 
ATOM      6  C   UNL     1      -1.337  -2.288   4.547  0.00  0.00    +0.320 C 
ATOM      7  O   UNL     1      -1.963  -2.950   5.351  0.00  0.00    -0.251 OA
ATOM      8  N   UNL     1      -2.014  -1.447   3.752  0.00  0.00    -0.190 N 
ATOM      9  C   UNL     1      -1.385  -0.677   2.841  0.00  0.00    +0.265 C 
ATOM     10  O   UNL     1      -2.011   0.086   2.129  0.00  0.00    -0.269 OA
ATOM     11  H   UNL     1       0.422  -3.063   5.106  0.00  0.00    +0.159 HD
ENDROOT
BRANCH   8  12
ATOM     12  C   UNL     1      -3.408  -1.363   3.875  0.00  0.00    +0.046 A 
ATOM     13  C   UNL     1      -4.227  -1.914   2.899  0.00  0.00    +0.024 A 
ATOM     14  C   UNL     1      -5.600  -1.830   3.023  0.00  0.00    +0.005 A 
ATOM     15  C   UNL     1      -6.159  -1.198   4.118  0.00  0.00    -0.050 A 
ATOM     16  C   UNL     1      -5.346  -0.648   5.092  0.00  0.00    +0.005 A 
ATOM     17  C   UNL     1      -3.973  -0.734   4.976  0.00  0.00    +0.024 A 
ATOM     18  C   UNL     1      -7.658  -1.107   4.250  0.00  0.00    +0.044 C 
ENDBRANCH   8  12
BRANCH   1  20
ATOM     19  C   UNL     1      -0.236   2.182   1.387  0.00  0.00    +0.010 C 
ATOM     20  C   UNL     1       0.061   0.802   0.795  0.00  0.00    +0.048 C 
ENDBRANCH   1  20
BRANCH   1  21
ATOM     21  N   UNL     1       2.139  -0.049   1.831  0.00  0.00    -0.334 N 
ATOM     22  H   UNL     1       2.610  -0.518   2.538  0.00  0.00    +0.147 HD
BRANCH  21  23
ATOM     23  C   UNL     1       2.894   0.645   0.785  0.00  0.00    +0.184 C 
BRANCH  23  24
ATOM     24  C   UNL     1       3.045  -0.261  -0.410  0.00  0.00    +0.328 C 
ATOM     25  O   UNL     1       2.572  -1.373  -0.389  0.00  0.00    -0.249 OA
BRANCH  24  26
ATOM     26  O   UNL     1       3.706   0.166  -1.497  0.00  0.00    -0.467 OA
ATOM     27  C   UNL     1       3.812  -0.746  -2.592  0.00  0.00    +0.280 C 
ENDBRANCH  24  26
ENDBRANCH  23  24
BRANCH  23  28
ATOM     28  C   UNL     1       4.277   1.022   1.318  0.00  0.00    +0.066 C 
BRANCH  28  29
ATOM     29  C   UNL     1       4.130   2.024   2.434  0.00  0.00    -0.039 C 
ATOM     30  C   UNL     1       4.093   1.764   3.760  0.00  0.00    -0.001 A 
ATOM     31  C   UNL     1       4.175   0.518   4.532  0.00  0.00    +0.010 A 
ATOM     32  C   UNL     1       4.106   0.577   5.882  0.00  0.00    +0.001 A 
ATOM     33  C   UNL     1       3.959   1.794   6.560  0.00  0.00    +0.002 A 
ATOM     34  C   UNL     1       3.877   2.980   5.920  0.00  0.00    +0.026 A 
ATOM     35  C   UNL     1       3.938   3.037   4.500  0.00  0.00    +0.043 A 
ATOM     36  N   UNL     1       3.881   4.044   3.664  0.00  0.00    -0.380 N 
ATOM     37  C   UNL     1       4.000   3.525   2.297  0.00  0.00    +0.144 C 
ATOM     38  H   UNL     1       3.782   4.978   3.908  0.00  0.00    +0.160 HD
ENDBRANCH  28  29
ENDBRANCH  23  28
ENDBRANCH  21  23
ENDBRANCH   1  21
TORSDOF 8
