REMARK  Name = ZINC42798315
REMARK  4 active torsions:
REMARK  status: ('A' for Active; 'I' for Inactive)
REMARK    1  A    between atoms: C_1  and  C_2
REMARK    2  A    between atoms: C_7  and  C_8
REMARK    3  A    between atoms: C_8  and  C_10
REMARK    4  A    between atoms: C_8  and  N_11
REMARK                            x       y       z     vdW  Elec       q    Type
REMARK                         _______ _______ _______ _____ _____    ______ ____
ROOT
ATOM      1  N   UNL     1      -0.534  -0.808   3.556  0.00  0.00    -0.293 N 
ATOM      2  C   UNL     1      -1.190  -0.255   4.595  0.00  0.00    +0.303 C 
ATOM      3  O   UNL     1      -1.395   0.944   4.616  0.00  0.00    -0.253 OA
ATOM      4  N   UNL     1      -1.619  -1.030   5.611  0.00  0.00    -0.285 N 
ATOM      5  C   UNL     1      -2.240  -0.430   6.800  0.00  0.00    +0.114 C 
ATOM      6  C   UNL     1      -1.498  -0.925   8.046  0.00  0.00    +0.084 C 
ATOM      7  C   UNL     1      -1.476  -2.454   8.048  0.00  0.00    +0.173 C 
ATOM      8  C   UNL     1      -0.741  -2.966   6.808  0.00  0.00    +0.084 C 
ATOM      9  C   UNL     1      -1.480  -2.491   5.547  0.00  0.00    +0.114 C 
ATOM     10  O   UNL     1      -0.812  -2.924   9.228  0.00  0.00    -0.346 OA
ATOM     11  C   UNL     1      -1.756  -3.733   9.957  0.00  0.00    +0.191 C 
ATOM     12  C   UNL     1      -2.781  -4.141   8.869  0.00  0.00    +0.191 C 
ATOM     13  O   UNL     1      -2.824  -2.952   8.044  0.00  0.00    -0.346 OA
ATOM     14  H   UNL     1      -0.438  -1.772   3.500  0.00  0.00    +0.151 HD
ENDROOT
BRANCH   1  15
ATOM     15  C   UNL     1       0.035   0.046   2.510  0.00  0.00    +0.102 C 
ATOM     16  C   UNL     1       1.466   0.434   2.891  0.00  0.00    +0.033 C 
BRANCH  15  23
ATOM     17  C   UNL     1      -0.053   1.498   0.014  0.00  0.00    +0.044 C 
ATOM     18  C   UNL     1       0.006  -0.007   0.008  0.00  0.00    -0.046 A 
ATOM     19  C   UNL     1       0.024  -0.694  -1.192  0.00  0.00    +0.004 A 
ATOM     20  C   UNL     1       0.079  -2.075  -1.197  0.00  0.00    +0.000 A 
ATOM     21  C   UNL     1       0.116  -2.770  -0.003  0.00  0.00    +0.000 A 
ATOM     22  C   UNL     1       0.099  -2.084   1.197  0.00  0.00    +0.006 A 
ATOM     23  C   UNL     1       0.049  -0.702   1.202  0.00  0.00    -0.025 A 
ENDBRANCH  15  23
ENDBRANCH   1  15
TORSDOF 2
