REMARK  Name = ZINC40826395
REMARK  9 active torsions:
REMARK  status: ('A' for Active; 'I' for Inactive)
REMARK    1  A    between atoms: C_1  and  C_2
REMARK    2  A    between atoms: C_6  and  C_7
REMARK    3  A    between atoms: N_9  and  C_10
REMARK    4  A    between atoms: C_13  and  C_16
REMARK    5  A    between atoms: C_16  and  C_17
REMARK    6  A    between atoms: C_16  and  C_18
REMARK    7  A    between atoms: N_23  and  N_24
REMARK    8  A    between atoms: C_25  and  C_27
REMARK    9  A    between atoms: C_32  and  O_33
REMARK                            x       y       z     vdW  Elec       q    Type
REMARK                         _______ _______ _______ _____ _____    ______ ____
ROOT
ATOM      1  C   UNL     1      -0.014   1.502   0.010  0.00  0.00    +0.048 C 
ATOM      2  C   UNL     1      -0.004  -0.005   0.002  0.00  0.00    +0.009 A 
ATOM      3  C   UNL     1      -0.007  -0.839  -1.123  0.00  0.00    +0.042 A 
ATOM      4  C   UNL     1       0.005  -2.138  -0.672  0.00  0.00    +0.115 A 
ATOM      5  O   UNL     1       0.019  -2.112   0.658  0.00  0.00    -0.454 OA
ATOM      6  C   UNL     1       0.018  -0.831   1.091  0.00  0.00    +0.193 A 
ATOM      7  C   UNL     1       0.000  -3.328  -1.599  0.00  0.00    +0.075 C 
ATOM      8  C   UNL     1      -0.527  -2.901  -2.971  0.00  0.00    +0.014 C 
ATOM      9  C   UNL     1       0.249  -1.688  -3.495  0.00  0.00    +0.058 C 
ATOM     10  C   UNL     1      -0.019  -0.513  -2.566  0.00  0.00    +0.070 C 
ATOM     11  N   UNL     1      -0.241   0.687  -3.007  0.00  0.00    -0.184 NA
ENDROOT
BRANCH   6  12
ATOM     12  C   UNL     1       0.034  -0.400   2.493  0.00  0.00    +0.284 C 
ATOM     13  O   UNL     1       0.029   0.786   2.765  0.00  0.00    -0.266 OA
ATOM     14  N   UNL     1       0.054  -1.318   3.480  0.00  0.00    -0.279 N 
ATOM     15  H   UNL     1      -0.010  -2.261   3.266  0.00  0.00    +0.155 HD
BRANCH  14  16
ATOM     16  C   UNL     1       0.167  -0.909   4.812  0.00  0.00    +0.034 A 
ATOM     17  C   UNL     1       0.888  -1.677   5.718  0.00  0.00    +0.023 A 
ATOM     18  C   UNL     1       0.998  -1.271   7.033  0.00  0.00    +0.006 A 
ATOM     19  C   UNL     1       0.391  -0.100   7.449  0.00  0.00    -0.045 A 
ATOM     20  C   UNL     1      -0.328   0.667   6.551  0.00  0.00    +0.006 A 
ATOM     21  C   UNL     1      -0.437   0.269   5.233  0.00  0.00    +0.023 A 
BRANCH  19  22
ATOM     22  C   UNL     1       0.512   0.341   8.885  0.00  0.00    +0.013 C 
ATOM     23  C   UNL     1       1.191   1.710   8.943  0.00  0.00    +0.012 C 
ATOM     24  C   UNL     1      -0.881   0.435   9.509  0.00  0.00    +0.012 C 
ENDBRANCH  19  22
ENDBRANCH  14  16
ENDBRANCH   6  12
BRANCH  11  25
ATOM     25  N   UNL     1      -0.241   0.938  -4.385  0.00  0.00    -0.203 N 
ATOM     26  C   UNL     1      -0.472   2.184  -4.843  0.00  0.00    +0.267 C 
ATOM     27  O   UNL     1      -0.681   3.091  -4.060  0.00  0.00    -0.268 OA
ATOM     28  H   UNL     1      -0.074   0.214  -5.010  0.00  0.00    +0.178 HD
BRANCH  26  29
ATOM     29  C   UNL     1      -0.471   2.448  -6.294  0.00  0.00    +0.080 A 
ATOM     30  C   UNL     1      -0.237   1.409  -7.198  0.00  0.00    +0.017 A 
ATOM     31  C   UNL     1      -0.237   1.662  -8.552  0.00  0.00    +0.001 A 
ATOM     32  C   UNL     1      -0.469   2.944  -9.023  0.00  0.00    +0.004 A 
ATOM     33  C   UNL     1      -0.702   3.981  -8.142  0.00  0.00    +0.046 A 
ATOM     34  C   UNL     1      -0.711   3.743  -6.775  0.00  0.00    +0.129 A 
BRANCH  34  35
ATOM     35  O   UNL     1      -0.946   4.759  -5.908  0.00  0.00    -0.506 OA
ATOM     36  H   UNL     1      -0.148   5.226  -5.624  0.00  0.00    +0.292 HD
ENDBRANCH  34  35
ENDBRANCH  26  29
ENDBRANCH  11  25
TORSDOF 6
