REMARK  Name = ZINC35621615
REMARK  11 active torsions:
REMARK  status: ('A' for Active; 'I' for Inactive)
REMARK    1  A    between atoms: C_1  and  C_2
REMARK    2  A    between atoms: C_2  and  N_3
REMARK    3  A    between atoms: N_6  and  C_9
REMARK    4  A    between atoms: C_10  and  C_23
REMARK    5  A    between atoms: N_13  and  C_16
REMARK    6  A    between atoms: C_16  and  C_17
REMARK    7  A    between atoms: C_24  and  C_36
REMARK    8  A    between atoms: N_26  and  C_29
REMARK    9  A    between atoms: C_27  and  O_28
REMARK   10  A    between atoms: C_36  and  O_37
REMARK   11  A    between atoms: O_37  and  C_38
REMARK                            x       y       z     vdW  Elec       q    Type
REMARK                         _______ _______ _______ _____ _____    ______ ____
ROOT
ATOM      1  C   UNL     1      -4.407  -2.863   1.501  0.00  0.00    +0.106 C 
ATOM      2  C   UNL     1      -4.648  -4.176   1.196  0.00  0.00    +0.077 C 
ATOM      3  C   UNL     1      -5.535  -4.695   2.259  0.00  0.00    +0.256 C 
ATOM      4  O   UNL     1      -5.967  -5.827   2.332  0.00  0.00    -0.269 OA
ATOM      5  N   UNL     1      -5.781  -3.702   3.131  0.00  0.00    -0.231 N 
ATOM      6  C   UNL     1      -5.139  -2.583   2.751  0.00  0.00    +0.268 C 
ATOM      7  O   UNL     1      -5.162  -1.519   3.337  0.00  0.00    -0.268 OA
ENDROOT
BRANCH   1  11
ATOM      8  N   UNL     1      -1.954   0.199   0.263  0.00  0.00    -0.300 NA
ATOM      9  C   UNL     1      -3.359   0.446   0.614  0.00  0.00    +0.103 C 
ATOM     10  C   UNL     1      -4.207  -0.758   0.190  0.00  0.00    +0.120 C 
ATOM     11  N   UNL     1      -3.622  -1.972   0.780  0.00  0.00    -0.323 N 
ATOM     12  C   UNL     1      -2.185  -2.218   0.587  0.00  0.00    +0.120 C 
ATOM     13  C   UNL     1      -1.417  -0.956   0.995  0.00  0.00    +0.103 C 
BRANCH   8  15
ATOM     14  C   UNL     1      -1.569   2.505  -0.466  0.00  0.00    +0.020 C 
ATOM     15  C   UNL     1      -1.135   1.396   0.495  0.00  0.00    +0.081 C 
ENDBRANCH   8  15
ENDBRANCH   1  11
BRANCH   2  16
ATOM     16  C   UNL     1      -4.125  -4.925   0.035  0.00  0.00    +0.076 A 
ATOM     17  C   UNL     1      -4.735  -5.036  -1.233  0.00  0.00    +0.101 A 
ATOM     18  N   UNL     1      -3.974  -5.777  -1.992  0.00  0.00    -0.165 NA
ATOM     19  N   UNL     1      -2.849  -6.175  -1.262  0.00  0.00    -0.200 N 
ATOM     20  C   UNL     1      -2.941  -5.645  -0.015  0.00  0.00    +0.224 A 
BRANCH  19  21
ATOM     21  C   UNL     1      -1.804  -6.979  -1.738  0.00  0.00    +0.069 A 
ATOM     22  C   UNL     1      -0.503  -6.757  -1.305  0.00  0.00    +0.029 A 
ATOM     23  C   UNL     1       0.525  -7.551  -1.775  0.00  0.00    +0.022 A 
ATOM     24  C   UNL     1       0.260  -8.567  -2.676  0.00  0.00    +0.041 A 
ATOM     25  C   UNL     1      -1.036  -8.791  -3.108  0.00  0.00    +0.022 A 
ATOM     26  C   UNL     1      -2.068  -8.003  -2.637  0.00  0.00    +0.029 A 
ATOM     27 CL   UNL     1       1.554  -9.563  -3.264  0.00  0.00    -0.084 Cl
ENDBRANCH  19  21
BRANCH  20  28
ATOM     28  O   UNL     1      -2.045  -5.794   0.992  0.00  0.00    -0.492 OA
ATOM     29  H   UNL     1      -2.213  -6.560   1.557  0.00  0.00    +0.294 HD
ENDBRANCH  20  28
BRANCH  17  30
ATOM     30  C   UNL     1      -6.043  -4.408  -1.641  0.00  0.00    +0.217 C 
BRANCH  30  31
ATOM     31  O   UNL     1      -5.798  -3.109  -2.184  0.00  0.00    -0.377 OA
ATOM     32  C   UNL     1      -6.979  -2.423  -2.604  0.00  0.00    +0.194 C 
ENDBRANCH  30  31
ENDBRANCH  17  30
ENDBRANCH   2  16
BRANCH   5  33
ATOM     33  C   UNL     1      -6.621  -3.823   4.325  0.00  0.00    +0.148 C 
BRANCH  33  34
ATOM     34  C   UNL     1      -5.760  -4.256   5.513  0.00  0.00    +0.136 C 
ATOM     35  C   UNL     1      -6.637  -4.424   6.780  0.00  0.00    +0.035 C 
ATOM     36  C   UNL     1      -5.782  -5.429   7.599  0.00  0.00    +0.031 C 
ATOM     37  C   UNL     1      -5.155  -6.305   6.492  0.00  0.00    +0.160 C 
ATOM     38  O   UNL     1      -5.194  -5.554   5.271  0.00  0.00    -0.375 OA
ENDBRANCH  33  34
ENDBRANCH   5  33
TORSDOF 9
