REMARK  Name = ZINC18142928
REMARK  9 active torsions:
REMARK  status: ('A' for Active; 'I' for Inactive)
REMARK    1  A    between atoms: C_1  and  C_2
REMARK    2  A    between atoms: C_2  and  C_3
REMARK    3  A    between atoms: C_3  and  C_4
REMARK    4  A    between atoms: C_4  and  C_5
REMARK    5  A    between atoms: C_5  and  C_6
REMARK    6  A    between atoms: C_18  and  C_20
REMARK    7  A    between atoms: C_24  and  O_26
REMARK    8  A    between atoms: O_26  and  C_27
REMARK    9  A    between atoms: C_31  and  C_34
REMARK                            x       y       z     vdW  Elec       q    Type
REMARK                         _______ _______ _______ _____ _____    ______ ____
ROOT
ATOM      1  C   UNL     1       4.069   1.205   1.803  0.00  0.00    +0.221 C 
ATOM      2  O   UNL     1       3.824   0.049   2.074  0.00  0.00    -0.275 OA
ATOM      3  N   UNL     1       3.446   1.800   0.766  0.00  0.00    -0.258 N 
ATOM      4  C   UNL     1       3.736   3.132   0.465  0.00  0.00    +0.058 A 
ATOM      5  C   UNL     1       3.421   4.158   1.341  0.00  0.00    +0.025 A 
ATOM      6  C   UNL     1       3.685   5.467   0.980  0.00  0.00    +0.002 A 
ATOM      7  C   UNL     1       4.257   5.753  -0.247  0.00  0.00    +0.002 A 
ATOM      8  C   UNL     1       4.588   4.729  -1.118  0.00  0.00    +0.025 A 
ATOM      9  C   UNL     1       4.343   3.418  -0.748  0.00  0.00    +0.053 A 
ATOM     10  N   UNL     1       4.748   2.340  -1.527  0.00  0.00    -0.316 N 
ATOM     11  C   UNL     1       3.910   1.434  -2.090  0.00  0.00    +0.017 C 
ATOM     12  C   UNL     1       2.895   0.825  -1.454  0.00  0.00    +0.037 C 
ATOM     13  C   UNL     1       2.489   1.048  -0.017  0.00  0.00    +0.147 C 
ATOM     14  C   UNL     1       2.096  -0.124  -2.134  0.00  0.00    +0.163 C 
ATOM     15  O   UNL     1       1.176  -0.649  -1.537  0.00  0.00    -0.292 OA
ATOM     16  C   UNL     1       2.341  -0.506  -3.562  0.00  0.00    +0.088 C 
ATOM     17  C   UNL     1       3.830  -0.310  -3.873  0.00  0.00    +0.032 C 
ATOM     18  C   UNL     1       4.184   1.142  -3.557  0.00  0.00    +0.059 C 
ATOM     19  H   UNL     1       5.700   2.227  -1.678  0.00  0.00    +0.152 HD
ENDROOT
BRANCH  17  20
ATOM     20  C   UNL     1       4.091  -0.594  -5.329  0.00  0.00    -0.043 A 
ATOM     21  C   UNL     1       3.421   0.122  -6.304  0.00  0.00    +0.007 A 
ATOM     22  C   UNL     1       3.664  -0.135  -7.640  0.00  0.00    +0.038 A 
ATOM     23  C   UNL     1       4.570  -1.117  -8.002  0.00  0.00    +0.123 A 
ATOM     24  C   UNL     1       5.236  -1.837  -7.026  0.00  0.00    +0.038 A 
ATOM     25  C   UNL     1       4.996  -1.575  -5.690  0.00  0.00    +0.007 A 
ATOM     26  F   UNL     1       4.804  -1.371  -9.308  0.00  0.00    -0.205 F 
ENDBRANCH  17  20
BRANCH  13  27
ATOM     27  C   UNL     1       1.174   1.783   0.000  0.00  0.00    -0.019 A 
ATOM     28  C   UNL     1       0.042   1.164   0.499  0.00  0.00    +0.006 A 
ATOM     29  C   UNL     1      -1.166   1.836   0.516  0.00  0.00    +0.004 A 
ATOM     30  C   UNL     1      -1.245   3.129   0.035  0.00  0.00    +0.045 A 
ATOM     31  C   UNL     1      -0.110   3.755  -0.460  0.00  0.00    +0.120 A 
ATOM     32  C   UNL     1       1.100   3.076  -0.481  0.00  0.00    +0.051 A 
BRANCH  31  33
ATOM     33  O   UNL     1      -0.184   5.028  -0.928  0.00  0.00    -0.495 OA
ATOM     34  C   UNL     1      -1.462   5.666  -0.875  0.00  0.00    +0.277 C 
ENDBRANCH  31  33
ENDBRANCH  13  27
BRANCH   1  35
ATOM     35  C   UNL     1       5.067   1.977   2.626  0.00  0.00    +0.096 C 
BRANCH  35  36
ATOM     36  C   UNL     1       5.622   1.077   3.731  0.00  0.00    +0.009 C 
BRANCH  36  37
ATOM     37  C   UNL     1       6.637   1.861   4.567  0.00  0.00    +0.000 C 
BRANCH  37  39
ATOM     38  C   UNL     1       8.206   1.744   6.507  0.00  0.00    +0.004 C 
ATOM     39  C   UNL     1       7.191   0.960   5.672  0.00  0.00    -0.003 C 
ENDBRANCH  37  39
ENDBRANCH  36  37
ENDBRANCH  35  36
ENDBRANCH   1  35
TORSDOF 7
