REMARK  Name = ZINC40014472
REMARK  16 active torsions:
REMARK  status: ('A' for Active; 'I' for Inactive)
REMARK    1  A    between atoms: C_1  and  C_2
REMARK    2  A    between atoms: C_2  and  C_3
REMARK    3  A    between atoms: C_3  and  O_4
REMARK    4  A    between atoms: O_4  and  C_5
REMARK    5  A    between atoms: C_8  and  C_14
REMARK    6  A    between atoms: C_10  and  O_11
REMARK    7  A    between atoms: O_11  and  C_12
REMARK    8  A    between atoms: C_12  and  C_13
REMARK    9  A    between atoms: N_29  and  C_30
REMARK   10  A    between atoms: C_30  and  C_31
REMARK   11  A    between atoms: C_31  and  C_32
REMARK   12  A    between atoms: C_32  and  N_33
REMARK   13  A    between atoms: N_33  and  C_34
REMARK   14  A    between atoms: N_33  and  C_36
REMARK   15  A    between atoms: C_34  and  C_35
REMARK   16  A    between atoms: C_36  and  C_37
REMARK                            x       y       z     vdW  Elec       q    Type
REMARK                         _______ _______ _______ _____ _____    ______ ____
ROOT
ATOM      1  C   UNL     1       3.508  -4.700   5.642  0.00  0.00    +0.145 C 
ATOM      2  C   UNL     1       4.991  -4.565   5.531  0.00  0.00    +0.072 A 
ATOM      3  C   UNL     1       5.948  -5.151   4.587  0.00  0.00    +0.199 A 
ATOM      4  O   UNL     1       5.610  -5.752   3.582  0.00  0.00    -0.287 OA
ATOM      5  C   UNL     1       7.367  -4.943   4.971  0.00  0.00    +0.067 A 
ATOM      6  C   UNL     1       8.387  -5.606   4.288  0.00  0.00    +0.053 A 
ATOM      7  C   UNL     1       9.699  -5.404   4.662  0.00  0.00    +0.124 A 
ATOM      8  C   UNL     1       9.999  -4.545   5.713  0.00  0.00    +0.042 A 
ATOM      9  C   UNL     1       8.999  -3.886   6.391  0.00  0.00    +0.050 A 
ATOM     10  C   UNL     1       7.665  -4.071   6.030  0.00  0.00    +0.140 A 
ATOM     11  O   UNL     1       6.703  -3.402   6.708  0.00  0.00    -0.450 OA
ATOM     12  C   UNL     1       5.410  -3.736   6.533  0.00  0.00    +0.199 A 
ATOM     13  C   UNL     1       4.230  -3.323   7.314  0.00  0.00    +0.283 C 
ATOM     14  O   UNL     1       4.258  -2.587   8.280  0.00  0.00    -0.267 OA
ATOM     15  N   UNL     1       3.114  -3.882   6.800  0.00  0.00    -0.284 N 
ATOM     16  F   UNL     1      10.693  -6.042   4.006  0.00  0.00    -0.205 F 
ENDROOT
BRANCH   1  20
ATOM     17  C   UNL     1       1.625  -3.233   2.094  0.00  0.00    +0.162 A 
ATOM     18  C   UNL     1       2.102  -2.346   3.046  0.00  0.00    +0.050 A 
ATOM     19  C   UNL     1       2.710  -2.824   4.192  0.00  0.00    +0.009 A 
ATOM     20  C   UNL     1       2.844  -4.186   4.391  0.00  0.00    -0.019 A 
ATOM     21  C   UNL     1       2.372  -5.075   3.445  0.00  0.00    +0.055 A 
ATOM     22  C   UNL     1       1.756  -4.604   2.296  0.00  0.00    +0.162 A 
BRANCH  17  23
ATOM     23  O   UNL     1       1.027  -2.765   0.966  0.00  0.00    -0.488 OA
BRANCH  23  24
ATOM     24  C   UNL     1       0.928  -1.347   0.825  0.00  0.00    +0.229 C 
BRANCH  24  26
ATOM     25  C   UNL     1       0.125   0.506  -0.647  0.00  0.00    +0.007 C 
ATOM     26  C   UNL     1       0.231  -1.013  -0.496  0.00  0.00    +0.038 C 
ENDBRANCH  24  26
ENDBRANCH  23  24
ENDBRANCH  17  23
BRANCH  22  27
ATOM     27  O   UNL     1       1.285  -5.478   1.367  0.00  0.00    -0.489 OA
BRANCH  27  28
ATOM     28  C   UNL     1       1.453  -6.870   1.642  0.00  0.00    +0.226 C 
ATOM     29  C   UNL     1       0.866  -7.692   0.493  0.00  0.00    +0.048 C 
ENDBRANCH  27  28
ENDBRANCH  22  27
ENDBRANCH   1  20
BRANCH  15  30
ATOM     30  C   UNL     1       1.750  -3.704   7.304  0.00  0.00    +0.107 C 
BRANCH  30  31
ATOM     31  C   UNL     1       1.446  -4.784   8.345  0.00  0.00    +0.000 C 
BRANCH  31  32
ATOM     32  C   UNL     1       0.022  -4.599   8.872  0.00  0.00    -0.077 C 
BRANCH  32  33
ATOM     33  N   UNL     1      -0.316  -5.710   9.772  0.00  0.00    +0.379 N 
ATOM     34  H   UNL     1      -0.163  -6.586   9.296  0.00  0.00    -0.082 HD
BRANCH  33  35
ATOM     35  C   UNL     1       0.534  -5.646  10.968  0.00  0.00    -0.082 C 
ATOM     36  C   UNL     1       0.271  -6.871  11.846  0.00  0.00    -0.017 C 
ENDBRANCH  33  35
BRANCH  33  37
ATOM     37  C   UNL     1      -1.727  -5.607  10.168  0.00  0.00    -0.082 C 
ATOM     38  C   UNL     1      -2.617  -5.816   8.941  0.00  0.00    -0.017 C 
ENDBRANCH  33  37
ENDBRANCH  32  33
ENDBRANCH  31  32
ENDBRANCH  30  31
ENDBRANCH  15  30
TORSDOF 12
