REMARK  Name = ZINC27353704
REMARK  11 active torsions:
REMARK  status: ('A' for Active; 'I' for Inactive)
REMARK    1  A    between atoms: C_1  and  C_2
REMARK    2  A    between atoms: C_7  and  S_31
REMARK    3  A    between atoms: C_12  and  C_14
REMARK    4  A    between atoms: C_14  and  N_15
REMARK    5  A    between atoms: N_15  and  C_16
REMARK    6  A    between atoms: N_15  and  C_25
REMARK    7  A    between atoms: C_16  and  C_17
REMARK    8  A    between atoms: C_22  and  O_23
REMARK    9  A    between atoms: O_23  and  C_24
REMARK   10  A    between atoms: C_25  and  C_26
REMARK   11  A    between atoms: S_31  and  N_34
REMARK                            x       y       z     vdW  Elec       q    Type
REMARK                         _______ _______ _______ _____ _____    ______ ____
ROOT
ATOM      1  C   UNL     1       4.465   6.014   6.334  0.00  0.00    +0.029 C 
ATOM      2  C   UNL     1       3.952   7.225   5.553  0.00  0.00    +0.083 C 
ATOM      3  C   UNL     1       4.874   8.434   5.782  0.00  0.00    +0.059 C 
ATOM      4  C   UNL     1       5.395   8.781   4.405  0.00  0.00    -0.022 A 
ATOM      5  C   UNL     1       6.257   9.777   3.988  0.00  0.00    +0.034 A 
ATOM      6  C   UNL     1       6.589   9.893   2.651  0.00  0.00    +0.105 A 
ATOM      7  C   UNL     1       6.055   9.009   1.731  0.00  0.00    +0.030 A 
ATOM      8  C   UNL     1       5.195   8.014   2.143  0.00  0.00    +0.026 A 
ATOM      9  C   UNL     1       4.856   7.890   3.492  0.00  0.00    +0.040 A 
ATOM     10  N   UNL     1       4.012   6.964   4.112  0.00  0.00    -0.270 N 
ATOM     11  C   UNL     1       3.347   5.978   3.478  0.00  0.00    +0.203 C 
ATOM     12  O   UNL     1       2.568   5.280   4.091  0.00  0.00    -0.277 OA
ENDROOT
BRANCH   6  13
ATOM     13  S   UNL     1       7.689  11.163   2.120  0.00  0.00    +0.056 S 
ATOM     14  O   UNL     1       8.475  11.518   3.249  0.00  0.00    -0.153 OA
ATOM     15  O   UNL     1       8.265  10.717   0.900  0.00  0.00    -0.153 OA
BRANCH  13  16
ATOM     16  N   UNL     1       6.765  12.488   1.751  0.00  0.00    -0.204 NA
ATOM     17  H   UNL     1       7.418  13.307   1.414  0.00  0.00    +0.144 HD
ATOM     18  H   UNL     1       6.208  12.806   2.645  0.00  0.00    +0.144 HD
ENDBRANCH  13  16
ENDBRANCH   6  13
BRANCH  11  19
ATOM     19  C   UNL     1       3.572   5.743   2.006  0.00  0.00    +0.020 C 
BRANCH  19  20
ATOM     20  N   UNL     1       2.839   4.542   1.584  0.00  0.00    +0.391 N 
ATOM     21  H   UNL     1       2.967   3.777   2.363  0.00  0.00    -0.080 HD
BRANCH  20  22
ATOM     22  C   UNL     1       1.402   4.821   1.457  0.00  0.00    -0.038 C 
BRANCH  22  23
ATOM     23  C   UNL     1       0.655   3.526   1.265  0.00  0.00    -0.022 A 
ATOM     24  C   UNL     1       0.256   3.138   0.001  0.00  0.00    +0.005 A 
ATOM     25  C   UNL     1      -0.430   1.951  -0.176  0.00  0.00    +0.000 A 
ATOM     26  C   UNL     1      -0.724   1.151   0.914  0.00  0.00    +0.004 A 
ATOM     27  C   UNL     1      -0.322   1.531   2.179  0.00  0.00    +0.046 A 
ATOM     28  C   UNL     1       0.367   2.723   2.359  0.00  0.00    +0.121 A 
BRANCH  28  29
ATOM     29  O   UNL     1       0.758   3.101   3.604  0.00  0.00    -0.495 OA
ATOM     30  C   UNL     1       0.427   2.225   4.683  0.00  0.00    +0.277 C 
ENDBRANCH  28  29
ENDBRANCH  22  23
ENDBRANCH  20  22
BRANCH  20  31
ATOM     31  C   UNL     1       3.384   4.006   0.330  0.00  0.00    -0.035 C 
BRANCH  31  32
ATOM     32  C   UNL     1       4.740   3.402   0.589  0.00  0.00    -0.027 A 
ATOM     33  C   UNL     1       5.051   2.158   1.028  0.00  0.00    +0.009 A 
ATOM     34  C   UNL     1       6.380   1.818   1.195  0.00  0.00    +0.008 A 
ATOM     35  C   UNL     1       7.334   2.740   0.915  0.00  0.00    +0.045 A 
ATOM     36  S   UNL     1       6.355   4.138   0.392  0.00  0.00    -0.103 S 
ENDBRANCH  31  32
ENDBRANCH  20  31
ENDBRANCH  19  20
ENDBRANCH  11  19
TORSDOF 9
