REMARK  Name = ZINC59170684
REMARK  6 active torsions:
REMARK  status: ('A' for Active; 'I' for Inactive)
REMARK    1  A    between atoms: C_1  and  C_2
REMARK    2  A    between atoms: C_5  and  S_8
REMARK    3  A    between atoms: S_8  and  N_11
REMARK    4  A    between atoms: N_11  and  N_12
REMARK    5  A    between atoms: C_14  and  C_27
REMARK    6  A    between atoms: N_29  and  C_30
REMARK                            x       y       z     vdW  Elec       q    Type
REMARK                         _______ _______ _______ _____ _____    ______ ____
ROOT
ATOM      1  N   UNL     1       3.289  -3.591  -0.160  0.00  0.00    -0.260 N 
ATOM      2  C   UNL     1       4.379  -4.272   0.059  0.00  0.00    +0.225 A 
ATOM      3  C   UNL     1       5.048  -4.248   1.381  0.00  0.00    +0.099 A 
ATOM      4  C   UNL     1       5.826  -5.346   1.713  0.00  0.00    +0.030 A 
ATOM      5  C   UNL     1       5.953  -6.390   0.765  0.00  0.00    +0.026 A 
ATOM      6  C   UNL     1       6.572  -7.663   1.135  0.00  0.00    -0.007 A 
ATOM      7  C   UNL     1       7.075  -7.887   2.420  0.00  0.00    +0.009 A 
ATOM      8  C   UNL     1       7.644  -9.090   2.721  0.00  0.00    +0.001 A 
ATOM      9  C   UNL     1       7.731 -10.098   1.765  0.00  0.00    +0.001 A 
ATOM     10  C   UNL     1       7.251  -9.912   0.504  0.00  0.00    +0.008 A 
ATOM     11  C   UNL     1       6.658  -8.686   0.160  0.00  0.00    -0.017 A 
ATOM     12  C   UNL     1       6.149  -8.458  -1.132  0.00  0.00    +0.012 A 
ATOM     13  C   UNL     1       5.585  -7.266  -1.462  0.00  0.00    +0.047 A 
ATOM     14  C   UNL     1       5.483  -6.222  -0.542  0.00  0.00    +0.138 A 
ATOM     15  O   UNL     1       4.944  -5.038  -0.919  0.00  0.00    -0.437 OA
ATOM     16  H   UNL     1       2.857  -3.120   0.570  0.00  0.00    +0.189 HD
ENDROOT
BRANCH   3  17
ATOM     17  C   UNL     1       4.894  -3.110   2.299  0.00  0.00    +0.253 C 
ATOM     18  O   UNL     1       4.141  -2.197   2.015  0.00  0.00    -0.270 OA
ATOM     19  N   UNL     1       5.585  -3.079   3.455  0.00  0.00    -0.281 N 
ATOM     20  H   UNL     1       6.253  -3.758   3.640  0.00  0.00    +0.155 HD
BRANCH  19  21
ATOM     21  C   UNL     1       5.341  -2.066   4.390  0.00  0.00    +0.034 A 
ATOM     22  C   UNL     1       4.064  -1.537   4.524  0.00  0.00    +0.026 A 
ATOM     23  C   UNL     1       3.824  -0.538   5.447  0.00  0.00    +0.040 A 
ATOM     24  C   UNL     1       4.857  -0.064   6.238  0.00  0.00    +0.124 A 
ATOM     25  C   UNL     1       6.131  -0.589   6.106  0.00  0.00    +0.040 A 
ATOM     26  C   UNL     1       6.373  -1.593   5.188  0.00  0.00    +0.026 A 
ATOM     27  F   UNL     1       4.620   0.914   7.140  0.00  0.00    -0.205 F 
ENDBRANCH  19  21
ENDBRANCH   3  17
BRANCH   1  28
ATOM     28  N   UNL     1       2.742  -3.540  -1.448  0.00  0.00    -0.157 N 
ATOM     29  H   UNL     1       3.131  -4.069  -2.162  0.00  0.00    +0.194 HD
BRANCH  28  30
ATOM     30  S   UNL     1       1.430  -2.576  -1.753  0.00  0.00    +0.085 S 
ATOM     31  O   UNL     1       0.390  -3.021  -0.893  0.00  0.00    -0.149 OA
ATOM     32  O   UNL     1       1.282  -2.527  -3.166  0.00  0.00    -0.149 OA
BRANCH  30  37
ATOM     33  C   UNL     1       2.865   3.009   0.023  0.00  0.00    +0.044 C 
ATOM     34  C   UNL     1       2.507   1.614  -0.420  0.00  0.00    -0.050 A 
ATOM     35  C   UNL     1       2.868   1.175  -1.681  0.00  0.00    +0.005 A 
ATOM     36  C   UNL     1       2.539  -0.104  -2.088  0.00  0.00    +0.029 A 
ATOM     37  C   UNL     1       1.850  -0.945  -1.234  0.00  0.00    +0.110 A 
ATOM     38  C   UNL     1       1.490  -0.507   0.026  0.00  0.00    +0.029 A 
ATOM     39  C   UNL     1       1.823   0.771   0.435  0.00  0.00    +0.005 A 
ENDBRANCH  30  37
ENDBRANCH  28  30
ENDBRANCH   1  28
TORSDOF 5
