REMARK  Name = ZINC27131534
REMARK  5 active torsions:
REMARK  status: ('A' for Active; 'I' for Inactive)
REMARK    1  A    between atoms: C_4  and  C_7
REMARK    2  A    between atoms: C_8  and  C_18
REMARK    3  A    between atoms: N_10  and  C_12
REMARK    4  A    between atoms: C_18  and  N_19
REMARK    5  A    between atoms: C_20  and  C_22
REMARK                            x       y       z     vdW  Elec       q    Type
REMARK                         _______ _______ _______ _____ _____    ______ ____
ROOT
ATOM      1  C   UNL     1      -0.070   5.328   0.030  0.00  0.00    +0.098 A 
ATOM      2  C   UNL     1      -1.018   6.146  -0.615  0.00  0.00    +0.015 A 
ATOM      3  C   UNL     1      -0.693   7.433  -0.367  0.00  0.00    +0.120 A 
ATOM      4  N   UNL     1       0.427   7.439   0.402  0.00  0.00    -0.239 N 
ATOM      5  N   UNL     1       0.798   6.109   0.637  0.00  0.00    -0.166 NA
ENDROOT
BRANCH   1   9
ATOM      6  C   UNL     1      -0.013   1.076   0.008  0.00  0.00    +0.000 A 
ATOM      7  C   UNL     1      -1.221   1.748   0.017  0.00  0.00    +0.001 A 
ATOM      8  C   UNL     1      -1.246   3.128   0.030  0.00  0.00    +0.010 A 
ATOM      9  C   UNL     1      -0.050   3.844   0.022  0.00  0.00    +0.002 A 
ATOM     10  C   UNL     1       1.165   3.161   0.007  0.00  0.00    +0.010 A 
ATOM     11  C   UNL     1       1.177   1.781   0.000  0.00  0.00    +0.001 A 
ENDBRANCH   1   9
BRANCH   4  12
ATOM     12  C   UNL     1       1.094   8.577   0.876  0.00  0.00    +0.065 A 
ATOM     13  C   UNL     1       0.619   9.843   0.562  0.00  0.00    +0.028 A 
ATOM     14  C   UNL     1       1.275  10.962   1.036  0.00  0.00    +0.002 A 
ATOM     15  C   UNL     1       2.410  10.822   1.813  0.00  0.00    +0.000 A 
ATOM     16  C   UNL     1       2.889   9.563   2.123  0.00  0.00    +0.002 A 
ATOM     17  C   UNL     1       2.234   8.440   1.657  0.00  0.00    +0.028 A 
ENDBRANCH   4  12
BRANCH   2  18
ATOM     18  C   UNL     1      -2.190   5.669  -1.435  0.00  0.00    +0.143 C 
BRANCH  18  19
ATOM     19  N   UNL     1      -3.280   5.271  -0.542  0.00  0.00    -0.308 N 
ATOM     20  C   UNL     1      -4.437   4.808  -1.056  0.00  0.00    +0.254 C 
ATOM     21  O   UNL     1      -4.575   4.721  -2.258  0.00  0.00    -0.272 OA
ATOM     22  H   UNL     1      -3.155   5.349   0.548  0.00  0.00    +0.149 HD
BRANCH  20  23
ATOM     23  C   UNL     1      -5.559   4.398  -0.137  0.00  0.00    +0.266 C 
ATOM     24  C   UNL     1      -6.073   5.623   0.620  0.00  0.00    +0.090 C 
ATOM     25  C   UNL     1      -7.346   5.291   1.352  0.00  0.00    -0.029 A 
ATOM     26  C   UNL     1      -7.749   6.067   2.420  0.00  0.00    +0.004 A 
ATOM     27  C   UNL     1      -8.922   5.771   3.090  0.00  0.00    +0.000 A 
ATOM     28  C   UNL     1      -9.703   4.697   2.698  0.00  0.00    +0.001 A 
ATOM     29  C   UNL     1      -9.312   3.911   1.633  0.00  0.00    +0.015 A 
ATOM     30  C   UNL     1      -8.129   4.205   0.957  0.00  0.00    +0.062 A 
ATOM     31  C   UNL     1      -7.691   3.370  -0.186  0.00  0.00    +0.340 C 
ATOM     32  O   UNL     1      -8.243   2.321  -0.452  0.00  0.00    -0.245 OA
ATOM     33  O   UNL     1      -6.646   3.827  -0.922  0.00  0.00    -0.448 OA
ENDBRANCH  20  23
ENDBRANCH  18  19
ENDBRANCH   2  18
TORSDOF 5
