REMARK  Name = ZINC28116237
REMARK  7 active torsions:
REMARK  status: ('A' for Active; 'I' for Inactive)
REMARK    1  A    between atoms: C_1  and  O_2
REMARK    2  A    between atoms: O_2  and  C_3
REMARK    3  A    between atoms: C_3  and  C_5
REMARK    4  A    between atoms: C_10  and  N_11
REMARK    5  A    between atoms: N_11  and  C_12
REMARK    6  A    between atoms: N_15  and  S_16
REMARK    7  A    between atoms: S_16  and  C_19
REMARK                            x       y       z     vdW  Elec       q    Type
REMARK                         _______ _______ _______ _____ _____    ______ ____
ROOT
ATOM      1  C   UNL     1      -4.820  -2.426   0.093  0.00  0.00    +0.081 C 
ATOM      2  C   UNL     1      -4.941  -3.744   0.363  0.00  0.00    +0.057 C 
ATOM      3  C   UNL     1      -6.263  -4.362   0.521  0.00  0.00    +0.095 C 
ATOM      4  N   UNL     1      -6.363  -5.638   0.782  0.00  0.00    -0.128 NA
ATOM      5  C   UNL     1      -7.484  -3.533   0.385  0.00  0.00    +0.013 A 
ATOM      6  C   UNL     1      -8.745  -4.094   0.531  0.00  0.00    +0.011 A 
ATOM      7  C   UNL     1      -9.871  -3.301   0.400  0.00  0.00    +0.001 A 
ATOM      8  C   UNL     1      -9.750  -1.950   0.123  0.00  0.00    +0.001 A 
ATOM      9  C   UNL     1      -8.502  -1.375  -0.025  0.00  0.00    +0.012 A 
ATOM     10  C   UNL     1      -7.359  -2.161   0.104  0.00  0.00    +0.033 A 
ATOM     11  C   UNL     1      -6.015  -1.570  -0.043  0.00  0.00    +0.208 C 
ATOM     12  O   UNL     1      -5.892  -0.384  -0.281  0.00  0.00    -0.285 OA
ENDROOT
BRANCH   4  13
ATOM     13  S   UNL     1      -4.997  -6.561   0.935  0.00  0.00    +0.099 S 
ATOM     14  O   UNL     1      -4.382  -6.591  -0.345  0.00  0.00    -0.146 OA
ATOM     15  O   UNL     1      -4.321  -6.097   2.095  0.00  0.00    -0.146 OA
BRANCH  13  16
ATOM     16  C   UNL     1      -5.519  -8.208   1.282  0.00  0.00    +0.113 A 
ATOM     17  C   UNL     1      -5.697  -8.608   2.605  0.00  0.00    +0.029 A 
ATOM     18  C   UNL     1      -6.099  -9.873   2.907  0.00  0.00    +0.010 A 
ATOM     19  C   UNL     1      -6.338 -10.792   1.871  0.00  0.00    -0.018 A 
ATOM     20  C   UNL     1      -6.753 -12.107   2.144  0.00  0.00    +0.008 A 
ATOM     21  C   UNL     1      -6.976 -12.970   1.115  0.00  0.00    +0.001 A 
ATOM     22  C   UNL     1      -6.797 -12.570  -0.208  0.00  0.00    +0.001 A 
ATOM     23  C   UNL     1      -6.396 -11.305  -0.510  0.00  0.00    +0.008 A 
ATOM     24  C   UNL     1      -6.156 -10.386   0.526  0.00  0.00    -0.016 A 
ATOM     25  C   UNL     1      -5.746  -9.070   0.253  0.00  0.00    +0.037 A 
ENDBRANCH  13  16
ENDBRANCH   4  13
BRANCH   1  26
ATOM     26  N   UNL     1      -3.558  -1.868  -0.051  0.00  0.00    -0.311 N 
ATOM     27  H   UNL     1      -3.461  -0.910  -0.166  0.00  0.00    +0.152 HD
BRANCH  26  33
ATOM     28  C   UNL     1      -2.045  -3.378  -1.188  0.00  0.00    +0.080 A 
ATOM     29  C   UNL     1      -0.907  -4.190  -1.156  0.00  0.00    +0.017 A 
ATOM     30  C   UNL     1      -0.179  -4.306   0.007  0.00  0.00    +0.001 A 
ATOM     31  C   UNL     1      -0.567  -3.621   1.149  0.00  0.00    +0.002 A 
ATOM     32  C   UNL     1      -1.688  -2.817   1.134  0.00  0.00    +0.024 A 
ATOM     33  C   UNL     1      -2.433  -2.682  -0.032  0.00  0.00    +0.046 A 
BRANCH  28  34
ATOM     34  C   UNL     1      -2.829  -3.250  -2.429  0.00  0.00    +0.341 C 
ATOM     35  O   UNL     1      -3.843  -2.581  -2.440  0.00  0.00    -0.245 OA
BRANCH  34  37
ATOM     36  C   UNL     1      -3.230  -3.707  -4.717  0.00  0.00    +0.280 C 
ATOM     37  O   UNL     1      -2.421  -3.875  -3.551  0.00  0.00    -0.464 OA
ENDBRANCH  34  37
ENDBRANCH  28  34
ENDBRANCH  26  33
ENDBRANCH   1  26
TORSDOF 6
