REMARK  Name = ZINC64428249
REMARK  6 active torsions:
REMARK  status: ('A' for Active; 'I' for Inactive)
REMARK    1  A    between atoms: C_7  and  C_10
REMARK    2  A    between atoms: C_10  and  C_11
REMARK    3  A    between atoms: C_11  and  C_13
REMARK    4  A    between atoms: C_11  and  N_28
REMARK    5  A    between atoms: N_15  and  N_16
REMARK    6  A    between atoms: C_17  and  C_18
REMARK                            x       y       z     vdW  Elec       q    Type
REMARK                         _______ _______ _______ _____ _____    ______ ____
ROOT
ATOM      1  C   UNL     1       0.457  -3.653  -1.462  0.00  0.00    +0.018 C 
ENDROOT
BRANCH   1   2
ATOM      2  C   UNL     1      -0.385  -4.904  -1.452  0.00  0.00    +0.218 C 
ATOM      3  O   UNL     1      -1.575  -4.836  -1.679  0.00  0.00    -0.276 OA
ATOM      4  N   UNL     1       0.185  -6.097  -1.193  0.00  0.00    -0.208 N 
ATOM      5  H   UNL     1       1.136  -6.151  -1.011  0.00  0.00    +0.177 HD
BRANCH   4   6
ATOM      6  N   UNL     1      -0.597  -7.260  -1.184  0.00  0.00    -0.188 NA
ATOM      7  C   UNL     1      -0.048  -8.410  -0.933  0.00  0.00    +0.140 C 
BRANCH   7   8
ATOM      8  C   UNL     1      -0.870  -9.631  -0.924  0.00  0.00    +0.020 A 
ATOM      9  C   UNL     1      -0.291 -10.863  -0.652  0.00  0.00    +0.011 A 
ATOM     10  C   UNL     1      -1.059 -12.020  -0.641  0.00  0.00    +0.001 A 
ATOM     11  C   UNL     1      -2.398 -11.978  -0.897  0.00  0.00    +0.010 A 
ATOM     12  C   UNL     1      -3.024 -10.753  -1.178  0.00  0.00    +0.001 A 
ATOM     13  C   UNL     1      -2.262  -9.560  -1.188  0.00  0.00    +0.080 A 
ATOM     14  N   UNL     1      -2.854  -8.394  -1.450  0.00  0.00    -0.254 NA
ATOM     15  C   UNL     1      -4.141  -8.321  -1.695  0.00  0.00    +0.111 A 
ATOM     16  C   UNL     1      -4.950  -9.454  -1.695  0.00  0.00    +0.020 A 
ATOM     17  C   UNL     1      -4.404 -10.682  -1.446  0.00  0.00    +0.011 A 
ENDBRANCH   7   8
ENDBRANCH   4   6
ENDBRANCH   1   2
BRANCH   1  18
ATOM     18  N   UNL     1      -0.240  -2.600  -2.212  0.00  0.00    +0.386 N 
ATOM     19  H   UNL     1       0.323  -1.763  -2.218  0.00  0.00    -0.089 HD
ATOM     20  H   UNL     1      -0.394  -2.909  -3.160  0.00  0.00    -0.089 HD
ATOM     21  H   UNL     1      -1.127  -2.405  -1.773  0.00  0.00    -0.089 HD
ENDBRANCH   1  18
BRANCH   1  22
ATOM     22  C   UNL     1       0.691  -3.186  -0.024  0.00  0.00    +0.026 C 
BRANCH  22  29
ATOM     23  C   UNL     1      -0.016   1.348   0.009  0.00  0.00    +0.001 A 
ATOM     24  C   UNL     1       1.166   2.101   0.002  0.00  0.00    +0.002 A 
ATOM     25  C   UNL     1       2.391   1.535  -0.013  0.00  0.00    +0.026 A 
ATOM     26  C   UNL     1       2.529   0.120  -0.022  0.00  0.00    +0.043 A 
ATOM     27  N   UNL     1       3.587  -0.654  -0.037  0.00  0.00    -0.380 N 
ATOM     28  C   UNL     1       3.143  -2.053  -0.041  0.00  0.00    +0.144 C 
ATOM     29  C   UNL     1       1.631  -2.008  -0.025  0.00  0.00    -0.043 C 
ATOM     30  C   UNL     1       1.295  -0.698  -0.014  0.00  0.00    -0.001 A 
ATOM     31  C   UNL     1       0.002  -0.004   0.002  0.00  0.00    +0.010 A 
ATOM     32  H   UNL     1       4.509  -0.353  -0.045  0.00  0.00    +0.160 HD
ENDBRANCH  22  29
ENDBRANCH   1  22
TORSDOF 6
