REMARK  Name = ZINC14264516
REMARK  8 active torsions:
REMARK  status: ('A' for Active; 'I' for Inactive)
REMARK    1  A    between atoms: C_1  and  C_2
REMARK    2  A    between atoms: C_5  and  C_8
REMARK    3  A    between atoms: C_10  and  C_14
REMARK    4  A    between atoms: N_16  and  C_17
REMARK    5  A    between atoms: C_17  and  C_18
REMARK    6  A    between atoms: C_18  and  C_19
REMARK    7  A    between atoms: C_22  and  S_25
REMARK    8  A    between atoms: S_25  and  N_28
REMARK                            x       y       z     vdW  Elec       q    Type
REMARK                         _______ _______ _______ _____ _____    ______ ____
ROOT
ATOM      1  C   UNL     1       0.103  -7.630   1.389  0.00  0.00    +0.262 C 
ATOM      2  O   UNL     1       0.102  -7.587   2.604  0.00  0.00    -0.269 OA
ATOM      3  N   UNL     1       0.117  -8.820   0.756  0.00  0.00    -0.310 N 
ATOM      4  H   UNL     1       0.118  -8.854  -0.213  0.00  0.00    +0.149 HD
ENDROOT
BRANCH   1   7
ATOM      5  C   UNL     1       0.059  -4.256  -0.021  0.00  0.00    +0.093 A 
ATOM      6  C   UNL     1       0.070  -5.094   1.109  0.00  0.00    +0.062 A 
ATOM      7  C   UNL     1       0.086  -6.382   0.609  0.00  0.00    +0.121 A 
ATOM      8  N   UNL     1       0.085  -6.268  -0.753  0.00  0.00    -0.272 N 
ATOM      9  H   UNL     1       0.094  -7.013  -1.375  0.00  0.00    +0.189 HD
ATOM     10  N   UNL     1       0.064  -5.028  -1.088  0.00  0.00    -0.173 NA
BRANCH   5  15
ATOM     11  C   UNL     1      -0.018   1.503   0.010  0.00  0.00    +0.044 C 
ATOM     12  C   UNL     1       0.002  -0.004   0.002  0.00  0.00    -0.050 A 
ATOM     13  C   UNL     1       0.006  -0.687  -1.201  0.00  0.00    +0.004 A 
ATOM     14  C   UNL     1       0.024  -2.067  -1.214  0.00  0.00    +0.010 A 
ATOM     15  C   UNL     1       0.040  -2.772  -0.013  0.00  0.00    +0.002 A 
ATOM     16  C   UNL     1       0.036  -2.080   1.196  0.00  0.00    +0.010 A 
ATOM     17  C   UNL     1       0.023  -0.700   1.198  0.00  0.00    +0.004 A 
ENDBRANCH   5  15
ENDBRANCH   1   7
BRANCH   3  18
ATOM     18  C   UNL     1       0.134 -10.062   1.532  0.00  0.00    +0.109 C 
BRANCH  18  19
ATOM     19  C   UNL     1       0.148 -11.259   0.579  0.00  0.00    +0.054 C 
BRANCH  19  20
ATOM     20  C   UNL     1       0.165 -12.537   1.378  0.00  0.00    -0.046 A 
ATOM     21  C   UNL     1       1.369 -13.105   1.749  0.00  0.00    +0.005 A 
ATOM     22  C   UNL     1       1.385 -14.277   2.481  0.00  0.00    +0.029 A 
ATOM     23  C   UNL     1       0.195 -14.881   2.844  0.00  0.00    +0.105 A 
ATOM     24  C   UNL     1      -1.009 -14.313   2.474  0.00  0.00    +0.029 A 
ATOM     25  C   UNL     1      -1.024 -13.138   1.745  0.00  0.00    +0.005 A 
BRANCH  23  26
ATOM     26  S   UNL     1       0.214 -16.376   3.776  0.00  0.00    +0.056 S 
ATOM     27  O   UNL     1      -1.020 -17.030   3.520  0.00  0.00    -0.153 OA
ATOM     28  O   UNL     1       1.470 -16.993   3.528  0.00  0.00    -0.153 OA
BRANCH  26  29
ATOM     29  N   UNL     1       0.203 -15.954   5.378  0.00  0.00    -0.204 NA
ATOM     30  H   UNL     1       0.189 -15.018   5.633  0.00  0.00    +0.144 HD
ATOM     31  H   UNL     1       0.211 -16.642   6.061  0.00  0.00    +0.144 HD
ENDBRANCH  26  29
ENDBRANCH  23  26
ENDBRANCH  19  20
ENDBRANCH  18  19
ENDBRANCH   3  18
TORSDOF 7
