REMARK  Name = ZINC35636249
REMARK  11 active torsions:
REMARK  status: ('A' for Active; 'I' for Inactive)
REMARK    1  A    between atoms: C_1  and  C_2
REMARK    2  A    between atoms: C_2  and  N_3
REMARK    3  A    between atoms: C_6  and  C_11
REMARK    4  A    between atoms: C_15  and  O_17
REMARK    5  A    between atoms: O_17  and  C_18
REMARK    6  A    between atoms: N_26  and  C_28
REMARK    7  A    between atoms: C_28  and  C_30
REMARK    8  A    between atoms: C_28  and  C_34
REMARK    9  A    between atoms: C_30  and  C_31
REMARK   10  A    between atoms: C_31  and  C_32
REMARK   11  A    between atoms: C_31  and  C_33
REMARK                            x       y       z     vdW  Elec       q    Type
REMARK                         _______ _______ _______ _____ _____    ______ ____
ROOT
ATOM      1  N   UNL     1       1.808  -0.986  -1.807  0.00  0.00    -0.257 N 
ATOM      2  C   UNL     1       0.953  -1.424  -2.777  0.00  0.00    +0.042 C 
ATOM      3  C   UNL     1       1.395  -2.155  -3.820  0.00  0.00    +0.058 C 
ATOM      4  C   UNL     1       2.875  -2.476  -3.879  0.00  0.00    +0.142 C 
ATOM      5  N   UNL     1       3.713  -1.958  -2.785  0.00  0.00    -0.288 N 
ATOM      6  C   UNL     1       3.124  -1.236  -1.811  0.00  0.00    +0.307 C 
ATOM      7  O   UNL     1       3.809  -0.800  -0.906  0.00  0.00    -0.252 OA
ATOM      8  C   UNL     1       0.325  -2.482  -4.678  0.00  0.00    +0.247 C 
ATOM      9  O   UNL     1       0.436  -3.137  -5.699  0.00  0.00    -0.270 OA
ATOM     10  N   UNL     1      -0.836  -1.977  -4.222  0.00  0.00    -0.281 N 
ATOM     11  C   UNL     1      -0.538  -1.260  -2.973  0.00  0.00    +0.160 C 
ATOM     12  H   UNL     1       4.668  -2.130  -2.767  0.00  0.00    +0.151 HD
ENDROOT
BRANCH   4  13
ATOM     13  C   UNL     1       3.024  -3.975  -3.909  0.00  0.00    -0.019 A 
ATOM     14  C   UNL     1       2.923  -4.703  -2.738  0.00  0.00    +0.006 A 
ATOM     15  C   UNL     1       3.060  -6.079  -2.762  0.00  0.00    +0.004 A 
ATOM     16  C   UNL     1       3.298  -6.729  -3.957  0.00  0.00    +0.046 A 
ATOM     17  C   UNL     1       3.400  -6.001  -5.134  0.00  0.00    +0.129 A 
ATOM     18  C   UNL     1       3.257  -4.621  -5.108  0.00  0.00    +0.052 A 
BRANCH  17  19
ATOM     19  O   UNL     1       3.634  -6.639  -6.311  0.00  0.00    -0.456 OA
BRANCH  19  20
ATOM     20  C   UNL     1       4.849  -6.471  -6.896  0.00  0.00    +0.128 A 
ATOM     21  C   UNL     1       5.840  -5.750  -6.247  0.00  0.00    +0.046 A 
ATOM     22  C   UNL     1       7.074  -5.580  -6.844  0.00  0.00    +0.004 A 
ATOM     23  C   UNL     1       7.321  -6.129  -8.089  0.00  0.00    +0.000 A 
ATOM     24  C   UNL     1       6.335  -6.848  -8.739  0.00  0.00    +0.004 A 
ATOM     25  C   UNL     1       5.102  -7.026  -8.143  0.00  0.00    +0.046 A 
ENDBRANCH  19  20
ENDBRANCH  17  19
ENDBRANCH   4  13
BRANCH   1  27
ATOM     26  C   UNL     1       1.292   1.289  -1.072  0.00  0.00    +0.025 C 
ATOM     27  C   UNL     1       1.257  -0.196  -0.703  0.00  0.00    +0.111 C 
ENDBRANCH   1  27
BRANCH  10  28
ATOM     28  C   UNL     1      -2.151  -2.115  -4.852  0.00  0.00    +0.163 C 
BRANCH  28  29
ATOM     29  C   UNL     1      -2.509  -3.575  -4.952  0.00  0.00    +0.236 C 
ATOM     30  O   UNL     1      -1.633  -4.414  -4.987  0.00  0.00    -0.274 OA
ATOM     31  N   UNL     1      -3.803  -3.950  -5.004  0.00  0.00    -0.296 N 
ATOM     32  C   UNL     1      -4.879  -2.949  -5.079  0.00  0.00    +0.136 C 
ATOM     33  C   UNL     1      -5.809  -3.325  -6.238  0.00  0.00    +0.179 C 
ATOM     34  O   UNL     1      -6.218  -4.687  -6.091  0.00  0.00    -0.377 OA
ATOM     35  C   UNL     1      -5.145  -5.630  -6.151  0.00  0.00    +0.179 C 
ATOM     36  C   UNL     1      -4.181  -5.372  -4.993  0.00  0.00    +0.136 C 
ENDBRANCH  28  29
BRANCH  28  37
ATOM     37  C   UNL     1      -2.112  -1.502  -6.253  0.00  0.00    +0.035 C 
BRANCH  37  38
ATOM     38  C   UNL     1      -1.885   0.007  -6.144  0.00  0.00    -0.015 C 
ATOM     39  C   UNL     1      -1.722   0.601  -7.545  0.00  0.00    +0.007 C 
ATOM     40  C   UNL     1      -3.086   0.655  -5.452  0.00  0.00    +0.007 C 
ENDBRANCH  37  38
ENDBRANCH  28  37
ENDBRANCH  10  28
TORSDOF 8
