REMARK  Name = ZINC25431831
REMARK  16 active torsions:
REMARK  status: ('A' for Active; 'I' for Inactive)
REMARK    1  A    between atoms: C_1  and  C_2
REMARK    2  A    between atoms: C_2  and  C_3
REMARK    3  A    between atoms: C_8  and  N_9
REMARK    4  A    between atoms: C_10  and  C_12
REMARK    5  A    between atoms: C_12  and  N_13
REMARK    6  A    between atoms: N_13  and  C_14
REMARK    7  A    between atoms: C_15  and  C_17
REMARK    8  A    between atoms: C_17  and  C_19
REMARK    9  A    between atoms: C_17  and  N_20
REMARK   10  A    between atoms: N_20  and  C_21
REMARK   11  A    between atoms: N_20  and  C_22
REMARK   12  A    between atoms: C_22  and  C_23
REMARK   13  A    between atoms: N_25  and  C_26
REMARK   14  A    between atoms: C_27  and  C_34
REMARK   15  A    between atoms: C_29  and  C_33
REMARK   16  A    between atoms: C_31  and  C_32
REMARK                            x       y       z     vdW  Elec       q    Type
REMARK                         _______ _______ _______ _____ _____    ______ ____
ROOT
ATOM      1  C   UNL     1      -6.982   1.307  -0.253  0.00  0.00    +0.017 C 
ATOM      2  C   UNL     1      -7.002   0.753  -1.679  0.00  0.00    -0.004 C 
ENDROOT
BRANCH   1   5
ATOM      3  N   UNL     1      -9.374   1.887  -0.008  0.00  0.00    -0.297 N 
ATOM      4  C   UNL     1      -9.671   0.453   0.044  0.00  0.00    +0.132 C 
ATOM      5  C   UNL     1      -8.096   2.308  -0.087  0.00  0.00    +0.202 C 
ATOM      6  O   UNL     1      -7.843   3.492  -0.025  0.00  0.00    -0.277 OA
BRANCH   3   7
ATOM      7  C   UNL     1     -10.466   2.863   0.026  0.00  0.00    +0.203 C 
BRANCH   7   9
ATOM      8  N   UNL     1     -11.917   4.039  -1.596  0.00  0.00    -0.284 N 
ATOM      9  C   UNL     1     -10.916   3.162  -1.381  0.00  0.00    +0.235 C 
ATOM     10  O   UNL     1     -10.378   2.614  -2.320  0.00  0.00    -0.274 OA
ATOM     11  H   UNL     1     -12.355   4.592  -0.752  0.00  0.00    +0.155 HD
BRANCH   8  17
ATOM     12  C   UNL     1     -13.708   4.667  -3.091  0.00  0.00    -0.026 A 
ATOM     13  C   UNL     1     -14.181   4.870  -4.373  0.00  0.00    +0.005 A 
ATOM     14  C   UNL     1     -13.352   4.655  -5.459  0.00  0.00    +0.000 A 
ATOM     15  C   UNL     1     -12.049   4.236  -5.266  0.00  0.00    +0.002 A 
ATOM     16  C   UNL     1     -11.568   4.035  -3.987  0.00  0.00    +0.023 A 
ATOM     17  C   UNL     1     -12.399   4.245  -2.894  0.00  0.00    +0.037 A 
BRANCH  12  19
ATOM     18  C   UNL     1     -14.391   6.319  -1.372  0.00  0.00    +0.009 C 
ATOM     19  C   UNL     1     -14.611   4.902  -1.907  0.00  0.00    +0.033 C 
ENDBRANCH  12  19
ENDBRANCH   8  17
ENDBRANCH   7   9
ENDBRANCH   3   7
ENDBRANCH   1   5
BRANCH   1  20
ATOM     20  N   UNL     1      -5.692   1.963  -0.000  0.00  0.00    +0.391 N 
ATOM     21  C   UNL     1      -5.462   3.056  -0.955  0.00  0.00    -0.094 C 
ATOM     22  H   UNL     1      -5.726   2.398   1.010  0.00  0.00    -0.080 HD
BRANCH  20  23
ATOM     23  C   UNL     1      -4.591   0.992  -0.036  0.00  0.00    +0.020 C 
BRANCH  23  24
ATOM     24  C   UNL     1      -3.329   1.645   0.464  0.00  0.00    +0.201 C 
ATOM     25  O   UNL     1      -3.345   2.805   0.816  0.00  0.00    -0.278 OA
ATOM     26  N   UNL     1      -2.182   0.939   0.521  0.00  0.00    -0.287 N 
ATOM     27  H   UNL     1      -2.184  -0.134   0.280  0.00  0.00    +0.155 HD
BRANCH  26  28
ATOM     28  C   UNL     1      -0.988   1.572   0.885  0.00  0.00    +0.039 A 
ATOM     29  C   UNL     1      -0.899   2.244   2.098  0.00  0.00    -0.029 A 
ATOM     30  C   UNL     1       0.282   2.862   2.457  0.00  0.00    +0.008 A 
ATOM     31  C   UNL     1       1.374   2.818   1.609  0.00  0.00    -0.050 A 
ATOM     32  C   UNL     1       1.286   2.155   0.399  0.00  0.00    +0.008 A 
ATOM     33  C   UNL     1       0.108   1.535   0.033  0.00  0.00    -0.029 A 
ATOM     34  C   UNL     1       0.013   0.813  -1.286  0.00  0.00    +0.045 C 
ATOM     35  C   UNL     1       2.661   3.494   2.005  0.00  0.00    +0.044 C 
ATOM     36  C   UNL     1      -2.088   2.292   3.023  0.00  0.00    +0.045 C 
ENDBRANCH  26  28
ENDBRANCH  23  24
ENDBRANCH  20  23
ENDBRANCH   1  20
TORSDOF 9
