REMARK  Name = ZINC35938542
REMARK  8 active torsions:
REMARK  status: ('A' for Active; 'I' for Inactive)
REMARK    1  A    between atoms: C_1  and  C_2
REMARK    2  A    between atoms: C_2  and  C_3
REMARK    3  A    between atoms: C_2  and  C_4
REMARK    4  A    between atoms: C_2  and  C_6
REMARK    5  A    between atoms: C_14  and  C_16
REMARK    6  A    between atoms: C_16  and  C_17
REMARK    7  A    between atoms: C_17  and  N_18
REMARK    8  A    between atoms: C_26  and  C_28
REMARK                            x       y       z     vdW  Elec       q    Type
REMARK                         _______ _______ _______ _____ _____    ______ ____
ROOT
ATOM      1  C   UNL     1       8.117   1.376  -2.275  0.00  0.00    -0.068 C 
ENDROOT
BRANCH   1   2
ATOM      2  N   UNL     1       8.917   1.144  -3.485  0.00  0.00    +0.388 N 
ATOM      3  C   UNL     1       8.239   1.753  -4.637  0.00  0.00    -0.072 C 
ATOM      4  C   UNL     1       8.891   1.234  -5.930  0.00  0.00    +0.024 C 
ATOM      5  C   UNL     1      10.371   1.344  -5.763  0.00  0.00    -0.010 A 
ATOM      6  C   UNL     1      11.040   1.569  -4.597  0.00  0.00    -0.047 A 
ATOM      7  C   UNL     1      12.428   1.639  -4.679  0.00  0.00    +0.010 A 
ATOM      8  C   UNL     1      13.043   1.483  -5.875  0.00  0.00    +0.045 A 
ATOM      9  S   UNL     1      11.657   1.222  -6.973  0.00  0.00    -0.101 S 
ATOM     10  C   UNL     1      10.253   1.725  -3.299  0.00  0.00    -0.006 C 
ATOM     11  H   UNL     1       9.006   0.151  -3.639  0.00  0.00    -0.080 HD
BRANCH  10  12
ATOM     12  C   UNL     1      10.967   1.004  -2.185  0.00  0.00    -0.057 A 
ATOM     13  C   UNL     1      10.856  -0.369  -2.068  0.00  0.00    +0.002 A 
ATOM     14  C   UNL     1      11.511  -1.031  -1.046  0.00  0.00    +0.000 A 
ATOM     15  C   UNL     1      12.278  -0.319  -0.142  0.00  0.00    +0.000 A 
ATOM     16  C   UNL     1      12.389   1.053  -0.260  0.00  0.00    +0.000 A 
ATOM     17  C   UNL     1      11.737   1.714  -1.284  0.00  0.00    +0.002 A 
ENDBRANCH  10  12
ENDBRANCH   1   2
BRANCH   1  18
ATOM     18  C   UNL     1       6.769   0.667  -2.411  0.00  0.00    +0.077 C 
BRANCH  18  27
ATOM     19  C   UNL     1       0.764  -0.151  -1.266  0.00  0.00    +0.222 C 
ATOM     20  O   UNL     1       0.281  -0.750  -2.204  0.00  0.00    -0.275 OA
ATOM     21  N   UNL     1       1.998   0.382  -1.371  0.00  0.00    -0.298 N 
ATOM     22  C   UNL     1       2.556   1.196  -0.282  0.00  0.00    +0.127 C 
ATOM     23  C   UNL     1       3.902   0.595   0.139  0.00  0.00    +0.126 C 
ATOM     24  N   UNL     1       4.714   0.372  -1.066  0.00  0.00    -0.299 N 
ATOM     25  C   UNL     1       4.156  -0.443  -2.155  0.00  0.00    +0.126 C 
ATOM     26  C   UNL     1       2.812   0.154  -2.573  0.00  0.00    +0.127 C 
ATOM     27  C   UNL     1       5.948   0.904  -1.170  0.00  0.00    +0.214 C 
ATOM     28  O   UNL     1       6.397   1.575  -0.265  0.00  0.00    -0.276 OA
BRANCH  19  30
ATOM     29  C   UNL     1      -0.272   1.481   0.286  0.00  0.00    +0.022 C 
ATOM     30  C   UNL     1      -0.015  -0.002   0.015  0.00  0.00    +0.055 C 
ATOM     31  C   UNL     1       0.788  -0.601   1.172  0.00  0.00    +0.022 C 
BRANCH  30  32
ATOM     32  C   UNL     1      -1.351  -0.736  -0.112  0.00  0.00    +0.124 C 
ATOM     33 CL   UNL     1      -2.283  -0.558   1.421  0.00  0.00    -0.124 Cl
ENDBRANCH  30  32
ENDBRANCH  19  30
ENDBRANCH  18  27
ENDBRANCH   1  18
TORSDOF 6
