REMARK  Name = ZINC13148454
REMARK  8 active torsions:
REMARK  status: ('A' for Active; 'I' for Inactive)
REMARK    1  A    between atoms: C_5  and  N_7
REMARK    2  A    between atoms: C_8  and  C_10
REMARK    3  A    between atoms: C_10  and  O_11
REMARK    4  A    between atoms: O_11  and  C_12
REMARK    5  A    between atoms: C_12  and  C_14
REMARK    6  A    between atoms: C_14  and  S_15
REMARK    7  A    between atoms: S_15  and  C_16
REMARK    8  A    between atoms: C_16  and  C_17
REMARK                            x       y       z     vdW  Elec       q    Type
REMARK                         _______ _______ _______ _____ _____    ______ ____
ROOT
ATOM      1  C   UNL     1       4.837   0.677  -0.002  0.00  0.00    +0.190 C 
ENDROOT
BRANCH   1   2
ATOM      2  C   UNL     1       3.630   1.579   0.009  0.00  0.00    +0.317 C 
ATOM      3  O   UNL     1       3.772   2.779   0.018  0.00  0.00    -0.250 OA
BRANCH   2   4
ATOM      4  O   UNL     1       2.396   1.050   0.007  0.00  0.00    -0.455 OA
BRANCH   4   5
ATOM      5  C   UNL     1       1.280   1.979   0.018  0.00  0.00    +0.328 C 
BRANCH   5   7
ATOM      6  N   UNL     1      -1.191   1.867   0.018  0.00  0.00    -0.282 N 
ATOM      7  C   UNL     1      -0.015   1.208   0.015  0.00  0.00    +0.255 C 
ATOM      8  O   UNL     1       0.001  -0.004   0.004  0.00  0.00    -0.272 OA
ATOM      9  H   UNL     1      -1.205   2.834   0.092  0.00  0.00    +0.155 HD
BRANCH   6  14
ATOM     10  C   UNL     1      -3.698  -0.796   0.399  0.00  0.00    +0.002 A 
ATOM     11  C   UNL     1      -4.765  -0.252  -0.291  0.00  0.00    +0.001 A 
ATOM     12  C   UNL     1      -4.649   0.994  -0.880  0.00  0.00    +0.017 A 
ATOM     13  C   UNL     1      -3.465   1.699  -0.779  0.00  0.00    +0.039 A 
ATOM     14  C   UNL     1      -2.391   1.155  -0.086  0.00  0.00    +0.048 A 
ATOM     15  C   UNL     1      -2.510  -0.099   0.499  0.00  0.00    +0.024 A 
ATOM     16 BR   UNL     1      -3.307   3.402  -1.585  0.00  0.00    -0.048 Br
ENDBRANCH   6  14
ENDBRANCH   5   7
ENDBRANCH   4   5
ENDBRANCH   2   4
ENDBRANCH   1   2
BRANCH   1  17
ATOM     17  S   UNL     1       6.345   1.685   0.002  0.00  0.00    -0.142 S 
BRANCH  17  18
ATOM     18  C   UNL     1       7.688   0.466  -0.012  0.00  0.00    +0.143 C 
BRANCH  18  19
ATOM     19  C   UNL     1       9.015   1.180  -0.009  0.00  0.00    +0.121 A 
ATOM     20  N   UNL     1      10.162   0.454  -0.018  0.00  0.00    -0.310 N 
ATOM     21  H   UNL     1      10.112  -0.515  -0.026  0.00  0.00    +0.170 HD
ATOM     22  C   UNL     1      11.369   1.051  -0.016  0.00  0.00    +0.260 A 
ATOM     23  O   UNL     1      12.391   0.387  -0.024  0.00  0.00    -0.267 OA
ATOM     24  C   UNL     1      11.430   2.482  -0.004  0.00  0.00    +0.075 A 
ATOM     25  C   UNL     1      12.625   3.339   0.001  0.00  0.00    -0.023 A 
ATOM     26  C   UNL     1      12.420   4.668   0.010  0.00  0.00    -0.004 A 
ATOM     27  S   UNL     1      10.652   4.859   0.017  0.00  0.00    -0.073 S 
ATOM     28  C   UNL     1      10.196   3.146   0.004  0.00  0.00    +0.116 A 
ATOM     29  N   UNL     1       9.040   2.486  -0.003  0.00  0.00    -0.226 NA
ATOM     30  C   UNL     1      13.710   5.441   0.009  0.00  0.00    +0.043 C 
ATOM     31  C   UNL     1      14.777   4.417  -0.437  0.00  0.00    +0.010 C 
ATOM     32  C   UNL     1      14.135   3.086   0.001  0.00  0.00    +0.037 C 
ENDBRANCH  18  19
ENDBRANCH  17  18
ENDBRANCH   1  17
TORSDOF 8
