REMARK  Name = ZINC28156264
REMARK  9 active torsions:
REMARK  status: ('A' for Active; 'I' for Inactive)
REMARK    1  A    between atoms: C_1  and  C_2
REMARK    2  A    between atoms: C_5  and  C_8
REMARK    3  A    between atoms: C_11  and  C_14
REMARK    4  A    between atoms: C_17  and  C_20
REMARK    5  A    between atoms: C_20  and  C_21
REMARK    6  A    between atoms: C_20  and  C_22
REMARK    7  A    between atoms: C_27  and  C_30
REMARK    8  A    between atoms: C_30  and  C_31
REMARK    9  A    between atoms: N_33  and  C_34
REMARK                            x       y       z     vdW  Elec       q    Type
REMARK                         _______ _______ _______ _____ _____    ______ ____
ROOT
ATOM      1  C   UNL     1       1.131   1.990  -0.021  0.00  0.00    +0.069 C 
ATOM      2  N   UNL     1      -0.034   1.438  -0.010  0.00  0.00    -0.182 NA
ATOM      3  N   UNL     1      -0.004   0.045  -0.018  0.00  0.00    -0.195 N 
ATOM      4  C   UNL     1       1.398  -0.400  -0.039  0.00  0.00    +0.136 C 
ATOM      5  C   UNL     1       2.197   0.918  -0.041  0.00  0.00    +0.087 C 
ATOM      6  C   UNL     1      -1.097  -0.772  -0.009  0.00  0.00    +0.170 C 
ATOM      7  N   UNL     1      -1.129  -2.099  -0.017  0.00  0.00    -0.157 NA
ATOM      8  C   UNL     1      -2.223  -2.809  -0.007  0.00  0.00    +0.252 C 
ATOM      9  O   UNL     1      -2.209  -4.025  -0.015  0.00  0.00    -0.272 OA
ATOM     10  C   UNL     1      -3.520  -2.009   0.015  0.00  0.00    +0.150 C 
ATOM     11  S   UNL     1      -2.823  -0.308   0.023  0.00  0.00    -0.078 S 
ENDROOT
BRANCH   1  16
ATOM     12  C   UNL     1       2.120   7.655   0.004  0.00  0.00    +0.044 C 
ATOM     13  C   UNL     1       1.861   6.171  -0.003  0.00  0.00    -0.050 A 
ATOM     14  C   UNL     1       0.560   5.699   0.011  0.00  0.00    +0.004 A 
ATOM     15  C   UNL     1       0.315   4.342   0.005  0.00  0.00    +0.010 A 
ATOM     16  C   UNL     1       1.384   3.443  -0.015  0.00  0.00    -0.002 A 
ATOM     17  C   UNL     1       2.695   3.926  -0.024  0.00  0.00    +0.010 A 
ATOM     18  C   UNL     1       2.924   5.286  -0.023  0.00  0.00    +0.004 A 
ENDBRANCH   1  16
BRANCH   4  19
ATOM     19  C   UNL     1       1.684  -1.196  -1.287  0.00  0.00    -0.025 A 
ATOM     20  C   UNL     1       1.117  -0.819  -2.491  0.00  0.00    +0.006 A 
ATOM     21  C   UNL     1       1.383  -1.546  -3.636  0.00  0.00    +0.004 A 
ATOM     22  C   UNL     1       2.206  -2.655  -3.576  0.00  0.00    -0.045 A 
ATOM     23  C   UNL     1       2.769  -3.034  -2.372  0.00  0.00    +0.004 A 
ATOM     24  C   UNL     1       2.507  -2.304  -1.227  0.00  0.00    +0.006 A 
BRANCH  22  25
ATOM     25  C   UNL     1       2.492  -3.450  -4.824  0.00  0.00    +0.013 C 
ATOM     26  C   UNL     1       1.180  -3.995  -5.393  0.00  0.00    +0.012 C 
ATOM     27  C   UNL     1       3.161  -2.547  -5.862  0.00  0.00    +0.012 C 
ENDBRANCH  22  25
ENDBRANCH   4  19
BRANCH  10  28
ATOM     28  C   UNL     1      -4.358  -2.270  -1.238  0.00  0.00    +0.120 C 
BRANCH  28  29
ATOM     29  C   UNL     1      -5.680  -1.556  -1.116  0.00  0.00    +0.219 C 
ATOM     30  O   UNL     1      -5.927  -0.903  -0.124  0.00  0.00    -0.275 OA
ATOM     31  N   UNL     1      -6.588  -1.644  -2.108  0.00  0.00    -0.283 N 
ATOM     32  H   UNL     1      -6.336  -2.174  -3.038  0.00  0.00    +0.155 HD
BRANCH  31  33
ATOM     33  C   UNL     1      -7.851  -1.059  -1.956  0.00  0.00    +0.069 A 
ATOM     34  C   UNL     1      -7.988   0.125  -1.245  0.00  0.00    +0.026 A 
ATOM     35  C   UNL     1      -9.235   0.703  -1.100  0.00  0.00    +0.002 A 
ATOM     36  C   UNL     1     -10.348   0.097  -1.653  0.00  0.00    +0.003 A 
ATOM     37  C   UNL     1     -10.217  -1.085  -2.358  0.00  0.00    +0.040 A 
ATOM     38  C   UNL     1      -8.972  -1.666  -2.511  0.00  0.00    +0.144 A 
ATOM     39  F   UNL     1      -8.844  -2.822  -3.199  0.00  0.00    -0.204 F 
ENDBRANCH  31  33
ENDBRANCH  28  29
ENDBRANCH  10  28
TORSDOF 6
