REMARK  Name = ZINC52296158
REMARK  3 active torsions:
REMARK  status: ('A' for Active; 'I' for Inactive)
REMARK    1  A    between atoms: C_1  and  C_2
REMARK    2  A    between atoms: C_5  and  N_7
REMARK    3  A    between atoms: C_13  and  C_16
REMARK                            x       y       z     vdW  Elec       q    Type
REMARK                         _______ _______ _______ _____ _____    ______ ____
ROOT
ATOM      1  N   UNL     1       2.782  -1.582   2.746  0.00  0.00    -0.296 N 
ATOM      2  C   UNL     1       2.316  -0.335   2.953  0.00  0.00    +0.302 C 
ATOM      3  O   UNL     1       1.462   0.124   2.219  0.00  0.00    -0.253 OA
ATOM      4  N   UNL     1       2.795   0.403   3.974  0.00  0.00    -0.286 N 
ATOM      5  C   UNL     1       2.213   1.716   4.286  0.00  0.00    +0.110 C 
ATOM      6  C   UNL     1       3.336   2.758   4.315  0.00  0.00    +0.034 C 
ATOM      7  C   UNL     1       4.423   2.304   5.291  0.00  0.00    +0.105 C 
ATOM      8  C   UNL     1       5.013   0.973   4.818  0.00  0.00    +0.034 C 
ATOM      9  C   UNL     1       3.906  -0.092   4.799  0.00  0.00    +0.110 C 
ATOM     10  H   UNL     1       3.513  -1.922   3.286  0.00  0.00    +0.151 HD
ENDROOT
BRANCH   1  14
ATOM     11  C   UNL     1       3.033  -4.462   3.112  0.00  0.00    +0.009 C 
ATOM     12  C   UNL     1       2.302  -3.941   1.873  0.00  0.00    +0.008 C 
ATOM     13  C   UNL     1       3.136  -3.222   0.811  0.00  0.00    +0.027 C 
ATOM     14  C   UNL     1       2.185  -2.425   1.707  0.00  0.00    +0.078 C 
ENDBRANCH   1  14
BRANCH   7  15
ATOM     15  C   UNL     1       5.513   3.344   5.347  0.00  0.00    +0.359 C 
ATOM     16  O   UNL     1       6.032   3.626   6.414  0.00  0.00    -0.246 OA
ATOM     17  O   UNL     1       5.875   3.903   4.326  0.00  0.00    -0.246 OA
ENDBRANCH   7  15
TORSDOF 2
