REMARK  Name = ZINC21326888
REMARK  13 active torsions:
REMARK  status: ('A' for Active; 'I' for Inactive)
REMARK    1  A    between atoms: C_1  and  O_2
REMARK    2  A    between atoms: O_2  and  C_3
REMARK    3  A    between atoms: C_6  and  C_9
REMARK    4  A    between atoms: C_9  and  N_10
REMARK    5  A    between atoms: C_11  and  C_13
REMARK    6  A    between atoms: C_13  and  S_14
REMARK    7  A    between atoms: S_14  and  C_15
REMARK    8  A    between atoms: N_19  and  N_20
REMARK    9  A    between atoms: N_21  and  N_22
REMARK   10  A    between atoms: C_23  and  C_24
REMARK   11  A    between atoms: C_26  and  N_33
REMARK   12  A    between atoms: C_28  and  O_30
REMARK   13  A    between atoms: O_30  and  C_31
REMARK                            x       y       z     vdW  Elec       q    Type
REMARK                         _______ _______ _______ _____ _____    ______ ____
ROOT
ATOM      1  C   UNL     1      -1.155   1.863  -6.322  0.00  0.00    +0.210 A 
ATOM      2  N   UNL     1      -2.254   2.611  -6.110  0.00  0.00    -0.119 NA
ATOM      3  N   UNL     1      -2.760   2.964  -7.238  0.00  0.00    -0.109 NA
ATOM      4  C   UNL     1      -2.023   2.457  -8.242  0.00  0.00    +0.254 A 
ATOM      5  N   UNL     1      -0.992   1.750  -7.674  0.00  0.00    -0.211 N 
ATOM      6  N   UNL     1      -2.252   2.613  -9.551  0.00  0.00    -0.204 N 
ATOM      7  H   UNL     1      -1.578   2.150 -10.286  0.00  0.00    +0.177 HD
ENDROOT
BRANCH   5   8
ATOM      8  N   UNL     1      -0.004   1.071  -8.328  0.00  0.00    -0.294 N 
ATOM      9  H   UNL     1       0.017   1.055  -9.428  0.00  0.00    +0.163 HD
ATOM     10  H   UNL     1       0.771   0.540  -7.756  0.00  0.00    +0.163 HD
ENDBRANCH   5   8
BRANCH   6  11
ATOM     11  N   UNL     1      -3.263   3.307  -9.951  0.00  0.00    -0.188 NA
ATOM     12  C   UNL     1      -3.488   3.461 -11.241  0.00  0.00    +0.138 C 
BRANCH  12  13
ATOM     13  C   UNL     1      -4.598   4.223 -11.680  0.00  0.00    +0.000 A 
ATOM     14  C   UNL     1      -5.467   4.813 -10.741  0.00  0.00    +0.046 A 
ATOM     15  C   UNL     1      -6.532   5.550 -11.165  0.00  0.00    +0.177 A 
ATOM     16  C   UNL     1      -6.776   5.716 -12.527  0.00  0.00    +0.250 A 
ATOM     17  C   UNL     1      -5.924   5.131 -13.472  0.00  0.00    +0.169 A 
ATOM     18  C   UNL     1      -4.841   4.388 -13.055  0.00  0.00    +0.059 A 
ATOM     19  O   UNL     1      -7.840   6.447 -12.939  0.00  0.00    -0.282 OA
BRANCH  15  20
ATOM     20  N   UNL     1      -7.439   6.172 -10.174  0.00  0.00    +0.060 N 
ATOM     21  O   UNL     1      -7.212   6.017  -8.886  0.00  0.00    -0.126 OA
ATOM     22  O   UNL     1      -8.472   6.880 -10.581  0.00  0.00    -0.126 OA
ENDBRANCH  15  20
BRANCH  17  23
ATOM     23  O   UNL     1      -6.166   5.295 -14.800  0.00  0.00    -0.491 OA
ATOM     24  C   UNL     1      -5.256   4.670 -15.707  0.00  0.00    +0.277 C 
ENDBRANCH  17  23
ENDBRANCH  12  13
ENDBRANCH   6  11
BRANCH   1  25
ATOM     25  S   UNL     1      -0.150   1.174  -5.119  0.00  0.00    -0.075 S 
BRANCH  25  26
ATOM     26  C   UNL     1      -0.997   1.758  -3.630  0.00  0.00    +0.173 C 
BRANCH  26  28
ATOM     27  N   UNL     1      -0.721   1.571  -1.179  0.00  0.00    -0.311 N 
ATOM     28  C   UNL     1      -0.268   1.258  -2.409  0.00  0.00    +0.224 C 
ATOM     29  O   UNL     1       0.726   0.575  -2.534  0.00  0.00    -0.275 OA
ATOM     30  H   UNL     1      -1.623   2.191  -1.066  0.00  0.00    +0.149 HD
BRANCH  27  31
ATOM     31  C   UNL     1      -0.013   1.086   0.008  0.00  0.00    +0.139 C 
BRANCH  31  35
ATOM     32  C   UNL     1      -2.013   2.464   3.524  0.00  0.00    +0.120 A 
ATOM     33  C   UNL     1      -2.368   1.250   2.954  0.00  0.00    +0.046 A 
ATOM     34  C   UNL     1      -1.720   0.807   1.817  0.00  0.00    +0.009 A 
ATOM     35  C   UNL     1      -0.718   1.572   1.248  0.00  0.00    -0.030 A 
ATOM     36  C   UNL     1      -0.359   2.779   1.818  0.00  0.00    +0.009 A 
ATOM     37  C   UNL     1      -1.008   3.230   2.951  0.00  0.00    +0.046 A 
BRANCH  32  39
ATOM     38  C   UNL     1      -2.232   4.161   5.174  0.00  0.00    +0.277 C 
ATOM     39  O   UNL     1      -2.649   2.902   4.642  0.00  0.00    -0.495 OA
ENDBRANCH  32  39
ENDBRANCH  31  35
ENDBRANCH  27  31
ENDBRANCH  26  28
ENDBRANCH  25  26
ENDBRANCH   1  25
TORSDOF 11
