REMARK  Name = ZINC41350336
REMARK  8 active torsions:
REMARK  status: ('A' for Active; 'I' for Inactive)
REMARK    1  A    between atoms: C_1  and  C_2
REMARK    2  A    between atoms: C_2  and  C_4
REMARK    3  A    between atoms: C_2  and  O_26
REMARK    4  A    between atoms: C_11  and  O_12
REMARK    5  A    between atoms: C_14  and  C_18
REMARK    6  A    between atoms: C_23  and  O_24
REMARK    7  A    between atoms: O_24  and  C_25
REMARK    8  A    between atoms: O_26  and  C_27
REMARK                            x       y       z     vdW  Elec       q    Type
REMARK                         _______ _______ _______ _____ _____    ______ ____
ROOT
ATOM      1  C   UNL     1      -1.491  -0.389  -0.040  0.00  0.00    +0.258 C 
ATOM      2  O   UNL     1      -2.066  -0.604  -1.093  0.00  0.00    -0.271 OA
ATOM      3  N   UNL     1      -2.169  -0.370   1.090  0.00  0.00    -0.282 N 
ATOM      4  C   UNL     1      -3.484  -0.724   1.101  0.00  0.00    +0.037 A 
ATOM      5  C   UNL     1      -4.025  -1.438   0.018  0.00  0.00    +0.024 A 
ATOM      6  C   UNL     1      -5.337  -1.796   0.018  0.00  0.00    +0.017 A 
ATOM      7  C   UNL     1      -6.158  -1.452   1.103  0.00  0.00    +0.059 A 
ATOM      8  C   UNL     1      -7.528  -1.817   1.122  0.00  0.00    +0.131 A 
ATOM      9  C   UNL     1      -8.297  -1.449   2.225  0.00  0.00    +0.093 A 
ATOM     10  C   UNL     1      -7.714  -0.747   3.264  0.00  0.00    +0.143 A 
ATOM     11  O   UNL     1      -6.417  -0.406   3.237  0.00  0.00    -0.454 OA
ATOM     12  C   UNL     1      -5.625  -0.735   2.195  0.00  0.00    +0.141 A 
ATOM     13  C   UNL     1      -4.287  -0.380   2.189  0.00  0.00    +0.070 A 
ATOM     14  H   UNL     1      -1.732  -0.104   1.914  0.00  0.00    +0.155 HD
ENDROOT
BRANCH  10  15
ATOM     15  C   UNL     1      -8.536  -0.364   4.423  0.00  0.00    +0.059 A 
ATOM     16  C   UNL     1      -9.855  -0.817   4.532  0.00  0.00    +0.015 A 
ATOM     17  C   UNL     1     -10.618  -0.456   5.620  0.00  0.00    +0.001 A 
ATOM     18  C   UNL     1     -10.085   0.357   6.609  0.00  0.00    +0.004 A 
ATOM     19  C   UNL     1      -8.785   0.812   6.515  0.00  0.00    +0.046 A 
ATOM     20  C   UNL     1      -7.999   0.454   5.430  0.00  0.00    +0.131 A 
BRANCH  20  21
ATOM     21  O   UNL     1      -6.720   0.896   5.339  0.00  0.00    -0.494 OA
ATOM     22  C   UNL     1      -6.243   1.724   6.401  0.00  0.00    +0.277 C 
ENDBRANCH  20  21
ENDBRANCH  10  15
BRANCH   1  24
ATOM     23  C   UNL     1       0.275   1.287   0.431  0.00  0.00    +0.062 C 
ATOM     24  C   UNL     1      -0.004  -0.145  -0.031  0.00  0.00    +0.256 C 
BRANCH  24  25
ATOM     25  O   UNL     1       0.518  -0.331  -1.348  0.00  0.00    -0.474 OA
BRANCH  25  26
ATOM     26  C   UNL     1       1.802  -0.769  -1.447  0.00  0.00    +0.198 A 
ATOM     27  C   UNL     1       2.846   0.145  -1.499  0.00  0.00    +0.206 A 
ATOM     28  C   UNL     1       4.153  -0.302  -1.600  0.00  0.00    +0.200 A 
ATOM     29  C   UNL     1       4.419  -1.662  -1.649  0.00  0.00    +0.199 A 
ATOM     30  C   UNL     1       3.378  -2.575  -1.598  0.00  0.00    +0.200 A 
ATOM     31  C   UNL     1       2.071  -2.130  -1.491  0.00  0.00    +0.206 A 
ATOM     32  F   UNL     1       1.056  -3.021  -1.435  0.00  0.00    -0.198 F 
ATOM     33  F   UNL     1       3.639  -3.900  -1.647  0.00  0.00    -0.199 F 
ATOM     34  F   UNL     1       5.694  -2.097  -1.748  0.00  0.00    -0.199 F 
ATOM     35  F   UNL     1       5.169   0.587  -1.651  0.00  0.00    -0.199 F 
ATOM     36  F   UNL     1       2.587   1.470  -1.452  0.00  0.00    -0.198 F 
ENDBRANCH  25  26
ENDBRANCH  24  25
ENDBRANCH   1  24
BRANCH   8  37
ATOM     37  O   UNL     1      -8.075  -2.504   0.095  0.00  0.00    -0.506 OA
ATOM     38  H   UNL     1      -9.015  -2.700   0.210  0.00  0.00    +0.292 HD
ENDBRANCH   8  37
TORSDOF 6
