REMARK  Name = ZINC06498431
REMARK  8 active torsions:
REMARK  status: ('A' for Active; 'I' for Inactive)
REMARK    1  A    between atoms: C_1  and  C_2
REMARK    2  A    between atoms: C_4  and  C_14
REMARK    3  A    between atoms: C_5  and  C_13
REMARK    4  A    between atoms: C_14  and  C_16
REMARK    5  A    between atoms: C_16  and  S_17
REMARK    6  A    between atoms: S_17  and  C_18
REMARK    7  A    between atoms: C_21  and  C_29
REMARK    8  A    between atoms: N_22  and  C_23
REMARK                            x       y       z     vdW  Elec       q    Type
REMARK                         _______ _______ _______ _____ _____    ______ ____
ROOT
ATOM      1  S   UNL     1       0.053  -4.927  -3.683  0.00  0.00    -0.078 S 
ENDROOT
BRANCH   1   2
ATOM      2  C   UNL     1       0.041  -4.629  -5.420  0.00  0.00    +0.197 A 
ATOM      3  N   UNL     1       0.028  -3.454  -6.010  0.00  0.00    -0.122 NA
ATOM      4  N   UNL     1       0.022  -3.600  -7.287  0.00  0.00    -0.128 NA
ATOM      5  C   UNL     1       0.031  -4.877  -7.593  0.00  0.00    +0.169 A 
ATOM      6  N   UNL     1       0.049  -5.577  -6.407  0.00  0.00    -0.270 N 
BRANCH   6   7
ATOM      7  C   UNL     1       0.068  -6.969  -6.244  0.00  0.00    +0.051 A 
ATOM      8  C   UNL     1       1.168  -7.703  -6.667  0.00  0.00    +0.026 A 
ATOM      9  C   UNL     1       1.184  -9.075  -6.506  0.00  0.00    +0.002 A 
ATOM     10  C   UNL     1       0.107  -9.717  -5.923  0.00  0.00    +0.000 A 
ATOM     11  C   UNL     1      -0.990  -8.988  -5.501  0.00  0.00    +0.002 A 
ATOM     12  C   UNL     1      -1.010  -7.615  -5.654  0.00  0.00    +0.026 A 
ENDBRANCH   6   7
BRANCH   5  13
ATOM     13  C   UNL     1       0.027  -5.454  -8.954  0.00  0.00    +0.020 A 
ATOM     14  C   UNL     1      -0.281  -6.802  -9.143  0.00  0.00    +0.011 A 
ATOM     15  C   UNL     1      -0.283  -7.334 -10.416  0.00  0.00    +0.001 A 
ATOM     16  C   UNL     1       0.020  -6.534 -11.503  0.00  0.00    +0.000 A 
ATOM     17  C   UNL     1       0.327  -5.197 -11.323  0.00  0.00    +0.001 A 
ATOM     18  C   UNL     1       0.327  -4.651 -10.056  0.00  0.00    +0.011 A 
ENDBRANCH   5  13
ENDBRANCH   1   2
BRANCH   1  19
ATOM     19  C   UNL     1       0.034  -3.266  -2.953  0.00  0.00    +0.157 C 
BRANCH  19  20
ATOM     20  C   UNL     1       0.042  -3.378  -1.450  0.00  0.00    +0.175 C 
ATOM     21  O   UNL     1       0.059  -4.471  -0.924  0.00  0.00    -0.291 OA
BRANCH  20  25
ATOM     22  C   UNL     1      -0.018   1.503   0.010  0.00  0.00    +0.064 C 
ATOM     23  C   UNL     1       0.002  -0.004   0.002  0.00  0.00    +0.024 A 
ATOM     24  C   UNL     1       0.008  -0.777  -1.097  0.00  0.00    +0.034 A 
ATOM     25  C   UNL     1       0.029  -2.168  -0.626  0.00  0.00    +0.039 A 
ATOM     26  C   UNL     1       0.035  -2.102   0.755  0.00  0.00    +0.034 A 
ATOM     27  N   UNL     1       0.024  -0.802   1.112  0.00  0.00    -0.285 N 
ATOM     28  C   UNL     1       0.030  -0.336   2.433  0.00  0.00    +0.254 A 
ATOM     29  N   UNL     1       0.057  -1.101   3.528  0.00  0.00    -0.200 NA
ATOM     30  C   UNL     1       0.055  -0.346   4.596  0.00  0.00    +0.218 A 
ATOM     31  N   UNL     1       0.026   0.939   4.202  0.00  0.00    -0.263 N 
ATOM     32  H   UNL     1       0.018   1.722   4.774  0.00  0.00    +0.190 HD
ATOM     33  N   UNL     1       0.016   0.924   2.798  0.00  0.00    -0.133 NA
ATOM     34  C   UNL     1       0.055  -3.277   1.697  0.00  0.00    +0.065 C 
ENDBRANCH  20  25
ENDBRANCH  19  20
ENDBRANCH   1  19
TORSDOF 6
