REMARK  Name = ZINC51168281
REMARK  3 active torsions:
REMARK  status: ('A' for Active; 'I' for Inactive)
REMARK    1  A    between atoms: C_6  and  C_7
REMARK    2  A    between atoms: C_11  and  N_13
REMARK    3  A    between atoms: N_13  and  N_14
REMARK                            x       y       z     vdW  Elec       q    Type
REMARK                         _______ _______ _______ _____ _____    ______ ____
ROOT
ATOM      1  C   UNL     1      -1.270  -0.765   0.011  0.00  0.00    +0.162 A 
ATOM      2  N   UNL     1      -1.231  -2.090   0.009  0.00  0.00    -0.232 NA
ATOM      3  C   UNL     1      -2.346  -2.806   0.016  0.00  0.00    +0.050 A 
ATOM      4  C   UNL     1      -3.563  -2.154   0.027  0.00  0.00    +0.015 A 
ATOM      5  C   UNL     1      -3.575  -0.757   0.029  0.00  0.00    +0.139 A 
ATOM      6  N   UNL     1      -2.419  -0.103   0.025  0.00  0.00    -0.211 NA
ATOM      7  C   UNL     1      -4.688  -3.163   0.034  0.00  0.00    +0.041 C 
ATOM      8  C   UNL     1      -4.039  -4.493  -0.409  0.00  0.00    +0.011 C 
ATOM      9  C   UNL     1      -2.568  -4.302   0.017  0.00  0.00    +0.056 C 
ENDROOT
BRANCH   1  15
ATOM     10  C   UNL     1      -0.017   1.389   0.010  0.00  0.00    +0.013 A 
ATOM     11  C   UNL     1       1.170   2.094   0.002  0.00  0.00    +0.022 A 
ATOM     12  C   UNL     1       2.378   1.419  -0.013  0.00  0.00    +0.059 A 
ATOM     13  C   UNL     1       2.403   0.033  -0.021  0.00  0.00    +0.060 A 
ATOM     14  C   UNL     1       1.221  -0.680  -0.014  0.00  0.00    +0.033 A 
ATOM     15  C   UNL     1       0.002  -0.004   0.002  0.00  0.00    +0.021 A 
ATOM     16 CL   UNL     1       3.922  -0.806  -0.040  0.00  0.00    -0.082 Cl
ATOM     17 CL   UNL     1       3.867   2.311  -0.023  0.00  0.00    -0.082 Cl
ENDBRANCH   1  15
BRANCH   5  18
ATOM     18  N   UNL     1      -4.775  -0.065   0.038  0.00  0.00    -0.267 N 
ATOM     19  H   UNL     1      -5.615  -0.550   0.044  0.00  0.00    +0.167 HD
BRANCH  18  20
ATOM     20  N   UNL     1      -4.775   1.301   0.040  0.00  0.00    -0.255 NA
ATOM     21  H   UNL     1      -5.717   1.663   0.048  0.00  0.00    +0.140 HD
ATOM     22  H   UNL     1      -4.244   1.662   0.818  0.00  0.00    +0.140 HD
ENDBRANCH  18  20
ENDBRANCH   5  18
TORSDOF 3
