REMARK  Name = ZINC20568199
REMARK  13 active torsions:
REMARK  status: ('A' for Active; 'I' for Inactive)
REMARK    1  A    between atoms: C_1  and  C_2
REMARK    2  A    between atoms: C_2  and  C_31
REMARK    3  A    between atoms: C_4  and  N_10
REMARK    4  A    between atoms: C_6  and  C_8
REMARK    5  A    between atoms: C_6  and  C_9
REMARK    6  A    between atoms: N_10  and  C_11
REMARK    7  A    between atoms: N_10  and  C_21
REMARK    8  A    between atoms: C_11  and  C_12
REMARK    9  A    between atoms: C_15  and  N_18
REMARK   10  A    between atoms: N_18  and  C_19
REMARK   11  A    between atoms: N_18  and  C_20
REMARK   12  A    between atoms: C_21  and  N_23
REMARK   13  A    between atoms: N_23  and  C_24
REMARK                            x       y       z     vdW  Elec       q    Type
REMARK                         _______ _______ _______ _____ _____    ______ ____
ROOT
ATOM      1  N   UNL     1      -2.444   1.359   2.779  0.00  0.00    -0.305 N 
ENDROOT
BRANCH   1   5
ATOM      2  C   UNL     1      -0.744   3.945   5.911  0.00  0.00    -0.010 C 
ATOM      3  C   UNL     1      -0.166   3.864   4.493  0.00  0.00    -0.072 C 
ATOM      4  C   UNL     1      -0.596   2.553   3.840  0.00  0.00    +0.009 C 
ATOM      5  C   UNL     1      -2.063   2.623   3.420  0.00  0.00    +0.073 C 
ATOM      6  C   UNL     1      -2.228   3.766   2.418  0.00  0.00    +0.009 C 
ATOM      7  C   UNL     1      -1.816   5.092   3.052  0.00  0.00    -0.072 C 
ATOM      8  N   UNL     1      -0.529   5.029   3.712  0.00  0.00    +0.386 N 
ATOM      9  C   UNL     1      -2.912   5.561   4.017  0.00  0.00    -0.010 C 
ATOM     10  C   UNL     1      -1.726   6.140   1.920  0.00  0.00    -0.010 C 
ATOM     11  C   UNL     1       1.373   3.835   4.628  0.00  0.00    -0.010 C 
ATOM     12  H   UNL     1      -0.520   5.920   4.357  0.00  0.00    -0.084 HD
ATOM     13  H   UNL     1       0.194   5.162   2.894  0.00  0.00    -0.084 HD
ENDBRANCH   1   5
BRANCH   1  14
ATOM     14  C   UNL     1      -1.830   0.967   1.645  0.00  0.00    +0.134 C 
ATOM     15  S   UNL     1      -0.515   1.872   1.027  0.00  0.00    -0.019 S 
BRANCH  14  16
ATOM     16  N   UNL     1      -2.251  -0.138   0.997  0.00  0.00    -0.324 N 
ATOM     17  H   UNL     1      -3.041  -0.765   1.437  0.00  0.00    +0.148 HD
BRANCH  16  18
ATOM     18  C   UNL     1      -1.658  -0.502  -0.292  0.00  0.00    +0.072 C 
ATOM     19  C   UNL     1      -0.405  -1.305  -0.067  0.00  0.00    +0.022 C 
ATOM     20  C   UNL     1       0.668  -1.036  -1.139  0.00  0.00    +0.002 C 
ATOM     21  C   UNL     1       0.082  -0.941  -2.560  0.00  0.00    +0.000 C 
ATOM     22  C   UNL     1      -0.968  -1.986  -2.821  0.00  0.00    +0.000 C 
ATOM     23  C   UNL     1      -2.352  -1.377  -2.519  0.00  0.00    +0.002 C 
ATOM     24  C   UNL     1      -2.654  -1.363  -1.095  0.00  0.00    +0.022 C 
ENDBRANCH  16  18
ENDBRANCH  14  16
ENDBRANCH   1  14
BRANCH   1  25
ATOM     25  C   UNL     1      -3.492   0.523   3.371  0.00  0.00    +0.142 C 
BRANCH  25  26
ATOM     26  C   UNL     1      -2.871  -0.448   4.341  0.00  0.00    -0.030 A 
ATOM     27  C   UNL     1      -2.456  -1.692   3.902  0.00  0.00    +0.007 A 
ATOM     28  C   UNL     1      -1.881  -2.582   4.788  0.00  0.00    +0.023 A 
ATOM     29  C   UNL     1      -1.731  -2.232   6.124  0.00  0.00    +0.029 A 
ATOM     30  C   UNL     1      -2.154  -0.983   6.562  0.00  0.00    +0.023 A 
ATOM     31  C   UNL     1      -2.722  -0.096   5.670  0.00  0.00    +0.007 A 
BRANCH  29  32
ATOM     32  N   UNL     1      -1.155  -3.131   7.023  0.00  0.00    -0.336 N 
ATOM     33  C   UNL     1      -0.881  -2.716   8.401  0.00  0.00    +0.129 C 
ATOM     34  C   UNL     1      -0.824  -4.491   6.589  0.00  0.00    +0.129 C 
ENDBRANCH  29  32
ENDBRANCH  25  26
ENDBRANCH   1  25
TORSDOF 7
