REMARK  Name = ZINC16026662
REMARK  11 active torsions:
REMARK  status: ('A' for Active; 'I' for Inactive)
REMARK    1  A    between atoms: C_1  and  C_2
REMARK    2  A    between atoms: C_2  and  O_3
REMARK    3  A    between atoms: O_3  and  C_4
REMARK    4  A    between atoms: C_4  and  C_6
REMARK    5  A    between atoms: C_9  and  N_12
REMARK    6  A    between atoms: C_13  and  C_15
REMARK    7  A    between atoms: C_18  and  C_31
REMARK    8  A    between atoms: C_23  and  C_30
REMARK    9  A    between atoms: C_31  and  C_32
REMARK   10  A    between atoms: C_32  and  C_33
REMARK   11  A    between atoms: C_32  and  C_34
REMARK                            x       y       z     vdW  Elec       q    Type
REMARK                         _______ _______ _______ _____ _____    ______ ____
ROOT
ATOM      1  C   UNL     1      -0.321   1.855   3.709  0.00  0.00    +0.076 C 
ATOM      2  C   UNL     1       0.053   0.849   2.595  0.00  0.00    -0.004 C 
ATOM      3  C   UNL     1      -0.595   1.472   1.332  0.00  0.00    -0.069 C 
ATOM      4  C   UNL     1      -0.618   3.166   2.972  0.00  0.00    +0.049 C 
ATOM      5  C   UNL     1       0.255   4.282   3.478  0.00  0.00    -0.027 A 
ATOM      6  C   UNL     1       1.619   4.468   3.524  0.00  0.00    +0.008 A 
ATOM      7  C   UNL     1       2.140   5.632   4.061  0.00  0.00    -0.050 A 
ATOM      8  C   UNL     1       1.289   6.605   4.551  0.00  0.00    +0.005 A 
ATOM      9  C   UNL     1      -0.077   6.422   4.509  0.00  0.00    +0.024 A 
ATOM     10  C   UNL     1      -0.611   5.253   3.970  0.00  0.00    +0.036 A 
ATOM     11  N   UNL     1      -1.936   4.841   3.816  0.00  0.00    -0.286 N 
ATOM     12  C   UNL     1      -2.027   3.628   3.241  0.00  0.00    +0.211 C 
ATOM     13  O   UNL     1      -3.048   3.022   2.988  0.00  0.00    -0.277 OA
ATOM     14  C   UNL     1       3.632   5.838   4.111  0.00  0.00    +0.044 C 
ATOM     15  H   UNL     1      -2.702   5.368   4.092  0.00  0.00    +0.155 HD
ATOM     16  N   UNL     1      -0.410   2.915   1.553  0.00  0.00    +0.394 N 
ATOM     17  H   UNL     1      -1.092   3.445   0.999  0.00  0.00    -0.083 HD
ATOM     18  H   UNL     1       0.541   3.192   1.283  0.00  0.00    -0.083 HD
ENDROOT
BRANCH   1  20
ATOM     19  N   UNL     1      -1.774   1.807   5.711  0.00  0.00    -0.285 N 
ATOM     20  C   UNL     1      -1.544   1.383   4.453  0.00  0.00    +0.220 C 
ATOM     21  O   UNL     1      -2.322   0.621   3.918  0.00  0.00    -0.275 OA
ATOM     22  H   UNL     1      -1.190   2.468   6.114  0.00  0.00    +0.155 HD
BRANCH  19  26
ATOM     23  C   UNL     1      -4.992   0.280   7.870  0.00  0.00    +0.059 A 
ATOM     24  C   UNL     1      -3.795   0.588   8.522  0.00  0.00    +0.017 A 
ATOM     25  C   UNL     1      -2.733   1.092   7.805  0.00  0.00    +0.024 A 
ATOM     26  C   UNL     1      -2.851   1.296   6.434  0.00  0.00    +0.033 A 
ATOM     27  C   UNL     1      -4.043   0.995   5.782  0.00  0.00    +0.024 A 
ATOM     28  C   UNL     1      -5.107   0.485   6.492  0.00  0.00    +0.017 A 
BRANCH  23  29
ATOM     29  C   UNL     1      -6.132  -0.260   8.634  0.00  0.00    +0.339 C 
ATOM     30  O   UNL     1      -6.031  -0.437   9.832  0.00  0.00    -0.245 OA
BRANCH  29  31
ATOM     31  O   UNL     1      -7.286  -0.557   8.004  0.00  0.00    -0.461 OA
BRANCH  31  33
ATOM     32  C   UNL     1      -9.584  -1.359   7.936  0.00  0.00    +0.048 C 
ATOM     33  C   UNL     1      -8.365  -1.084   8.819  0.00  0.00    +0.229 C 
ENDBRANCH  31  33
ENDBRANCH  29  31
ENDBRANCH  23  29
ENDBRANCH  19  26
ENDBRANCH   1  20
BRANCH   3  34
ATOM     34  C   UNL     1       0.128   1.004   0.068  0.00  0.00    -0.013 C 
BRANCH  34  35
ATOM     35  C   UNL     1      -0.607   1.533  -1.165  0.00  0.00    -0.019 C 
ATOM     36  C   UNL     1      -0.522   3.060  -1.193  0.00  0.00    +0.007 C 
ATOM     37  C   UNL     1       0.041   0.963  -2.429  0.00  0.00    +0.007 C 
ENDBRANCH  34  35
ENDBRANCH   3  34
TORSDOF 7
