REMARK  Name = ZINC13733708
REMARK  3 active torsions:
REMARK  status: ('A' for Active; 'I' for Inactive)
REMARK    1  A    between atoms: C_5  and  N_7
REMARK    2  A    between atoms: C_8  and  C_10
REMARK    3  A    between atoms: N_13  and  C_15
REMARK                            x       y       z     vdW  Elec       q    Type
REMARK                         _______ _______ _______ _____ _____    ______ ____
ROOT
ATOM      1  C   UNL     1       1.082   5.363  -1.343  0.00  0.00    +0.151 A 
ATOM      2  C   UNL     1       1.705   5.668  -0.121  0.00  0.00    +0.006 A 
ATOM      3  C   UNL     1       1.907   4.481   0.501  0.00  0.00    +0.044 A 
ATOM      4  N   UNL     1       1.435   3.521  -0.311  0.00  0.00    -0.263 N 
ATOM      5  N   UNL     1       0.954   4.047  -1.384  0.00  0.00    -0.166 NA
ATOM      6  C   UNL     1       2.556   4.341   1.854  0.00  0.00    +0.055 C 
ATOM      7  C   UNL     1       3.285   5.652   2.177  0.00  0.00    +0.006 C 
ATOM      8  C   UNL     1       2.340   6.835   1.953  0.00  0.00    +0.005 C 
ATOM      9  C   UNL     1       2.088   7.007   0.447  0.00  0.00    +0.039 C 
ENDROOT
BRANCH   4  10
ATOM     10  C   UNL     1       1.458   2.086  -0.017  0.00  0.00    +0.130 C 
ATOM     11  C   UNL     1       0.022   1.536   0.002  0.00  0.00    +0.051 C 
ATOM     12  C   UNL     1       0.049  -0.011  -0.009  0.00  0.00    +0.168 C 
ATOM     13  S   UNL     1       1.625  -0.381  -0.883  0.00  0.00    -0.029 S 
ATOM     14  O   UNL     1       2.496  -1.068   0.005  0.00  0.00    -0.174 OA
ATOM     15  O   UNL     1       1.327  -0.950  -2.151  0.00  0.00    -0.174 OA
ATOM     16  C   UNL     1       2.249   1.335  -1.127  0.00  0.00    +0.192 C 
ENDBRANCH   4  10
BRANCH   1  18
ATOM     17  N   UNL     1       0.067   5.880  -3.509  0.00  0.00    -0.278 N 
ATOM     18  C   UNL     1       0.655   6.324  -2.380  0.00  0.00    +0.269 C 
ATOM     19  O   UNL     1       0.834   7.515  -2.216  0.00  0.00    -0.268 OA
ATOM     20  H   UNL     1      -0.018   4.927  -3.669  0.00  0.00    +0.155 HD
BRANCH  17  25
ATOM     21  C   UNL     1      -0.243   8.894  -5.592  0.00  0.00    +0.002 A 
ATOM     22  C   UNL     1      -1.389   8.602  -6.309  0.00  0.00    +0.003 A 
ATOM     23  C   UNL     1      -2.055   7.409  -6.098  0.00  0.00    +0.040 A 
ATOM     24  C   UNL     1      -1.575   6.503  -5.170  0.00  0.00    +0.144 A 
ATOM     25  C   UNL     1      -0.422   6.794  -4.449  0.00  0.00    +0.069 A 
ATOM     26  C   UNL     1       0.239   7.996  -4.660  0.00  0.00    +0.026 A 
ATOM     27  F   UNL     1      -2.225   5.337  -4.964  0.00  0.00    -0.204 F 
ENDBRANCH  17  25
ENDBRANCH   1  18
TORSDOF 3
