REMARK  Name = ZINC36818469
REMARK  11 active torsions:
REMARK  status: ('A' for Active; 'I' for Inactive)
REMARK    1  A    between atoms: C_1  and  C_2
REMARK    2  A    between atoms: C_3  and  C_32
REMARK    3  A    between atoms: N_9  and  C_29
REMARK    4  A    between atoms: C_10  and  S_12
REMARK    5  A    between atoms: S_12  and  C_13
REMARK    6  A    between atoms: C_13  and  C_15
REMARK    7  A    between atoms: C_13  and  C_16
REMARK    8  A    between atoms: N_18  and  C_19
REMARK    9  A    between atoms: C_21  and  N_26
REMARK   10  A    between atoms: C_29  and  C_30
REMARK   11  A    between atoms: C_29  and  C_31
REMARK                            x       y       z     vdW  Elec       q    Type
REMARK                         _______ _______ _______ _____ _____    ______ ____
ROOT
ATOM      1  S   UNL     1       0.071  -3.590   4.762  0.00  0.00    -0.075 S 
ENDROOT
BRANCH   1  11
ATOM      2  C   UNL     1      -0.093   1.518   0.034  0.00  0.00    +0.045 C 
ATOM      3  C   UNL     1      -0.064   0.011   0.021  0.00  0.00    -0.026 A 
ATOM      4  C   UNL     1      -0.061  -0.658  -1.141  0.00  0.00    -0.008 A 
ATOM      5  S   UNL     1      -0.023  -2.367  -0.636  0.00  0.00    -0.073 S 
ATOM      6  C   UNL     1      -0.012  -2.134   1.123  0.00  0.00    +0.117 A 
ATOM      7  C   UNL     1      -0.032  -0.734   1.268  0.00  0.00    +0.075 A 
ATOM      8  C   UNL     1      -0.023  -0.247   2.613  0.00  0.00    +0.263 A 
ATOM      9  O   UNL     1      -0.044   0.951   2.837  0.00  0.00    -0.267 OA
ATOM     10  N   UNL     1       0.008  -1.129   3.629  0.00  0.00    -0.285 N 
ATOM     11  C   UNL     1       0.031  -2.474   3.398  0.00  0.00    +0.174 A 
ATOM     12  N   UNL     1       0.013  -2.950   2.170  0.00  0.00    -0.216 NA
ATOM     13  C   UNL     1      -0.085  -0.098  -2.541  0.00  0.00    +0.052 C 
BRANCH  10  14
ATOM     14  C   UNL     1       0.017  -0.636   5.009  0.00  0.00    +0.087 C 
ATOM     15  C   UNL     1       1.253   0.238   5.229  0.00  0.00    +0.031 C 
ATOM     16  C   UNL     1      -1.245   0.190   5.264  0.00  0.00    +0.031 C 
ENDBRANCH  10  14
ENDBRANCH   1  11
BRANCH   1  17
ATOM     17  C   UNL     1       0.093  -5.229   3.987  0.00  0.00    +0.137 C 
ATOM     18  C   UNL     1       1.393  -5.405   3.200  0.00  0.00    +0.029 C 
BRANCH  17  19
ATOM     19  C   UNL     1       0.004  -6.290   5.053  0.00  0.00    +0.230 C 
ATOM     20  O   UNL     1       0.294  -6.023   6.200  0.00  0.00    -0.274 OA
ATOM     21  N   UNL     1      -0.397  -7.536   4.733  0.00  0.00    -0.283 N 
ATOM     22  H   UNL     1      -0.691  -7.734   3.830  0.00  0.00    +0.155 HD
BRANCH  21  23
ATOM     23  C   UNL     1      -0.390  -8.545   5.703  0.00  0.00    +0.054 A 
ATOM     24  C   UNL     1      -0.685  -8.241   7.025  0.00  0.00    +0.057 A 
ATOM     25  C   UNL     1      -0.678  -9.239   7.980  0.00  0.00    +0.128 A 
ATOM     26  C   UNL     1      -0.377 -10.540   7.621  0.00  0.00    +0.034 A 
ATOM     27  C   UNL     1      -0.083 -10.847   6.306  0.00  0.00    +0.024 A 
ATOM     28  C   UNL     1      -0.093  -9.854   5.344  0.00  0.00    +0.062 A 
ATOM     29 CL   UNL     1       0.270 -10.242   3.691  0.00  0.00    -0.082 Cl
BRANCH  25  30
ATOM     30  N   UNL     1      -0.992  -8.915   9.390  0.00  0.00    +0.056 N 
ATOM     31  O   UNL     1      -1.255  -7.778   9.705  0.00  0.00    -0.126 OA
ATOM     32  O   UNL     1      -0.986  -9.788  10.227  0.00  0.00    -0.126 OA
ENDBRANCH  25  30
ENDBRANCH  21  23
ENDBRANCH  17  19
ENDBRANCH   1  17
TORSDOF 6
