REMARK  Name = ZINC09598898
REMARK  10 active torsions:
REMARK  status: ('A' for Active; 'I' for Inactive)
REMARK    1  A    between atoms: C_1  and  C_2
REMARK    2  A    between atoms: C_4  and  C_38
REMARK    3  A    between atoms: C_5  and  C_9
REMARK    4  A    between atoms: C_6  and  C_8
REMARK    5  A    between atoms: C_9  and  N_10
REMARK    6  A    between atoms: N_18  and  C_21
REMARK    7  A    between atoms: C_24  and  C_27
REMARK    8  A    between atoms: C_27  and  C_28
REMARK    9  A    between atoms: N_30  and  C_31
REMARK   10  A    between atoms: C_31  and  C_32
REMARK                            x       y       z     vdW  Elec       q    Type
REMARK                         _______ _______ _______ _____ _____    ______ ____
ROOT
ATOM      1  N   UNL     1       1.947   1.270  -2.275  0.00  0.00    -0.288 N 
ATOM      2  C   UNL     1       0.690   1.178  -1.655  0.00  0.00    +0.066 A 
ATOM      3  C   UNL     1       0.321   0.469  -0.516  0.00  0.00    +0.034 A 
ATOM      4  C   UNL     1      -0.959   0.513  -0.077  0.00  0.00    +0.048 A 
ATOM      5  S   UNL     1      -1.742   1.551  -1.225  0.00  0.00    -0.090 S 
ATOM      6  C   UNL     1      -0.344   1.899  -2.259  0.00  0.00    +0.101 A 
ATOM      7  C   UNL     1      -0.129   2.660  -3.411  0.00  0.00    +0.275 A 
ATOM      8  O   UNL     1      -1.045   3.280  -3.922  0.00  0.00    -0.266 OA
ATOM      9  N   UNL     1       1.111   2.699  -3.950  0.00  0.00    -0.228 N 
ATOM     10  C   UNL     1       2.115   2.011  -3.380  0.00  0.00    +0.337 A 
ATOM     11  O   UNL     1       3.219   2.064  -3.885  0.00  0.00    -0.246 OA
ENDROOT
BRANCH   9  12
ATOM     12  C   UNL     1       1.349   3.457  -5.104  0.00  0.00    +0.054 A 
ATOM     13  C   UNL     1       2.136   4.598  -5.037  0.00  0.00    +0.027 A 
ATOM     14  C   UNL     1       2.374   5.340  -6.178  0.00  0.00    +0.006 A 
ATOM     15  C   UNL     1       1.818   4.953  -7.384  0.00  0.00    -0.038 A 
ATOM     16  C   UNL     1       1.029   3.820  -7.453  0.00  0.00    +0.006 A 
ATOM     17  C   UNL     1       0.792   3.071  -6.317  0.00  0.00    +0.027 A 
BRANCH  15  18
ATOM     18  C   UNL     1       2.075   5.768  -8.626  0.00  0.00    +0.130 C 
BRANCH  18  19
ATOM     19  C   UNL     1       1.009   6.825  -8.762  0.00  0.00    +0.218 C 
ATOM     20  O   UNL     1       0.128   6.908  -7.932  0.00  0.00    -0.275 OA
ATOM     21  N   UNL     1       1.035   7.677  -9.805  0.00  0.00    -0.311 N 
ATOM     22  H   UNL     1       1.739   7.610 -10.469  0.00  0.00    +0.149 HD
BRANCH  21  23
ATOM     23  C   UNL     1      -0.001   8.704  -9.938  0.00  0.00    +0.139 C 
BRANCH  23  24
ATOM     24  C   UNL     1       0.255   9.519 -11.180  0.00  0.00    -0.030 A 
ATOM     25  C   UNL     1       1.040  10.655 -11.111  0.00  0.00    +0.005 A 
ATOM     26  C   UNL     1       1.279  11.400 -12.251  0.00  0.00    +0.000 A 
ATOM     27  C   UNL     1       0.725  11.014 -13.457  0.00  0.00    +0.000 A 
ATOM     28  C   UNL     1      -0.064   9.881 -13.525  0.00  0.00    +0.000 A 
ATOM     29  C   UNL     1      -0.299   9.133 -12.386  0.00  0.00    +0.005 A 
ENDBRANCH  23  24
ENDBRANCH  21  23
ENDBRANCH  18  19
ENDBRANCH  15  18
ENDBRANCH   9  12
BRANCH   1  30
ATOM     30  C   UNL     1       3.088   0.546  -1.709  0.00  0.00    +0.162 C 
BRANCH  30  35
ATOM     31  C   UNL     1       4.137  -4.176  -4.869  0.00  0.00    +0.044 C 
ATOM     32  C   UNL     1       3.864  -2.945  -4.045  0.00  0.00    -0.050 A 
ATOM     33  C   UNL     1       4.743  -1.879  -4.083  0.00  0.00    +0.007 A 
ATOM     34  C   UNL     1       4.492  -0.749  -3.326  0.00  0.00    -0.045 A 
ATOM     35  C   UNL     1       3.362  -0.685  -2.533  0.00  0.00    -0.022 A 
ATOM     36  C   UNL     1       2.485  -1.753  -2.492  0.00  0.00    -0.045 A 
ATOM     37  C   UNL     1       2.734  -2.881  -3.251  0.00  0.00    +0.007 A 
ATOM     38  C   UNL     1       1.256  -1.686  -1.622  0.00  0.00    +0.044 C 
ATOM     39  C   UNL     1       5.450   0.413  -3.367  0.00  0.00    +0.044 C 
ENDBRANCH  30  35
ENDBRANCH   1  30
TORSDOF 7
