REMARK  Name = ZINC09612272
REMARK  6 active torsions:
REMARK  status: ('A' for Active; 'I' for Inactive)
REMARK    1  A    between atoms: C_1  and  C_2
REMARK    2  A    between atoms: C_2  and  C_3
REMARK    3  A    between atoms: C_2  and  N_4
REMARK    4  A    between atoms: N_4  and  C_5
REMARK    5  A    between atoms: C_7  and  N_22
REMARK    6  A    between atoms: N_25  and  C_28
REMARK                            x       y       z     vdW  Elec       q    Type
REMARK                         _______ _______ _______ _____ _____    ______ ____
ROOT
ATOM      1  C   UNL     1      -2.411  -0.185   0.025  0.00  0.00    +0.041 A 
ATOM      2  C   UNL     1      -2.464   1.214   0.032  0.00  0.00    +0.049 A 
ATOM      3  C   UNL     1      -1.361   2.046   0.021  0.00  0.00    +0.061 A 
ATOM      4  C   UNL     1      -0.018   1.454   0.010  0.00  0.00    +0.136 A 
ATOM      5  C   UNL     1       0.002  -0.004   0.002  0.00  0.00    +0.063 A 
ATOM      6  C   UNL     1      -1.169  -0.838   0.010  0.00  0.00    +0.056 A 
ATOM      7  C   UNL     1      -0.951  -2.235   0.001  0.00  0.00    +0.196 C 
ATOM      8  O   UNL     1      -1.888  -3.017   0.007  0.00  0.00    -0.287 OA
ATOM      9  C   UNL     1       0.447  -2.721  -0.016  0.00  0.00    +0.033 A 
ATOM     10  C   UNL     1       0.684  -4.100  -0.024  0.00  0.00    +0.012 A 
ATOM     11  C   UNL     1       1.973  -4.581  -0.043  0.00  0.00    +0.001 A 
ATOM     12  C   UNL     1       3.054  -3.709  -0.054  0.00  0.00    +0.001 A 
ATOM     13  C   UNL     1       2.851  -2.348  -0.044  0.00  0.00    +0.012 A 
ATOM     14  C   UNL     1       1.552  -1.835  -0.025  0.00  0.00    +0.031 A 
ATOM     15  C   UNL     1       1.318  -0.391  -0.013  0.00  0.00    +0.176 A 
ATOM     16  O   UNL     1       1.983   0.770  -0.013  0.00  0.00    -0.353 OA
ATOM     17  N   UNL     1       1.250   1.758  -0.000  0.00  0.00    -0.076 NA
ENDROOT
BRANCH   3  18
ATOM     18  N   UNL     1      -1.521   3.416   0.029  0.00  0.00    -0.325 N 
ATOM     19  C   UNL     1      -2.176   3.863   1.266  0.00  0.00    +0.124 C 
ATOM     20  C   UNL     1      -2.262   5.391   1.272  0.00  0.00    +0.124 C 
ATOM     21  N   UNL     1      -3.011   5.841   0.090  0.00  0.00    -0.325 N 
ATOM     22  C   UNL     1      -2.356   5.394  -1.147  0.00  0.00    +0.124 C 
ATOM     23  C   UNL     1      -2.270   3.866  -1.152  0.00  0.00    +0.124 C 
BRANCH  21  24
ATOM     24  C   UNL     1      -3.173   7.230   0.098  0.00  0.00    +0.065 A 
ATOM     25  C   UNL     1      -3.918   7.850  -0.896  0.00  0.00    +0.026 A 
ATOM     26  C   UNL     1      -4.079   9.222  -0.883  0.00  0.00    +0.002 A 
ATOM     27  C   UNL     1      -3.491   9.980   0.113  0.00  0.00    +0.003 A 
ATOM     28  C   UNL     1      -2.744   9.368   1.103  0.00  0.00    +0.040 A 
ATOM     29  C   UNL     1      -2.582   7.995   1.099  0.00  0.00    +0.144 A 
ATOM     30  F   UNL     1      -1.851   7.396   2.065  0.00  0.00    -0.204 F 
ENDBRANCH  21  24
ENDBRANCH   3  18
BRANCH   1  31
ATOM     31  N   UNL     1      -3.578  -0.921   0.034  0.00  0.00    -0.341 N 
ATOM     32  H   UNL     1      -3.540  -1.890   0.029  0.00  0.00    +0.146 HD
BRANCH  31  34
ATOM     33  C   UNL     1      -5.940  -1.154  -0.553  0.00  0.00    +0.027 C 
ATOM     34  C   UNL     1      -4.874  -0.238   0.050  0.00  0.00    +0.064 C 
ATOM     35  C   UNL     1      -5.252   0.105   1.492  0.00  0.00    +0.027 C 
ENDBRANCH  31  34
ENDBRANCH   1  31
TORSDOF 4
