REMARK  Name = ZINC39945008
REMARK  6 active torsions:
REMARK  status: ('A' for Active; 'I' for Inactive)
REMARK    1  A    between atoms: C_3  and  C_9
REMARK    2  A    between atoms: C_11  and  S_15
REMARK    3  A    between atoms: S_15  and  C_16
REMARK    4  A    between atoms: C_16  and  C_17
REMARK    5  A    between atoms: N_19  and  C_20
REMARK    6  A    between atoms: C_22  and  C_31
REMARK                            x       y       z     vdW  Elec       q    Type
REMARK                         _______ _______ _______ _____ _____    ______ ____
ROOT
ATOM      1  C   UNL     1       9.187   0.114  -0.614  0.00  0.00    +0.224 C 
ATOM      2  O   UNL     1       9.985   0.905  -1.070  0.00  0.00    -0.275 OA
ATOM      3  N   UNL     1       9.614  -1.068  -0.126  0.00  0.00    -0.302 N 
ATOM      4  H   UNL     1       8.976  -1.701   0.238  0.00  0.00    +0.150 HD
ENDROOT
BRANCH   3   5
ATOM      5  C   UNL     1      11.042  -1.396  -0.145  0.00  0.00    +0.151 C 
ATOM      6  C   UNL     1      11.422  -2.347   1.014  0.00  0.00    +0.132 C 
ATOM      7  C   UNL     1      12.773  -2.008   1.591  0.00  0.00    -0.046 C 
ATOM      8  C   UNL     1      13.261  -0.798   1.345  0.00  0.00    -0.013 C 
ATOM      9  S   UNL     1      12.075   0.054   0.329  0.00  0.00    -0.106 S 
ATOM     10  C   UNL     1      14.572  -0.237   1.823  0.00  0.00    +0.042 C 
ATOM     11  C   UNL     1      15.112  -1.131   2.945  0.00  0.00    +0.005 C 
ATOM     12  C   UNL     1      15.022  -2.591   2.489  0.00  0.00    +0.005 C 
ATOM     13  C   UNL     1      13.555  -3.016   2.431  0.00  0.00    +0.032 C 
BRANCH   6  14
ATOM     14  C   UNL     1      10.384  -2.237   2.101  0.00  0.00    +0.220 C 
ATOM     15  O   UNL     1      10.471  -1.363   2.937  0.00  0.00    -0.275 OA
ATOM     16  N   UNL     1       9.359  -3.111   2.144  0.00  0.00    -0.329 N 
ATOM     17  H   UNL     1       9.327  -3.853   1.520  0.00  0.00    +0.145 HD
ATOM     18  H   UNL     1       8.652  -2.998   2.800  0.00  0.00    +0.145 HD
ENDBRANCH   6  14
ENDBRANCH   3   5
BRANCH   1  19
ATOM     19  C   UNL     1       7.719   0.451  -0.595  0.00  0.00    +0.173 C 
BRANCH  19  20
ATOM     20  S   UNL     1       7.466   2.096  -1.315  0.00  0.00    -0.077 S 
BRANCH  20  23
ATOM     21  C   UNL     1       3.616   2.007  -0.819  0.00  0.00    +0.184 A 
ATOM     22  N   UNL     1       4.850   1.490  -0.728  0.00  0.00    -0.201 NA
ATOM     23  C   UNL     1       5.724   2.341  -1.220  0.00  0.00    +0.185 A 
ATOM     24  N   UNL     1       5.051   3.435  -1.641  0.00  0.00    -0.253 N 
ATOM     25  H   UNL     1       5.432   4.229  -2.049  0.00  0.00    +0.191 HD
ATOM     26  N   UNL     1       3.693   3.195  -1.376  0.00  0.00    -0.152 NA
BRANCH  21  29
ATOM     27  C   UNL     1      -0.018   1.367  -0.103  0.00  0.00    +0.021 A 
ATOM     28  C   UNL     1       1.141   1.987  -0.523  0.00  0.00    +0.014 A 
ATOM     29  C   UNL     1       2.368   1.345  -0.368  0.00  0.00    +0.039 A 
ATOM     30  C   UNL     1       2.417   0.077   0.211  0.00  0.00    +0.053 A 
ATOM     31  C   UNL     1       1.252  -0.535   0.627  0.00  0.00    +0.040 A 
ATOM     32  C   UNL     1       0.036   0.108   0.471  0.00  0.00    +0.042 A 
ATOM     33 CL   UNL     1      -1.426  -0.666   0.997  0.00  0.00    -0.083 Cl
ATOM     34 CL   UNL     1       3.942  -0.730   0.406  0.00  0.00    -0.083 Cl
ENDBRANCH  21  29
ENDBRANCH  20  23
ENDBRANCH  19  20
ENDBRANCH   1  19
TORSDOF 6
