REMARK  Name = ZINC20212629
REMARK  9 active torsions:
REMARK  status: ('A' for Active; 'I' for Inactive)
REMARK    1  A    between atoms: C_1  and  C_2
REMARK    2  A    between atoms: C_2  and  C_3
REMARK    3  A    between atoms: C_6  and  C_9
REMARK    4  A    between atoms: C_11  and  C_20
REMARK    5  A    between atoms: N_22  and  C_23
REMARK    6  A    between atoms: C_23  and  C_25
REMARK    7  A    between atoms: C_23  and  C_26
REMARK    8  A    between atoms: C_26  and  N_27
REMARK    9  A    between atoms: C_30  and  C_33
REMARK                            x       y       z     vdW  Elec       q    Type
REMARK                         _______ _______ _______ _____ _____    ______ ____
ROOT
ATOM      1  C   UNL     1       3.118   3.078  -6.896  0.00  0.00    +0.072 A 
ATOM      2  C   UNL     1       2.452   3.782  -5.881  0.00  0.00    +0.042 A 
ATOM      3  C   UNL     1       1.133   4.168  -6.072  0.00  0.00    +0.048 A 
ATOM      4  C   UNL     1       0.505   3.805  -7.343  0.00  0.00    +0.014 A 
ATOM      5  C   UNL     1      -0.818   4.156  -7.630  0.00  0.00    +0.026 A 
ATOM      6  C   UNL     1      -1.364   3.803  -8.830  0.00  0.00    +0.019 A 
ATOM      7  C   UNL     1      -0.616   3.102  -9.775  0.00  0.00    +0.017 A 
ATOM      8  C   UNL     1       0.675   2.751  -9.530  0.00  0.00    +0.029 A 
ATOM      9  C   UNL     1       1.272   3.098  -8.303  0.00  0.00    +0.072 A 
ATOM     10  N   UNL     1       2.535   2.767  -8.034  0.00  0.00    -0.247 NA
ATOM     11 BR   UNL     1      -3.155   4.270  -9.215  0.00  0.00    -0.050 Br
ENDROOT
BRANCH   1  15
ATOM     12  C   UNL     1       7.159   1.912  -6.273  0.00  0.00    -0.048 A 
ATOM     13  C   UNL     1       6.526   1.595  -7.462  0.00  0.00    +0.004 A 
ATOM     14  C   UNL     1       5.214   1.971  -7.669  0.00  0.00    +0.010 A 
ATOM     15  C   UNL     1       4.527   2.671  -6.679  0.00  0.00    +0.000 A 
ATOM     16  C   UNL     1       5.172   2.992  -5.485  0.00  0.00    +0.010 A 
ATOM     17  C   UNL     1       6.482   2.607  -5.287  0.00  0.00    +0.004 A 
BRANCH  12  19
ATOM     18  C   UNL     1       9.523   2.607  -6.549  0.00  0.00    +0.009 C 
ATOM     19  C   UNL     1       8.592   1.500  -6.053  0.00  0.00    +0.032 C 
ENDBRANCH  12  19
ENDBRANCH   1  15
BRANCH   3  20
ATOM     20  C   UNL     1       0.391   4.911  -5.031  0.00  0.00    +0.245 C 
ATOM     21  O   UNL     1      -0.727   5.327  -5.263  0.00  0.00    -0.270 OA
ATOM     22  N   UNL     1       0.954   5.126  -3.825  0.00  0.00    -0.311 N 
ATOM     23  H   UNL     1       1.966   4.749  -3.616  0.00  0.00    +0.149 HD
BRANCH  22  24
ATOM     24  C   UNL     1       0.218   5.862  -2.794  0.00  0.00    +0.054 C 
ATOM     25  C   UNL     1       0.424   7.364  -2.995  0.00  0.00    +0.026 C 
BRANCH  24  26
ATOM     26  C   UNL     1       0.735   5.456  -1.412  0.00  0.00    -0.057 C 
BRANCH  26  27
ATOM     27  N   UNL     1       0.648   3.997  -1.265  0.00  0.00    +0.381 N 
ATOM     28  C   UNL     1       1.348   3.547  -0.056  0.00  0.00    -0.078 C 
ATOM     29  C   UNL     1       1.362   2.018  -0.012  0.00  0.00    -0.016 C 
ATOM     30  C   UNL     1      -0.079   1.499  -0.013  0.00  0.00    -0.018 C 
ATOM     31  C   UNL     1      -0.800   2.021  -1.258  0.00  0.00    -0.016 C 
ATOM     32  C   UNL     1      -0.751   3.551  -1.266  0.00  0.00    -0.078 C 
ATOM     33  C   UNL     1      -0.071  -0.031  -0.031  0.00  0.00    +0.007 C 
ATOM     34  H   UNL     1       1.146   3.538  -2.132  0.00  0.00    -0.082 HD
ENDBRANCH  26  27
ENDBRANCH  24  26
ENDBRANCH  22  24
ENDBRANCH   3  20
TORSDOF 6
