REMARK  Name = ZINC13561615
REMARK  7 active torsions:
REMARK  status: ('A' for Active; 'I' for Inactive)
REMARK    1  A    between atoms: C_1  and  C_2
REMARK    2  A    between atoms: C_4  and  N_27
REMARK    3  A    between atoms: C_11  and  C_14
REMARK    4  A    between atoms: N_16  and  C_17
REMARK    5  A    between atoms: C_17  and  C_18
REMARK    6  A    between atoms: N_27  and  C_28
REMARK    7  A    between atoms: C_28  and  C_29
REMARK                            x       y       z     vdW  Elec       q    Type
REMARK                         _______ _______ _______ _____ _____    ______ ____
ROOT
ATOM      1  C   UNL     1       4.902   1.565  -0.038  0.00  0.00    +0.066 C 
ATOM      2  C   UNL     1       3.558   2.246  -0.020  0.00  0.00    +0.045 A 
ATOM      3  C   UNL     1       2.397   1.498  -0.007  0.00  0.00    +0.066 A 
ATOM      4  C   UNL     1       1.172   2.170   0.003  0.00  0.00    +0.124 A 
ATOM      5  N   UNL     1       1.166   3.499   0.010  0.00  0.00    -0.200 NA
ATOM      6  C   UNL     1       2.302   4.179   0.003  0.00  0.00    +0.220 A 
ATOM      7  N   UNL     1       3.478   3.568  -0.013  0.00  0.00    -0.219 NA
ATOM      8  N   UNL     1       2.260   5.562   0.010  0.00  0.00    -0.300 N 
ATOM      9  C   UNL     1       1.463   6.071  -1.113  0.00  0.00    +0.108 C 
ATOM     10  C   UNL     1       1.318   7.590  -0.991  0.00  0.00    +0.032 C 
ATOM     11  C   UNL     1       2.707   8.233  -0.994  0.00  0.00    +0.078 C 
ATOM     12  C   UNL     1       3.533   7.650   0.156  0.00  0.00    +0.032 C 
ATOM     13  C   UNL     1       3.615   6.130   0.000  0.00  0.00    +0.108 C 
ENDROOT
BRANCH  11  14
ATOM     14  C   UNL     1       2.573   9.723  -0.814  0.00  0.00    +0.216 C 
ATOM     15  O   UNL     1       3.087  10.267   0.141  0.00  0.00    -0.276 OA
ATOM     16  N   UNL     1       1.882  10.451  -1.713  0.00  0.00    -0.311 N 
ATOM     17  H   UNL     1       1.471  10.016  -2.476  0.00  0.00    +0.149 HD
BRANCH  16  18
ATOM     18  C   UNL     1       1.752  11.900  -1.537  0.00  0.00    +0.139 C 
BRANCH  18  19
ATOM     19  C   UNL     1       0.939  12.472  -2.670  0.00  0.00    -0.027 A 
ATOM     20  C   UNL     1       1.569  12.906  -3.821  0.00  0.00    +0.009 A 
ATOM     21  C   UNL     1       0.827  13.426  -4.865  0.00  0.00    +0.050 A 
ATOM     22  C   UNL     1      -0.550  13.525  -4.754  0.00  0.00    +0.166 A 
ATOM     23  C   UNL     1      -1.185  13.093  -3.592  0.00  0.00    +0.167 A 
ATOM     24  C   UNL     1      -0.435  12.567  -2.553  0.00  0.00    +0.054 A 
ATOM     25  O   UNL     1      -2.528  13.293  -3.729  0.00  0.00    -0.453 OA
ATOM     26  C   UNL     1      -2.669  14.227  -4.816  0.00  0.00    +0.466 C 
ATOM     27  O   UNL     1      -1.496  13.997  -5.618  0.00  0.00    -0.453 OA
ENDBRANCH  18  19
ENDBRANCH  16  18
ENDBRANCH  11  14
BRANCH   4  28
ATOM     28  N   UNL     1      -0.018   1.461   0.010  0.00  0.00    -0.324 N 
ATOM     29  H   UNL     1      -0.864   1.934   0.017  0.00  0.00    +0.148 HD
BRANCH  28  30
ATOM     30  C   UNL     1       0.002  -0.004   0.002  0.00  0.00    +0.145 C 
BRANCH  30  31
ATOM     31  C   UNL     1      -1.412  -0.526   0.013  0.00  0.00    +0.007 A 
ATOM     32  C   UNL     1      -2.223  -0.816  -1.034  0.00  0.00    +0.013 A 
ATOM     33  C   UNL     1      -3.497  -1.289  -0.784  0.00  0.00    +0.008 A 
ATOM     34  C   UNL     1      -3.898  -1.449   0.501  0.00  0.00    +0.045 A 
ATOM     35  S   UNL     1      -2.450  -0.930   1.407  0.00  0.00    -0.100 S 
ENDBRANCH  30  31
ENDBRANCH  28  30
ENDBRANCH   4  28
TORSDOF 6
