REMARK  Name = ZINC08916277
REMARK  12 active torsions:
REMARK  status: ('A' for Active; 'I' for Inactive)
REMARK    1  A    between atoms: C_1  and  C_2
REMARK    2  A    between atoms: C_2  and  O_3
REMARK    3  A    between atoms: O_3  and  C_4
REMARK    4  A    between atoms: C_6  and  C_12
REMARK    5  A    between atoms: C_9  and  O_10
REMARK    6  A    between atoms: C_17  and  C_22
REMARK    7  A    between atoms: C_25  and  O_28
REMARK    8  A    between atoms: O_28  and  C_29
REMARK    9  A    between atoms: C_31  and  C_37
REMARK   10  A    between atoms: C_32  and  C_33
REMARK   11  A    between atoms: C_33  and  O_35
REMARK   12  A    between atoms: O_35  and  C_36
REMARK                            x       y       z     vdW  Elec       q    Type
REMARK                         _______ _______ _______ _____ _____    ______ ____
ROOT
ATOM      1  C   UNL     1       0.655  -4.953  -0.031  0.00  0.00    +0.092 C 
ATOM      2  C   UNL     1       0.615  -5.814  -1.269  0.00  0.00    +0.024 C 
ATOM      3  C   UNL     1       0.241  -7.109  -1.196  0.00  0.00    +0.016 C 
ATOM      4  C   UNL     1       0.204  -7.977  -2.429  0.00  0.00    +0.059 C 
ATOM      5  C   UNL     1      -0.124  -7.118  -3.653  0.00  0.00    +0.032 C 
ATOM      6  C   UNL     1       0.939  -6.021  -3.775  0.00  0.00    +0.088 C 
ATOM      7  C   UNL     1       0.974  -5.229  -2.496  0.00  0.00    +0.162 C 
ATOM      8  O   UNL     1       1.318  -4.065  -2.525  0.00  0.00    -0.292 OA
ATOM      9  N   UNL     1      -0.110  -7.665   0.005  0.00  0.00    -0.321 N 
ATOM     10  C   UNL     1       0.281  -7.085   1.180  0.00  0.00    +0.016 C 
ATOM     11  C   UNL     1       0.658  -5.796   1.211  0.00  0.00    +0.065 C 
ATOM     12  C   UNL     1       0.287  -7.898   2.449  0.00  0.00    +0.061 C 
ATOM     13  H   UNL     1      -0.711  -8.585   0.030  0.00  0.00    +0.152 HD
ENDROOT
BRANCH   1  16
ATOM     14  C   UNL     1      -1.498  -1.849   0.006  0.00  0.00    +0.163 A 
ATOM     15  C   UNL     1      -0.389  -2.680  -0.009  0.00  0.00    +0.054 A 
ATOM     16  C   UNL     1      -0.553  -4.052  -0.015  0.00  0.00    -0.030 A 
ATOM     17  C   UNL     1      -1.822  -4.600  -0.006  0.00  0.00    +0.028 A 
ATOM     18  C   UNL     1      -2.934  -3.777   0.009  0.00  0.00    +0.086 A 
ATOM     19  C   UNL     1      -2.776  -2.400   0.021  0.00  0.00    +0.177 A 
ATOM     20 CL   UNL     1      -4.526  -4.469   0.019  0.00  0.00    -0.080 Cl
BRANCH  19  21
ATOM     21  O   UNL     1      -3.868  -1.589   0.042  0.00  0.00    -0.502 OA
ATOM     22  H   UNL     1      -4.877  -2.026   0.054  0.00  0.00    +0.292 HD
ENDBRANCH  19  21
BRANCH  14  23
ATOM     23  O   UNL     1      -1.339  -0.499   0.012  0.00  0.00    -0.489 OA
BRANCH  23  25
ATOM     24  C   UNL     1      -0.019   1.526   0.010  0.00  0.00    +0.048 C 
ATOM     25  C   UNL     1       0.002  -0.004   0.002  0.00  0.00    +0.226 C 
ENDBRANCH  23  25
ENDBRANCH  14  23
ENDBRANCH   1  16
BRANCH   5  26
ATOM     26  C   UNL     1      -0.110  -7.976  -4.892  0.00  0.00    -0.043 A 
ATOM     27  C   UNL     1       1.045  -8.641  -5.258  0.00  0.00    +0.007 A 
ATOM     28  C   UNL     1       1.058  -9.433  -6.391  0.00  0.00    +0.046 A 
ATOM     29  C   UNL     1      -0.086  -9.551  -7.166  0.00  0.00    +0.120 A 
ATOM     30  C   UNL     1      -1.242  -8.878  -6.800  0.00  0.00    +0.046 A 
ATOM     31  C   UNL     1      -1.252  -8.092  -5.664  0.00  0.00    +0.007 A 
BRANCH  29  32
ATOM     32  O   UNL     1      -0.073 -10.325  -8.283  0.00  0.00    -0.495 OA
ATOM     33  C   UNL     1       1.152 -10.989  -8.600  0.00  0.00    +0.277 C 
ENDBRANCH  29  32
ENDBRANCH   5  26
BRANCH  11  34
ATOM     34  C   UNL     1       1.066  -5.222   2.438  0.00  0.00    +0.337 C 
ATOM     35  O   UNL     1       1.073  -5.894   3.451  0.00  0.00    -0.245 OA
BRANCH  34  36
ATOM     36  O   UNL     1       1.448  -3.928   2.483  0.00  0.00    -0.465 OA
ATOM     37  C   UNL     1       1.848  -3.414   3.755  0.00  0.00    +0.280 C 
ENDBRANCH  34  36
ENDBRANCH  11  34
TORSDOF 8
