REMARK  Name = ZINC14922208
REMARK  9 active torsions:
REMARK  status: ('A' for Active; 'I' for Inactive)
REMARK    1  A    between atoms: C_1  and  N_2
REMARK    2  A    between atoms: N_2  and  C_3
REMARK    3  A    between atoms: N_2  and  C_4
REMARK    4  A    between atoms: C_7  and  C_10
REMARK    5  A    between atoms: N_11  and  N_12
REMARK    6  A    between atoms: C_13  and  C_15
REMARK    7  A    between atoms: C_16  and  C_35
REMARK    8  A    between atoms: C_18  and  C_27
REMARK    9  A    between atoms: C_19  and  C_21
REMARK                            x       y       z     vdW  Elec       q    Type
REMARK                         _______ _______ _______ _____ _____    ______ ____
ROOT
ATOM      1  C   UNL     1      -0.024   1.112   0.031  0.00  0.00    +0.093 C 
ATOM      2  C   UNL     1      -0.944   1.698   1.115  0.00  0.00    +0.044 C 
ATOM      3  C   UNL     1      -2.073   1.649   0.069  0.00  0.00    +0.091 C 
ATOM      4  C   UNL     1      -0.975   1.734  -1.005  0.00  0.00    +0.044 C 
ENDROOT
BRANCH   3   5
ATOM      5  C   UNL     1      -2.980   2.852   0.102  0.00  0.00    +0.220 C 
ATOM      6  O   UNL     1      -2.803   3.766  -0.676  0.00  0.00    -0.275 OA
ATOM      7  N   UNL     1      -3.988   2.912   0.994  0.00  0.00    -0.297 N 
ATOM      8  C   UNL     1      -4.226   1.812   1.943  0.00  0.00    +0.136 C 
ATOM      9  C   UNL     1      -4.333   2.412   3.354  0.00  0.00    +0.179 C 
ATOM     10  O   UNL     1      -5.303   3.463   3.345  0.00  0.00    -0.377 OA
ATOM     11  C   UNL     1      -4.965   4.563   2.497  0.00  0.00    +0.179 C 
ATOM     12  C   UNL     1      -4.886   4.076   1.045  0.00  0.00    +0.136 C 
ENDBRANCH   3   5
BRANCH   4  13
ATOM     13  C   UNL     1      -1.229   0.849  -2.198  0.00  0.00    -0.043 A 
ATOM     14  C   UNL     1      -1.398  -0.512  -2.027  0.00  0.00    +0.004 A 
ATOM     15  C   UNL     1      -1.635  -1.322  -3.121  0.00  0.00    +0.000 A 
ATOM     16  C   UNL     1      -1.693  -0.773  -4.388  0.00  0.00    +0.000 A 
ATOM     17  C   UNL     1      -1.518   0.587  -4.561  0.00  0.00    +0.000 A 
ATOM     18  C   UNL     1      -1.286   1.399  -3.466  0.00  0.00    +0.004 A 
ENDBRANCH   4  13
BRANCH   2  19
ATOM     19  C   UNL     1      -1.162   0.775   2.286  0.00  0.00    -0.043 A 
ATOM     20  C   UNL     1      -1.348  -0.578   2.074  0.00  0.00    +0.004 A 
ATOM     21  C   UNL     1      -1.543  -1.426   3.148  0.00  0.00    +0.000 A 
ATOM     22  C   UNL     1      -1.562  -0.919   4.434  0.00  0.00    +0.000 A 
ATOM     23  C   UNL     1      -1.381   0.435   4.646  0.00  0.00    +0.000 A 
ATOM     24  C   UNL     1      -1.181   1.282   3.572  0.00  0.00    +0.004 A 
ENDBRANCH   2  19
BRANCH   1  26
ATOM     25  N   UNL     1       2.286   1.287   0.898  0.00  0.00    -0.207 N 
ATOM     26  C   UNL     1       1.357   1.715   0.021  0.00  0.00    +0.236 C 
ATOM     27  O   UNL     1       1.633   2.586  -0.778  0.00  0.00    -0.274 OA
ATOM     28  H   UNL     1       2.066   0.591   1.537  0.00  0.00    +0.177 HD
BRANCH  25  30
ATOM     29  C   UNL     1       4.465   1.436   1.734  0.00  0.00    +0.138 C 
ATOM     30  N   UNL     1       3.570   1.848   0.888  0.00  0.00    -0.188 NA
BRANCH  29  34
ATOM     31  C   UNL     1       8.355   3.135   1.704  0.00  0.00    +0.029 A 
ATOM     32  C   UNL     1       8.041   2.137   2.620  0.00  0.00    +0.024 A 
ATOM     33  C   UNL     1       6.780   1.583   2.633  0.00  0.00    +0.011 A 
ATOM     34  C   UNL     1       5.816   2.026   1.723  0.00  0.00    -0.005 A 
ATOM     35  C   UNL     1       6.136   3.025   0.800  0.00  0.00    +0.011 A 
ATOM     36  C   UNL     1       7.398   3.578   0.797  0.00  0.00    +0.024 A 
BRANCH  31  38
ATOM     37  C   UNL     1      10.604   3.320   2.726  0.00  0.00    +0.129 C 
ATOM     38  N   UNL     1       9.634   3.693   1.694  0.00  0.00    -0.336 N 
ATOM     39  C   UNL     1      10.006   4.652   0.651  0.00  0.00    +0.129 C 
ENDBRANCH  31  38
ENDBRANCH  29  34
ENDBRANCH  25  30
ENDBRANCH   1  26
TORSDOF 7
