REMARK  Name = ZINC04397109
REMARK  7 active torsions:
REMARK  status: ('A' for Active; 'I' for Inactive)
REMARK    1  A    between atoms: C_1  and  C_2
REMARK    2  A    between atoms: C_3  and  C_32
REMARK    3  A    between atoms: C_8  and  C_27
REMARK    4  A    between atoms: C_10  and  C_16
REMARK    5  A    between atoms: C_12  and  O_13
REMARK    6  A    between atoms: C_16  and  C_18
REMARK    7  A    between atoms: C_32  and  C_34
REMARK                            x       y       z     vdW  Elec       q    Type
REMARK                         _______ _______ _______ _____ _____    ______ ____
ROOT
ATOM      1  C   UNL     1       0.085   3.925  -5.096  0.00  0.00    +0.067 C 
ATOM      2  C   UNL     1       1.236   4.387  -4.240  0.00  0.00    +0.058 A 
ATOM      3  C   UNL     1       2.502   4.597  -4.785  0.00  0.00    +0.078 A 
ATOM      4  S   UNL     1       3.402   5.116  -3.331  0.00  0.00    -0.049 S 
ATOM      5  C   UNL     1       2.088   5.011  -2.201  0.00  0.00    +0.169 A 
ATOM      6  N   UNL     1       1.084   4.600  -2.962  0.00  0.00    -0.229 NA
ATOM      7  N   UNL     1       2.090   5.282  -0.847  0.00  0.00    -0.231 N 
ATOM      8  C   UNL     1       0.918   5.160   0.020  0.00  0.00    +0.158 C 
ATOM      9  C   UNL     1       1.370   5.557   1.434  0.00  0.00    +0.075 C 
ATOM     10  C   UNL     1       2.838   5.895   1.276  0.00  0.00    +0.189 C 
ATOM     11  C   UNL     1       3.165   5.690  -0.162  0.00  0.00    +0.288 C 
ATOM     12  O   UNL     1       4.263   5.869  -0.648  0.00  0.00    -0.266 OA
ENDROOT
BRANCH   8  13
ATOM     13  C   UNL     1       0.421   3.738   0.017  0.00  0.00    +0.015 A 
ATOM     14  C   UNL     1      -0.855   3.279   0.027  0.00  0.00    +0.013 A 
ATOM     15  C   UNL     1      -1.077   1.915   0.017  0.00  0.00    +0.008 A 
ATOM     16  C   UNL     1      -0.013   1.076   0.008  0.00  0.00    +0.045 A 
ATOM     17  S   UNL     1       1.359   2.219   0.001  0.00  0.00    -0.099 S 
ENDBRANCH   8  13
BRANCH   3  18
ATOM     18  C   UNL     1       2.947   4.443  -6.114  0.00  0.00    +0.168 C 
ATOM     19  O   UNL     1       2.174   4.075  -6.975  0.00  0.00    -0.292 OA
ATOM     20  C   UNL     1       4.383   4.735  -6.465  0.00  0.00    +0.092 C 
ENDBRANCH   3  18
BRANCH  10  22
ATOM     21  H   UNL     1       3.103   6.310   3.015  0.00  0.00    +0.292 HD
ATOM     22  O   UNL     1       3.594   6.259   2.145  0.00  0.00    -0.502 OA
ENDBRANCH  10  22
BRANCH   9  23
ATOM     23  C   UNL     1       0.940   5.735   2.867  0.00  0.00    +0.230 C 
ATOM     24  O   UNL     1       0.517   6.809   3.245  0.00  0.00    -0.283 OA
BRANCH  23  25
ATOM     25  C   UNL     1       1.029   4.650   3.774  0.00  0.00    +0.176 A 
ATOM     26  C   UNL     1       0.677   4.692   5.089  0.00  0.00    +0.061 A 
ATOM     27  C   UNL     1       0.922   3.401   5.622  0.00  0.00    +0.021 A 
ATOM     28  C   UNL     1       0.761   2.831   6.889  0.00  0.00    +0.011 A 
ATOM     29  C   UNL     1       1.103   1.524   7.093  0.00  0.00    +0.001 A 
ATOM     30  C   UNL     1       1.608   0.757   6.052  0.00  0.00    +0.004 A 
ATOM     31  C   UNL     1       1.774   1.299   4.796  0.00  0.00    +0.047 A 
ATOM     32  C   UNL     1       1.434   2.626   4.564  0.00  0.00    +0.136 A 
ATOM     33  O   UNL     1       1.483   3.413   3.470  0.00  0.00    -0.452 OA
ENDBRANCH  23  25
ENDBRANCH   9  23
TORSDOF 5
