REMARK  Name = ZINC24138466
REMARK  11 active torsions:
REMARK  status: ('A' for Active; 'I' for Inactive)
REMARK    1  A    between atoms: C_1  and  C_2
REMARK    2  A    between atoms: C_7  and  N_8
REMARK    3  A    between atoms: C_9  and  C_27
REMARK    4  A    between atoms: C_12  and  S_13
REMARK    5  A    between atoms: S_13  and  C_14
REMARK    6  A    between atoms: C_14  and  C_15
REMARK    7  A    between atoms: C_21  and  C_24
REMARK    8  A    between atoms: C_30  and  C_33
REMARK    9  A    between atoms: C_33  and  C_34
REMARK   10  A    between atoms: C_33  and  C_35
REMARK   11  A    between atoms: C_33  and  C_36
REMARK                            x       y       z     vdW  Elec       q    Type
REMARK                         _______ _______ _______ _____ _____    ______ ____
ROOT
ATOM      1  N   UNL     1      -0.477   4.792  -6.869  0.00  0.00    -0.270 N 
ATOM      2  C   UNL     1      -1.655   4.906  -7.576  0.00  0.00    +0.169 A 
ATOM      3  N   UNL     1      -2.584   4.299  -6.875  0.00  0.00    -0.128 NA
ATOM      4  N   UNL     1      -2.077   3.814  -5.798  0.00  0.00    -0.122 NA
ATOM      5  C   UNL     1      -0.794   4.090  -5.738  0.00  0.00    +0.197 A 
ENDROOT
BRANCH   1  12
ATOM      6  C   UNL     1       0.221   7.423  -6.038  0.00  0.00    +0.046 C 
ATOM      7  C   UNL     1       1.161   6.569  -6.848  0.00  0.00    -0.026 A 
ATOM      8  C   UNL     1       2.404   7.055  -7.205  0.00  0.00    +0.005 A 
ATOM      9  C   UNL     1       3.266   6.274  -7.952  0.00  0.00    +0.000 A 
ATOM     10  C   UNL     1       2.888   5.002  -8.342  0.00  0.00    +0.002 A 
ATOM     11  C   UNL     1       1.649   4.508  -7.984  0.00  0.00    +0.026 A 
ATOM     12  C   UNL     1       0.782   5.290  -7.233  0.00  0.00    +0.053 A 
ENDBRANCH   1  12
BRANCH   2  13
ATOM     13  C   UNL     1      -1.837   5.584  -8.876  0.00  0.00    +0.020 A 
ATOM     14  C   UNL     1      -0.856   6.453  -9.357  0.00  0.00    +0.012 A 
ATOM     15  C   UNL     1      -1.030   7.080 -10.574  0.00  0.00    +0.005 A 
ATOM     16  C   UNL     1      -2.178   6.855 -11.313  0.00  0.00    -0.042 A 
ATOM     17  C   UNL     1      -3.156   5.999 -10.840  0.00  0.00    +0.005 A 
ATOM     18  C   UNL     1      -2.993   5.363  -9.627  0.00  0.00    +0.012 A 
BRANCH  16  19
ATOM     19  C   UNL     1      -2.364   7.547 -12.639  0.00  0.00    -0.013 C 
ATOM     20  C   UNL     1      -3.624   8.414 -12.590  0.00  0.00    +0.015 C 
ATOM     21  C   UNL     1      -1.148   8.430 -12.928  0.00  0.00    +0.015 C 
ATOM     22  C   UNL     1      -2.508   6.500 -13.745  0.00  0.00    +0.015 C 
ENDBRANCH  16  19
ENDBRANCH   2  13
BRANCH   5  23
ATOM     23  S   UNL     1       0.314   3.634  -4.446  0.00  0.00    -0.076 S 
BRANCH  23  24
ATOM     24  C   UNL     1      -0.827   2.757  -3.349  0.00  0.00    +0.173 C 
BRANCH  24  25
ATOM     25  C   UNL     1      -0.078   2.261  -2.138  0.00  0.00    +0.226 C 
ATOM     26  O   UNL     1       1.110   2.480  -2.029  0.00  0.00    -0.275 OA
ATOM     27  N   UNL     1      -0.729   1.575  -1.178  0.00  0.00    -0.300 N 
ATOM     28  C   UNL     1      -2.168   1.303  -1.297  0.00  0.00    +0.108 C 
ATOM     29  C   UNL     1      -2.869   1.797  -0.028  0.00  0.00    +0.020 C 
ATOM     30  C   UNL     1      -2.208   1.161   1.197  0.00  0.00    +0.016 C 
ATOM     31  C   UNL     1      -0.736   1.583   1.264  0.00  0.00    +0.092 C 
ATOM     32  C   UNL     1      -0.013   1.086   0.008  0.00  0.00    +0.120 C 
BRANCH  31  33
ATOM     33  C   UNL     1      -0.091   0.982   2.486  0.00  0.00    +0.215 C 
ATOM     34  O   UNL     1      -0.743   0.287   3.236  0.00  0.00    -0.276 OA
ATOM     35  N   UNL     1       1.211   1.216   2.746  0.00  0.00    -0.329 N 
ATOM     36  H   UNL     1       1.682   0.778   3.638  0.00  0.00    +0.145 HD
ATOM     37  H   UNL     1       1.802   1.847   2.065  0.00  0.00    +0.145 HD
ENDBRANCH  31  33
ENDBRANCH  24  25
ENDBRANCH  23  24
ENDBRANCH   5  23
TORSDOF 7
