REMARK  Name = ZINC10244384
REMARK  6 active torsions:
REMARK  status: ('A' for Active; 'I' for Inactive)
REMARK    1  A    between atoms: N_13  and  C_27
REMARK    2  A    between atoms: C_14  and  S_16
REMARK    3  A    between atoms: S_16  and  C_17
REMARK    4  A    between atoms: C_17  and  C_18
REMARK    5  A    between atoms: C_30  and  O_33
REMARK    6  A    between atoms: O_33  and  C_34
REMARK                            x       y       z     vdW  Elec       q    Type
REMARK                         _______ _______ _______ _____ _____    ______ ____
ROOT
ATOM      1  C   UNL     1       4.095  -1.420  11.776  0.00  0.00    +0.001 A 
ATOM      2  C   UNL     1       3.223  -0.674  12.557  0.00  0.00    +0.002 A 
ATOM      3  C   UNL     1       2.237   0.089  11.973  0.00  0.00    +0.026 A 
ATOM      4  C   UNL     1       2.110   0.116  10.586  0.00  0.00    +0.049 A 
ATOM      5  C   UNL     1       2.996  -0.642   9.801  0.00  0.00    +0.026 A 
ATOM      6  C   UNL     1       3.988  -1.408  10.414  0.00  0.00    +0.012 A 
ATOM      7  C   UNL     1       2.615  -0.412   8.400  0.00  0.00    +0.104 A 
ATOM      8  C   UNL     1       1.531   0.464   8.424  0.00  0.00    +0.132 A 
ATOM      9  N   UNL     1       1.238   0.772   9.743  0.00  0.00    -0.349 N 
ATOM     10  H   UNL     1       0.525   1.363  10.031  0.00  0.00    +0.166 HD
ATOM     11  C   UNL     1       0.958   0.859   7.197  0.00  0.00    +0.283 A 
ATOM     12  O   UNL     1       0.008   1.624   7.171  0.00  0.00    -0.265 OA
ATOM     13  N   UNL     1       1.482   0.373   6.052  0.00  0.00    -0.254 N 
ATOM     14  C   UNL     1       2.543  -0.488   6.089  0.00  0.00    +0.177 A 
ATOM     15  N   UNL     1       3.089  -0.858   7.226  0.00  0.00    -0.221 NA
ENDROOT
BRANCH  13  16
ATOM     16  C   UNL     1       0.933   0.748   4.818  0.00  0.00    +0.052 A 
ATOM     17  C   UNL     1      -0.097   0.002   4.260  0.00  0.00    +0.030 A 
ATOM     18  C   UNL     1      -0.638   0.372   3.045  0.00  0.00    +0.048 A 
ATOM     19  C   UNL     1      -0.154   1.491   2.382  0.00  0.00    +0.130 A 
ATOM     20  C   UNL     1       0.878   2.234   2.936  0.00  0.00    +0.048 A 
ATOM     21  C   UNL     1       1.417   1.867   4.154  0.00  0.00    +0.030 A 
BRANCH  19  22
ATOM     22  O   UNL     1      -0.688   1.855   1.186  0.00  0.00    -0.406 OA
BRANCH  22  23
ATOM     23  C   UNL     1      -0.141   3.017   0.559  0.00  0.00    +0.575 C 
ATOM     24  F   UNL     1       1.223   2.819   0.318  0.00  0.00    -0.133 F 
ATOM     25  F   UNL     1      -0.309   4.123   1.399  0.00  0.00    -0.133 F 
ATOM     26  F   UNL     1      -0.800   3.247  -0.653  0.00  0.00    -0.133 F 
ENDBRANCH  22  23
ENDBRANCH  19  22
ENDBRANCH  13  16
BRANCH  14  27
ATOM     27  S   UNL     1       3.199  -1.110   4.577  0.00  0.00    -0.078 S 
BRANCH  27  28
ATOM     28  C   UNL     1       4.530  -2.155   5.219  0.00  0.00    +0.173 C 
BRANCH  28  29
ATOM     29  C   UNL     1       5.252  -2.811   4.070  0.00  0.00    +0.226 C 
ATOM     30  O   UNL     1       4.902  -2.592   2.929  0.00  0.00    -0.275 OA
ATOM     31  N   UNL     1       6.288  -3.639   4.309  0.00  0.00    -0.301 N 
ATOM     32  C   UNL     1       6.685  -3.874   5.680  0.00  0.00    +0.108 C 
ATOM     33  C   UNL     1       7.729  -2.823   6.112  0.00  0.00    +0.019 C 
ATOM     34  C   UNL     1       9.013  -3.073   5.440  0.00  0.00    +0.002 C 
ATOM     35  C   UNL     1       8.961  -2.953   3.920  0.00  0.00    +0.002 C 
ATOM     36  C   UNL     1       8.504  -4.265   3.330  0.00  0.00    +0.019 C 
ATOM     37  C   UNL     1       6.974  -4.264   3.162  0.00  0.00    +0.108 C 
ENDBRANCH  28  29
ENDBRANCH  27  28
ENDBRANCH  14  27
TORSDOF 6
