REMARK  Name = ZINC10138886
REMARK  13 active torsions:
REMARK  status: ('A' for Active; 'I' for Inactive)
REMARK    1  A    between atoms: C_1  and  C_2
REMARK    2  A    between atoms: C_4  and  C_34
REMARK    3  A    between atoms: C_5  and  C_33
REMARK    4  A    between atoms: C_6  and  S_9
REMARK    5  A    between atoms: C_7  and  C_8
REMARK    6  A    between atoms: S_9  and  N_12
REMARK    7  A    between atoms: C_15  and  C_18
REMARK    8  A    between atoms: N_20  and  C_21
REMARK    9  A    between atoms: C_21  and  C_22
REMARK   10  A    between atoms: C_22  and  C_24
REMARK   11  A    between atoms: C_22  and  N_70
REMARK   12  A    between atoms: C_31  and  N_70
REMARK   13  A    between atoms: C_32  and  N_70
REMARK                            x       y       z     vdW  Elec       q    Type
REMARK                         _______ _______ _______ _____ _____    ______ ____
ROOT
ATOM      1  N   UNL     1      -6.524   0.988  -4.190  0.00  0.00    -0.177 NA
ATOM      2  C   UNL     1      -6.904  -0.387  -4.538  0.00  0.00    +0.110 C 
ATOM      3  C   UNL     1      -6.535  -1.312  -3.374  0.00  0.00    +0.030 C 
ATOM      4  C   UNL     1      -5.053  -1.136  -3.038  0.00  0.00    +0.077 C 
ATOM      5  C   UNL     1      -4.793   0.310  -2.609  0.00  0.00    +0.030 C 
ATOM      6  C   UNL     1      -5.142   1.252  -3.765  0.00  0.00    +0.110 C 
ENDROOT
BRANCH   4   7
ATOM      7  C   UNL     1      -4.678  -2.068  -1.915  0.00  0.00    +0.216 C 
ATOM      8  O   UNL     1      -5.514  -2.801  -1.431  0.00  0.00    -0.276 OA
ATOM      9  N   UNL     1      -3.413  -2.088  -1.449  0.00  0.00    -0.316 N 
ATOM     10  H   UNL     1      -2.745  -1.502  -1.837  0.00  0.00    +0.149 HD
BRANCH   9  11
ATOM     11  C   UNL     1      -3.049  -2.994  -0.357  0.00  0.00    +0.093 C 
BRANCH  11  12
ATOM     12  C   UNL     1      -1.542  -2.913  -0.108  0.00  0.00    -0.021 C 
BRANCH  12  13
ATOM     13  C   UNL     1      -0.804  -3.407  -1.326  0.00  0.00    -0.057 A 
ATOM     14  C   UNL     1      -0.272  -2.502  -2.226  0.00  0.00    +0.002 A 
ATOM     15  C   UNL     1       0.405  -2.953  -3.343  0.00  0.00    +0.003 A 
ATOM     16  C   UNL     1       0.550  -4.310  -3.563  0.00  0.00    +0.038 A 
ATOM     17  C   UNL     1       0.018  -5.217  -2.663  0.00  0.00    +0.124 A 
ATOM     18  C   UNL     1      -0.655  -4.764  -1.541  0.00  0.00    +0.040 A 
ATOM     19  F   UNL     1       0.159  -6.544  -2.876  0.00  0.00    -0.205 F 
ENDBRANCH  12  13
BRANCH  12  22
ATOM     20  C   UNL     1       0.261  -3.750   1.275  0.00  0.00    -0.096 C 
ATOM     21  C   UNL     1      -1.911  -3.309   2.252  0.00  0.00    -0.096 C 
ATOM     22  N   UNL     1      -1.199  -3.775   1.043  0.00  0.00    +0.382 N 
ATOM     23  H   UNL     1      -1.488  -4.738   0.836  0.00  0.00    -0.082 HD
ENDBRANCH  12  22
ENDBRANCH  11  12
ENDBRANCH   9  11
ENDBRANCH   4   7
BRANCH   1  24
ATOM     24  S   UNL     1      -7.630   2.217  -4.274  0.00  0.00    +0.061 S 
ATOM     25  O   UNL     1      -6.900   3.402  -4.563  0.00  0.00    -0.153 OA
ATOM     26  O   UNL     1      -8.689   1.754  -5.101  0.00  0.00    -0.153 OA
BRANCH  24  32
ATOM     27  C   UNL     1      -8.004   4.814   0.246  0.00  0.00    +0.044 C 
ATOM     28  C   UNL     1      -8.437   3.651  -0.609  0.00  0.00    -0.045 A 
ATOM     29  C   UNL     1      -9.363   2.745  -0.126  0.00  0.00    +0.007 A 
ATOM     30  C   UNL     1      -9.760   1.678  -0.910  0.00  0.00    -0.045 A 
ATOM     31  C   UNL     1      -9.230   1.517  -2.177  0.00  0.00    -0.021 A 
ATOM     32  C   UNL     1      -8.305   2.423  -2.660  0.00  0.00    +0.112 A 
ATOM     33  C   UNL     1      -7.904   3.487  -1.874  0.00  0.00    -0.021 A 
ATOM     34  C   UNL     1      -6.890   4.471  -2.397  0.00  0.00    +0.046 C 
ATOM     35  C   UNL     1      -9.663   0.354  -3.032  0.00  0.00    +0.046 C 
ATOM     36  C   UNL     1     -10.770   0.691  -0.384  0.00  0.00    +0.044 C 
ENDBRANCH  24  32
ENDBRANCH   1  24
TORSDOF 7
