REMARK  Name = ZINC50359797
REMARK  4 active torsions:
REMARK  status: ('A' for Active; 'I' for Inactive)
REMARK    1  A    between atoms: C_3  and  N_16
REMARK    2  A    between atoms: C_6  and  N_7
REMARK    3  A    between atoms: N_7  and  C_8
REMARK    4  A    between atoms: C_8  and  C_9
REMARK                            x       y       z     vdW  Elec       q    Type
REMARK                         _______ _______ _______ _____ _____    ______ ____
ROOT
ATOM      1  C   UNL     1      -0.017   1.389   0.010  0.00  0.00    +0.027 A 
ATOM      2  C   UNL     1       1.190   2.065   0.002  0.00  0.00    +0.043 A 
ATOM      3  C   UNL     1       2.374   1.336  -0.013  0.00  0.00    +0.099 A 
ATOM      4  N   UNL     1       2.355   0.013  -0.020  0.00  0.00    -0.348 N 
ATOM      5  C   UNL     1       1.222  -0.664  -0.014  0.00  0.00    +0.107 A 
ATOM      6  C   UNL     1       0.002  -0.004   0.002  0.00  0.00    +0.044 A 
ATOM      7  H   UNL     1       3.195  -0.472  -0.031  0.00  0.00    +0.167 HD
ENDROOT
BRANCH   3   8
ATOM      8  N   UNL     1       3.596   2.007  -0.022  0.00  0.00    -0.317 N 
ATOM      9  C   UNL     1       3.772   3.466  -0.010  0.00  0.00    +0.106 C 
ATOM     10  C   UNL     1       5.289   3.745  -0.052  0.00  0.00    +0.020 C 
ATOM     11  C   UNL     1       5.866   2.438  -0.657  0.00  0.00    +0.020 C 
ATOM     12  C   UNL     1       4.925   1.370  -0.038  0.00  0.00    +0.106 C 
ENDBRANCH   3   8
BRANCH   6  13
ATOM     13  N   UNL     1      -1.196  -0.729   0.010  0.00  0.00    -0.336 N 
ATOM     14  H   UNL     1      -2.046  -0.262   0.021  0.00  0.00    +0.147 HD
BRANCH  13  15
ATOM     15  C   UNL     1      -1.166  -2.194   0.002  0.00  0.00    +0.176 C 
BRANCH  15  16
ATOM     16  C   UNL     1      -2.576  -2.726   0.013  0.00  0.00    +0.124 A 
ATOM     17  C   UNL     1      -3.320  -3.002  -1.072  0.00  0.00    +0.062 A 
ATOM     18  C   UNL     1      -4.568  -3.475  -0.604  0.00  0.00    +0.070 A 
ATOM     19  C   UNL     1      -4.511  -3.459   0.741  0.00  0.00    +0.184 A 
ATOM     20  O   UNL     1      -3.300  -3.009   1.109  0.00  0.00    -0.450 OA
ATOM     21 BR   UNL     1      -5.897  -3.987   1.914  0.00  0.00    -0.007 Br
ATOM     22 BR   UNL     1      -6.035  -4.024  -1.663  0.00  0.00    -0.046 Br
ENDBRANCH  15  16
ENDBRANCH  13  15
ENDBRANCH   6  13
TORSDOF 4
