REMARK  Name = ZINC48356923
REMARK  8 active torsions:
REMARK  status: ('A' for Active; 'I' for Inactive)
REMARK    1  A    between atoms: C_1  and  C_2
REMARK    2  A    between atoms: N_5  and  C_10
REMARK    3  A    between atoms: N_8  and  C_9
REMARK    4  A    between atoms: C_10  and  C_11
REMARK    5  A    between atoms: C_14  and  C_17
REMARK    6  A    between atoms: C_23  and  C_25
REMARK    7  A    between atoms: C_25  and  C_26
REMARK    8  A    between atoms: C_26  and  N_27
REMARK                            x       y       z     vdW  Elec       q    Type
REMARK                         _______ _______ _______ _____ _____    ______ ____
ROOT
ATOM      1  C   UNL     1      -2.708  -4.039  -0.257  0.00  0.00    -0.033 A 
ATOM      2  C   UNL     1      -2.706  -4.533  -1.549  0.00  0.00    +0.005 A 
ATOM      3  C   UNL     1      -2.646  -5.894  -1.770  0.00  0.00    +0.012 A 
ATOM      4  C   UNL     1      -2.587  -6.772  -0.686  0.00  0.00    +0.017 A 
ATOM      5  C   UNL     1      -2.589  -6.266   0.615  0.00  0.00    +0.012 A 
ATOM      6  C   UNL     1      -2.644  -4.904   0.822  0.00  0.00    +0.005 A 
ENDROOT
BRANCH   4   7
ATOM      7  C   UNL     1      -2.524  -8.230  -0.916  0.00  0.00    +0.141 A 
ATOM      8  N   UNL     1      -2.472  -9.074   0.153  0.00  0.00    -0.307 N 
ATOM      9  H   UNL     1      -2.478  -8.718   1.055  0.00  0.00    +0.170 HD
ATOM     10  C   UNL     1      -2.414 -10.408  -0.050  0.00  0.00    +0.252 A 
ATOM     11  O   UNL     1      -2.368 -11.179   0.895  0.00  0.00    -0.268 OA
ATOM     12  C   UNL     1      -2.408 -10.892  -1.373  0.00  0.00    +0.093 A 
ATOM     13  C   UNL     1      -2.461  -9.997  -2.401  0.00  0.00    +0.050 A 
ATOM     14  N   UNL     1      -2.523  -8.691  -2.149  0.00  0.00    -0.234 NA
BRANCH  13  15
ATOM     15  C   UNL     1      -2.456 -10.489  -3.826  0.00  0.00    +0.079 C 
BRANCH  15  16
ATOM     16  C   UNL     1      -3.896 -10.602  -4.332  0.00  0.00    +0.149 C 
BRANCH  16  17
ATOM     17  N   UNL     1      -3.891 -11.079  -5.716  0.00  0.00    -0.271 N 
ATOM     18  C   UNL     1      -4.554 -12.156  -6.187  0.00  0.00    +0.108 A 
ATOM     19  C   UNL     1      -4.291 -12.257  -7.511  0.00  0.00    +0.041 A 
ATOM     20  C   UNL     1      -3.438 -11.205  -7.861  0.00  0.00    +0.134 A 
ATOM     21  N   UNL     1      -3.202 -10.495  -6.787  0.00  0.00    -0.180 NA
ENDBRANCH  16  17
ENDBRANCH  15  16
ENDBRANCH  13  15
ENDBRANCH   4   7
BRANCH   1  22
ATOM     22  C   UNL     1      -2.772  -2.551  -0.023  0.00  0.00    +0.119 C 
BRANCH  22  26
ATOM     23  C   UNL     1      -0.019   1.526   0.010  0.00  0.00    -0.012 C 
ATOM     24  C   UNL     1       0.002  -0.004   0.002  0.00  0.00    -0.058 C 
ATOM     25  C   UNL     1      -1.434  -0.534   0.013  0.00  0.00    +0.069 C 
ATOM     26  N   UNL     1      -1.411  -2.003   0.024  0.00  0.00    -0.301 NA
ATOM     27  C   UNL     1      -0.681  -2.505   1.197  0.00  0.00    +0.066 C 
ATOM     28  C   UNL     1       0.749  -1.959   1.177  0.00  0.00    -0.063 C 
ATOM     29  N   UNL     1       0.713  -0.491   1.192  0.00  0.00    +0.381 N 
ATOM     30  C   UNL     1       2.085   0.033   1.190  0.00  0.00    -0.096 C 
ATOM     31  H   UNL     1       0.234  -0.175   2.022  0.00  0.00    -0.082 HD
ENDBRANCH  22  26
ENDBRANCH   1  22
TORSDOF 6
