REMARK  Name = ZINC12178108
REMARK  10 active torsions:
REMARK  status: ('A' for Active; 'I' for Inactive)
REMARK    1  A    between atoms: C_1  and  C_2
REMARK    2  A    between atoms: C_5  and  C_8
REMARK    3  A    between atoms: C_10  and  C_18
REMARK    4  A    between atoms: C_12  and  C_17
REMARK    5  A    between atoms: C_18  and  O_20
REMARK    6  A    between atoms: O_20  and  C_21
REMARK    7  A    between atoms: C_21  and  C_23
REMARK    8  A    between atoms: C_21  and  C_24
REMARK    9  A    between atoms: N_26  and  C_27
REMARK   10  A    between atoms: C_32  and  C_33
REMARK                            x       y       z     vdW  Elec       q    Type
REMARK                         _______ _______ _______ _____ _____    ______ ____
ROOT
ATOM      1  C   UNL     1      -0.784   2.841   1.524  0.00  0.00    +0.341 C 
ATOM      2  O   UNL     1      -0.379   3.574   0.645  0.00  0.00    -0.245 OA
ENDROOT
BRANCH   1   5
ATOM      3  C   UNL     1      -3.383   3.217   4.232  0.00  0.00    +0.076 A 
ATOM      4  C   UNL     1      -2.640   2.657   3.189  0.00  0.00    +0.044 A 
ATOM      5  C   UNL     1      -1.598   3.392   2.630  0.00  0.00    +0.075 A 
ATOM      6  C   UNL     1      -1.339   4.675   3.155  0.00  0.00    +0.077 A 
ATOM      7  C   UNL     1      -0.360   5.717   2.849  0.00  0.00    +0.091 A 
ATOM      8  N   UNL     1      -0.584   6.708   3.657  0.00  0.00    -0.080 NA
ATOM      9  O   UNL     1      -1.679   6.401   4.497  0.00  0.00    -0.334 OA
ATOM     10  C   UNL     1      -2.138   5.168   4.202  0.00  0.00    +0.260 A 
ATOM     11  N   UNL     1      -3.116   4.427   4.697  0.00  0.00    -0.210 NA
ATOM     12  C   UNL     1       0.711   5.652   1.791  0.00  0.00    +0.070 C 
BRANCH   3  17
ATOM     13  C   UNL     1      -7.698   0.194   6.556  0.00  0.00    +0.044 C 
ATOM     14  C   UNL     1      -6.569   0.985   5.947  0.00  0.00    -0.050 A 
ATOM     15  C   UNL     1      -6.279   2.251   6.424  0.00  0.00    +0.004 A 
ATOM     16  C   UNL     1      -5.246   2.980   5.871  0.00  0.00    +0.010 A 
ATOM     17  C   UNL     1      -4.494   2.438   4.830  0.00  0.00    +0.001 A 
ATOM     18  C   UNL     1      -4.794   1.165   4.350  0.00  0.00    +0.010 A 
ATOM     19  C   UNL     1      -5.825   0.443   4.914  0.00  0.00    +0.004 A 
ENDBRANCH   3  17
ENDBRANCH   1   5
BRANCH   1  20
ATOM     20  O   UNL     1      -0.492   1.526   1.493  0.00  0.00    -0.449 OA
BRANCH  20  21
ATOM     21  C   UNL     1       0.311   1.056   0.379  0.00  0.00    +0.259 C 
ATOM     22  C   UNL     1      -0.607   0.642  -0.773  0.00  0.00    +0.062 C 
BRANCH  21  23
ATOM     23  C   UNL     1       1.133  -0.129   0.817  0.00  0.00    +0.258 C 
ATOM     24  O   UNL     1       0.983  -0.594   1.927  0.00  0.00    -0.271 OA
ATOM     25  N   UNL     1       2.033  -0.673  -0.026  0.00  0.00    -0.282 N 
ATOM     26  H   UNL     1       2.099  -0.352  -0.939  0.00  0.00    +0.155 HD
BRANCH  25  27
ATOM     27  C   UNL     1       2.873  -1.701   0.417  0.00  0.00    +0.045 A 
ATOM     28  C   UNL     1       2.454  -2.556   1.428  0.00  0.00    +0.024 A 
ATOM     29  C   UNL     1       3.283  -3.572   1.859  0.00  0.00    +0.002 A 
ATOM     30  C   UNL     1       4.534  -3.733   1.292  0.00  0.00    +0.001 A 
ATOM     31  C   UNL     1       4.957  -2.881   0.289  0.00  0.00    +0.014 A 
ATOM     32  C   UNL     1       4.130  -1.865  -0.150  0.00  0.00    +0.076 A 
BRANCH  32  33
ATOM     33  C   UNL     1       4.592  -0.936  -1.243  0.00  0.00    +0.419 C 
ATOM     34  F   UNL     1       5.880  -1.299  -1.650  0.00  0.00    -0.166 F 
ATOM     35  F   UNL     1       3.716  -1.024  -2.331  0.00  0.00    -0.166 F 
ATOM     36  F   UNL     1       4.607   0.378  -0.762  0.00  0.00    -0.166 F 
ENDBRANCH  32  33
ENDBRANCH  25  27
ENDBRANCH  21  23
ENDBRANCH  20  21
ENDBRANCH   1  20
TORSDOF 7
