REMARK  Name = ZINC25170591
REMARK  11 active torsions:
REMARK  status: ('A' for Active; 'I' for Inactive)
REMARK    1  A    between atoms: C_1  and  C_2
REMARK    2  A    between atoms: C_3  and  C_12
REMARK    3  A    between atoms: C_5  and  C_7
REMARK    4  A    between atoms: C_12  and  C_13
REMARK    5  A    between atoms: N_15  and  C_16
REMARK    6  A    between atoms: C_18  and  S_23
REMARK    7  A    between atoms: C_21  and  O_22
REMARK    8  A    between atoms: S_23  and  N_26
REMARK    9  A    between atoms: N_26  and  C_27
REMARK   10  A    between atoms: C_32  and  O_33
REMARK   11  A    between atoms: O_33  and  C_34
REMARK                            x       y       z     vdW  Elec       q    Type
REMARK                         _______ _______ _______ _____ _____    ______ ____
ROOT
ATOM      1  C   UNL     1       4.449   4.435   2.781  0.00  0.00    +0.077 A 
ATOM      2  C   UNL     1       3.664   5.427   2.210  0.00  0.00    +0.055 A 
ATOM      3  C   UNL     1       4.255   6.572   1.709  0.00  0.00    +0.110 A 
ATOM      4  C   UNL     1       5.627   6.732   1.776  0.00  0.00    +0.032 A 
ATOM      5  C   UNL     1       6.415   5.748   2.343  0.00  0.00    +0.049 A 
ATOM      6  C   UNL     1       5.830   4.600   2.853  0.00  0.00    +0.138 A 
ENDROOT
BRANCH   1   9
ATOM      7  C   UNL     1       2.756   2.762   2.694  0.00  0.00    +0.223 C 
ATOM      8  O   UNL     1       2.236   3.354   1.772  0.00  0.00    -0.275 OA
ATOM      9  N   UNL     1       3.852   3.273   3.290  0.00  0.00    -0.282 N 
ATOM     10  H   UNL     1       4.278   2.779   4.175  0.00  0.00    +0.155 HD
BRANCH   7  11
ATOM     11  C   UNL     1       2.178   1.456   3.174  0.00  0.00    +0.155 C 
BRANCH  11  14
ATOM     12  C   UNL     1       2.164  -0.216   0.535  0.00  0.00    +0.088 C 
ATOM     13  C   UNL     1       0.962   0.390   1.212  0.00  0.00    +0.126 A 
ATOM     14  C   UNL     1       0.966   1.110   2.348  0.00  0.00    +0.092 A 
ATOM     15  N   UNL     1      -0.300   1.465   2.615  0.00  0.00    -0.213 NA
ATOM     16  C   UNL     1      -1.080   0.982   1.673  0.00  0.00    +0.234 A 
ATOM     17  O   UNL     1      -0.316   0.316   0.788  0.00  0.00    -0.440 OA
BRANCH  16  18
ATOM     18  C   UNL     1      -2.538   1.148   1.596  0.00  0.00    +0.074 A 
ATOM     19  C   UNL     1      -3.421   0.673   0.643  0.00  0.00    +0.021 A 
ATOM     20  C   UNL     1      -4.758   0.961   0.787  0.00  0.00    +0.008 A 
ATOM     21  C   UNL     1      -5.168   1.698   1.853  0.00  0.00    +0.046 A 
ATOM     22  S   UNL     1      -3.634   2.009   2.712  0.00  0.00    -0.092 S 
ENDBRANCH  16  18
ENDBRANCH  11  14
ENDBRANCH   7  11
ENDBRANCH   1   9
BRANCH   3  23
ATOM     23  S   UNL     1       3.257   7.830   0.985  0.00  0.00    +0.073 S 
ATOM     24  O   UNL     1       4.098   8.556   0.100  0.00  0.00    -0.150 OA
ATOM     25  O   UNL     1       2.059   7.200   0.552  0.00  0.00    -0.150 OA
BRANCH  23  26
ATOM     26  N   UNL     1       2.830   8.875   2.196  0.00  0.00    -0.213 N 
ATOM     27  H   UNL     1       1.769   9.035   2.437  0.00  0.00    +0.174 HD
BRANCH  26  28
ATOM     28  C   UNL     1       3.821   9.555   2.915  0.00  0.00    +0.090 A 
ATOM     29  C   UNL     1       4.976   9.979   2.275  0.00  0.00    +0.028 A 
ATOM     30  C   UNL     1       5.951  10.655   2.986  0.00  0.00    +0.002 A 
ATOM     31  C   UNL     1       5.781  10.901   4.336  0.00  0.00    +0.004 A 
ATOM     32  C   UNL     1       4.633  10.477   4.981  0.00  0.00    +0.047 A 
ATOM     33  C   UNL     1       3.650   9.803   4.275  0.00  0.00    +0.142 A 
BRANCH  33  34
ATOM     34  O   UNL     1       2.522   9.385   4.908  0.00  0.00    -0.493 OA
ATOM     35  C   UNL     1       2.416   9.674   6.304  0.00  0.00    +0.277 C 
ENDBRANCH  33  34
ENDBRANCH  26  28
ENDBRANCH  23  26
ENDBRANCH   3  23
BRANCH   6  36
ATOM     36  O   UNL     1       6.603   3.634   3.417  0.00  0.00    -0.505 OA
ATOM     37  H   UNL     1       7.694   3.765   3.472  0.00  0.00    +0.292 HD
ENDBRANCH   6  36
TORSDOF 9
