REMARK  Name = ZINC19824786
REMARK  8 active torsions:
REMARK  status: ('A' for Active; 'I' for Inactive)
REMARK    1  A    between atoms: C_1  and  C_2
REMARK    2  A    between atoms: C_5  and  N_8
REMARK    3  A    between atoms: C_9  and  C_30
REMARK    4  A    between atoms: C_12  and  S_13
REMARK    5  A    between atoms: S_13  and  C_14
REMARK    6  A    between atoms: C_14  and  C_15
REMARK    7  A    between atoms: N_17  and  C_18
REMARK    8  A    between atoms: C_23  and  C_24
REMARK                            x       y       z     vdW  Elec       q    Type
REMARK                         _______ _______ _______ _____ _____    ______ ____
ROOT
ATOM      1  S   UNL     1      -1.402  -1.068  -0.005  0.00  0.00    -0.076 S 
ENDROOT
BRANCH   1   6
ATOM      2  N   UNL     1       1.315  -0.391  -0.048  0.00  0.00    -0.270 N 
ATOM      3  C   UNL     1       2.046   0.779  -0.059  0.00  0.00    +0.176 A 
ATOM      4  N   UNL     1       1.183   1.771  -0.046  0.00  0.00    -0.127 NA
ATOM      5  N   UNL     1      -0.016   1.310  -0.027  0.00  0.00    -0.122 NA
ATOM      6  C   UNL     1       0.002  -0.003  -0.027  0.00  0.00    +0.197 A 
BRANCH   2  11
ATOM      7  C   UNL     1       3.328  -5.697  -0.077  0.00  0.00    +0.044 C 
ATOM      8  C   UNL     1       2.793  -4.288  -0.070  0.00  0.00    -0.050 A 
ATOM      9  C   UNL     1       2.058  -3.823  -1.144  0.00  0.00    +0.005 A 
ATOM     10  C   UNL     1       1.567  -2.532  -1.140  0.00  0.00    +0.026 A 
ATOM     11  C   UNL     1       1.812  -1.701  -0.055  0.00  0.00    +0.051 A 
ATOM     12  C   UNL     1       2.556  -2.170   1.020  0.00  0.00    +0.026 A 
ATOM     13  C   UNL     1       3.040  -3.463   1.012  0.00  0.00    +0.005 A 
ENDBRANCH   2  11
BRANCH   3  14
ATOM     14  C   UNL     1       3.513   0.894  -0.081  0.00  0.00    +0.057 A 
ATOM     15  C   UNL     1       4.290   1.988  -0.369  0.00  0.00    +0.019 A 
ATOM     16  C   UNL     1       5.659   1.856  -0.325  0.00  0.00    +0.008 A 
ATOM     17  C   UNL     1       6.198   0.652  -0.000  0.00  0.00    +0.046 A 
ATOM     18  S   UNL     1       4.745  -0.350   0.267  0.00  0.00    -0.094 S 
ENDBRANCH   3  14
ENDBRANCH   1   6
BRANCH   1  19
ATOM     19  C   UNL     1      -2.729   0.163   0.014  0.00  0.00    +0.173 C 
BRANCH  19  20
ATOM     20  C   UNL     1      -4.064  -0.538   0.034  0.00  0.00    +0.228 C 
ATOM     21  O   UNL     1      -4.112  -1.750   0.036  0.00  0.00    -0.275 OA
ATOM     22  N   UNL     1      -5.203   0.182   0.051  0.00  0.00    -0.284 N 
ATOM     23  H   UNL     1      -5.159   1.278   0.142  0.00  0.00    +0.155 HD
BRANCH  22  24
ATOM     24  C   UNL     1      -6.439  -0.462  -0.046  0.00  0.00    +0.041 A 
ATOM     25  C   UNL     1      -6.530  -1.705  -0.656  0.00  0.00    +0.024 A 
ATOM     26  C   UNL     1      -7.752  -2.341  -0.752  0.00  0.00    +0.002 A 
ATOM     27  C   UNL     1      -8.892  -1.745  -0.240  0.00  0.00    +0.001 A 
ATOM     28  C   UNL     1      -8.816  -0.509   0.371  0.00  0.00    +0.010 A 
ATOM     29  C   UNL     1      -7.588   0.140   0.477  0.00  0.00    +0.003 A 
BRANCH  29  30
ATOM     30  C   UNL     1      -7.501   1.465   1.137  0.00  0.00    -0.016 A 
ATOM     31  C   UNL     1      -6.548   1.691   2.129  0.00  0.00    +0.008 A 
ATOM     32  C   UNL     1      -6.468   2.927   2.737  0.00  0.00    +0.001 A 
ATOM     33  C   UNL     1      -7.338   3.938   2.370  0.00  0.00    +0.000 A 
ATOM     34  C   UNL     1      -8.289   3.719   1.390  0.00  0.00    +0.001 A 
ATOM     35  C   UNL     1      -8.374   2.487   0.772  0.00  0.00    +0.008 A 
ENDBRANCH  29  30
ENDBRANCH  22  24
ENDBRANCH  19  20
ENDBRANCH   1  19
TORSDOF 7
