REMARK  Name = ZINC67189423
REMARK  3 active torsions:
REMARK  status: ('A' for Active; 'I' for Inactive)
REMARK    1  A    between atoms: C_8  and  C_25
REMARK    2  A    between atoms: C_10  and  C_18
REMARK    3  A    between atoms: C_25  and  C_27
REMARK                            x       y       z     vdW  Elec       q    Type
REMARK                         _______ _______ _______ _____ _____    ______ ____
ROOT
ATOM      1  C   UNL     1      -0.161   1.354  -0.264  0.00  0.00    +0.000 A 
ATOM      2  C   UNL     1       1.018   2.076  -0.310  0.00  0.00    +0.002 A 
ATOM      3  C   UNL     1       2.234   1.428  -0.269  0.00  0.00    +0.023 A 
ATOM      4  C   UNL     1       2.285   0.038  -0.182  0.00  0.00    +0.039 A 
ATOM      5  C   UNL     1       1.093  -0.678  -0.137  0.00  0.00    +0.004 A 
ATOM      6  C   UNL     1      -0.119  -0.026  -0.178  0.00  0.00    +0.008 A 
ATOM      7  C   UNL     1       1.485  -2.127  -0.044  0.00  0.00    +0.137 C 
ATOM      8  C   UNL     1       0.933  -2.930  -1.227  0.00  0.00    +0.103 C 
ATOM      9  C   UNL     1      -0.406  -3.496  -0.710  0.00  0.00    +0.049 C 
ATOM     10  C   UNL     1      -0.352  -3.357   0.816  0.00  0.00    +0.066 C 
ATOM     11  N   UNL     1       0.951  -2.753   1.173  0.00  0.00    -0.281 NA
ATOM     12  C   UNL     1       1.834  -3.880   1.572  0.00  0.00    +0.086 C 
ATOM     13  C   UNL     1       0.881  -4.860   2.299  0.00  0.00    +0.017 C 
ATOM     14  C   UNL     1      -0.429  -4.739   1.482  0.00  0.00    +0.021 C 
ATOM     15  C   UNL     1       2.991  -2.122  -0.045  0.00  0.00    +0.243 C 
ATOM     16  O   UNL     1       3.717  -3.091   0.017  0.00  0.00    -0.273 OA
ATOM     17  N   UNL     1       3.374  -0.834  -0.128  0.00  0.00    -0.283 N 
ATOM     18  H   UNL     1       4.300  -0.545  -0.149  0.00  0.00    +0.155 HD
ENDROOT
BRANCH   9  19
ATOM     19  C   UNL     1      -1.558  -2.700  -1.267  0.00  0.00    -0.042 A 
ATOM     20  C   UNL     1      -2.691  -2.498  -0.503  0.00  0.00    +0.005 A 
ATOM     21  C   UNL     1      -3.748  -1.768  -1.013  0.00  0.00    +0.020 A 
ATOM     22  C   UNL     1      -3.671  -1.240  -2.290  0.00  0.00    +0.041 A 
ATOM     23  C   UNL     1      -2.536  -1.443  -3.054  0.00  0.00    +0.020 A 
ATOM     24  C   UNL     1      -1.478  -2.168  -2.541  0.00  0.00    +0.005 A 
ATOM     25 CL   UNL     1      -4.998  -0.323  -2.932  0.00  0.00    -0.084 Cl
ENDBRANCH   9  19
BRANCH   8  26
ATOM     26  C   UNL     1       1.876  -4.047  -1.591  0.00  0.00    +0.170 C 
ATOM     27  O   UNL     1       1.737  -5.145  -1.094  0.00  0.00    -0.292 OA
BRANCH  26  28
ATOM     28  C   UNL     1       2.964  -3.808  -2.549  0.00  0.00    +0.021 A 
ATOM     29  C   UNL     1       3.130  -2.541  -3.121  0.00  0.00    +0.015 A 
ATOM     30  C   UNL     1       4.150  -2.319  -4.018  0.00  0.00    +0.050 A 
ATOM     31  C   UNL     1       5.018  -3.349  -4.359  0.00  0.00    +0.166 A 
ATOM     32  C   UNL     1       4.858  -4.616  -3.794  0.00  0.00    +0.167 A 
ATOM     33  C   UNL     1       3.841  -4.845  -2.889  0.00  0.00    +0.061 A 
ATOM     34  O   UNL     1       5.828  -5.439  -4.290  0.00  0.00    -0.453 OA
ATOM     35  C   UNL     1       6.327  -4.778  -5.468  0.00  0.00    +0.466 C 
ATOM     36  O   UNL     1       6.085  -3.383  -5.206  0.00  0.00    -0.453 OA
ENDBRANCH  26  28
ENDBRANCH   8  26
TORSDOF 3
