REMARK  Name = ZINC52095029
REMARK  2 active torsions:
REMARK  status: ('A' for Active; 'I' for Inactive)
REMARK    1  A    between atoms: C_2  and  C_14
REMARK    2  A    between atoms: C_14  and  C_16
REMARK                            x       y       z     vdW  Elec       q    Type
REMARK                         _______ _______ _______ _____ _____    ______ ____
ROOT
ATOM      1  C   UNL     1       2.377   1.415  -0.065  0.00  0.00    +0.034 A 
ATOM      2  C   UNL     1       1.172   2.086   0.002  0.00  0.00    -0.011 A 
ATOM      3  C   UNL     1      -0.018   1.380   0.063  0.00  0.00    +0.025 A 
ATOM      4  C   UNL     1      -0.009  -0.002   0.057  0.00  0.00    +0.043 A 
ATOM      5  C   UNL     1       1.196  -0.684  -0.011  0.00  0.00    +0.068 A 
ATOM      6  C   UNL     1       2.396   0.029  -0.072  0.00  0.00    +0.067 A 
ATOM      7  N   UNL     1       3.421  -0.913  -0.130  0.00  0.00    -0.306 N 
ATOM      8  H   UNL     1       4.370  -0.718  -0.180  0.00  0.00    +0.170 HD
ATOM      9  C   UNL     1       2.870  -2.141  -0.106  0.00  0.00    +0.325 A 
ATOM     10  O   UNL     1       3.489  -3.188  -0.144  0.00  0.00    -0.247 OA
ATOM     11  N   UNL     1       1.530  -2.036  -0.034  0.00  0.00    -0.306 N 
ATOM     12  H   UNL     1       0.903  -2.776  -0.003  0.00  0.00    +0.170 HD
ATOM     13 BR   UNL     1      -1.662   2.311   0.155  0.00  0.00    -0.050 Br
ENDROOT
BRANCH   2  14
ATOM     14  C   UNL     1       1.151   3.593   0.010  0.00  0.00    +0.140 C 
ATOM     15 CL   UNL     1       2.607   4.218  -0.851  0.00  0.00    -0.114 Cl
BRANCH  14  16
ATOM     16  C   UNL     1       1.158   4.096   1.455  0.00  0.00    +0.140 C 
ATOM     17  C   UNL     1       1.011   5.619   1.466  0.00  0.00    +0.033 C 
ATOM     18  C   UNL     1       0.958   6.109   2.917  0.00  0.00    +0.005 C 
ATOM     19  C   UNL     1      -0.197   5.408   3.638  0.00  0.00    +0.028 C 
ATOM     20  C   UNL     1      -0.004   3.892   3.543  0.00  0.00    +0.160 C 
ATOM     21  O   UNL     1       0.069   3.508   2.169  0.00  0.00    -0.375 OA
ENDBRANCH  14  16
ENDBRANCH   2  14
TORSDOF 2
