REMARK  Name = ZINC26464301
REMARK  9 active torsions:
REMARK  status: ('A' for Active; 'I' for Inactive)
REMARK    1  A    between atoms: C_1  and  C_2
REMARK    2  A    between atoms: C_2  and  C_3
REMARK    3  A    between atoms: C_3  and  C_4
REMARK    4  A    between atoms: C_4  and  C_5
REMARK    5  A    between atoms: C_16  and  S_20
REMARK    6  A    between atoms: S_20  and  C_21
REMARK    7  A    between atoms: C_21  and  C_22
REMARK    8  A    between atoms: N_24  and  C_25
REMARK    9  A    between atoms: C_28  and  C_31
REMARK                            x       y       z     vdW  Elec       q    Type
REMARK                         _______ _______ _______ _____ _____    ______ ____
ROOT
ATOM      1  C   UNL     1      -1.686  -1.538  -2.700  0.00  0.00    +0.040 C 
ATOM      2  N   UNL     1      -0.901  -2.291  -1.998  0.00  0.00    -0.273 NA
ATOM      3  C   UNL     1      -0.852  -2.301  -0.546  0.00  0.00    +0.180 C 
ATOM      4  C   UNL     1      -1.197  -0.923   0.070  0.00  0.00    +0.100 C 
ATOM      5  C   UNL     1       0.003  -0.005   0.020  0.00  0.00    +0.070 A 
ATOM      6  C   UNL     1       1.230  -0.616  -0.004  0.00  0.00    +0.077 A 
ATOM      7  C   UNL     1       2.415   0.142  -0.005  0.00  0.00    +0.178 A 
ATOM      8  N   UNL     1       3.702  -0.133  -0.012  0.00  0.00    -0.127 NA
ATOM      9  N   UNL     1       4.382   0.959  -0.011  0.00  0.00    -0.122 NA
ATOM     10  C   UNL     1       3.576   1.999  -0.004  0.00  0.00    +0.198 A 
ATOM     11  N   UNL     1       2.302   1.522   0.001  0.00  0.00    -0.260 N 
ATOM     12  C   UNL     1       1.058   2.077   0.009  0.00  0.00    +0.207 A 
ATOM     13  N   UNL     1      -0.016   1.350   0.018  0.00  0.00    -0.240 NA
ATOM     14  S   UNL     1       0.922  -2.369  -0.030  0.00  0.00    -0.092 S 
ATOM     15  C   UNL     1      -2.346  -0.316  -0.690  0.00  0.00    -0.053 C 
ATOM     16  C   UNL     1      -2.574  -0.613  -1.976  0.00  0.00    -0.027 C 
ATOM     17  C   UNL     1      -3.782   0.116  -2.490  0.00  0.00    +0.037 C 
ATOM     18  C   UNL     1      -4.522   0.604  -1.221  0.00  0.00    +0.009 C 
ATOM     19  C   UNL     1      -3.374   0.661  -0.186  0.00  0.00    +0.032 C 
ENDROOT
BRANCH   1  20
ATOM     20  C   UNL     1      -1.690  -1.605  -4.206  0.00  0.00    +0.055 C 
BRANCH  20  21
ATOM     21  C   UNL     1      -0.672  -2.648  -4.672  0.00  0.00    +0.006 C 
BRANCH  21  23
ATOM     22  C   UNL     1       0.342  -3.759  -6.667  0.00  0.00    +0.004 C 
ATOM     23  C   UNL     1      -0.676  -2.717  -6.201  0.00  0.00    -0.003 C 
ENDBRANCH  21  23
ENDBRANCH  20  21
ENDBRANCH   1  20
BRANCH  10  24
ATOM     24  S   UNL     1       4.058   3.693  -0.001  0.00  0.00    -0.076 S 
BRANCH  24  25
ATOM     25  C   UNL     1       5.871   3.635  -0.010  0.00  0.00    +0.173 C 
BRANCH  25  26
ATOM     26  C   UNL     1       6.419   5.038  -0.008  0.00  0.00    +0.227 C 
ATOM     27  O   UNL     1       5.661   5.985  -0.001  0.00  0.00    -0.275 OA
ATOM     28  N   UNL     1       7.751   5.242  -0.014  0.00  0.00    -0.285 N 
ATOM     29  H   UNL     1       8.439   4.386   0.057  0.00  0.00    +0.155 HD
BRANCH  28  30
ATOM     30  C   UNL     1       8.261   6.541  -0.110  0.00  0.00    +0.033 A 
ATOM     31  C   UNL     1       9.438   6.778  -0.808  0.00  0.00    +0.023 A 
ATOM     32  C   UNL     1       9.935   8.063  -0.904  0.00  0.00    +0.005 A 
ATOM     33  C   UNL     1       9.268   9.111  -0.299  0.00  0.00    -0.050 A 
ATOM     34  C   UNL     1       8.098   8.879   0.401  0.00  0.00    +0.005 A 
ATOM     35  C   UNL     1       7.593   7.597   0.497  0.00  0.00    +0.023 A 
ATOM     36  C   UNL     1       9.817  10.511  -0.402  0.00  0.00    +0.044 C 
ENDBRANCH  28  30
ENDBRANCH  25  26
ENDBRANCH  24  25
ENDBRANCH  10  24
TORSDOF 7
