REMARK  Name = ZINC40036749
REMARK  4 active torsions:
REMARK  status: ('A' for Active; 'I' for Inactive)
REMARK    1  A    between atoms: C_1  and  C_2
REMARK    2  A    between atoms: C_2  and  N_3
REMARK    3  A    between atoms: N_10  and  N_11
REMARK    4  A    between atoms: C_12  and  C_13
REMARK                            x       y       z     vdW  Elec       q    Type
REMARK                         _______ _______ _______ _____ _____    ______ ____
ROOT
ATOM      1  N   UNL     1       0.688  -0.476  -1.203  0.00  0.00    -0.280 N 
ATOM      2  C   UNL     1      -0.016  -0.699  -2.335  0.00  0.00    +0.260 A 
ATOM      3  O   UNL     1      -1.225  -0.534  -2.360  0.00  0.00    -0.267 OA
ATOM      4  C   UNL     1       0.673  -1.123  -3.479  0.00  0.00    +0.050 A 
ATOM      5  C   UNL     1       2.046  -1.294  -3.409  0.00  0.00    +0.084 A 
ATOM      6  N   UNL     1       2.686  -1.089  -2.252  0.00  0.00    -0.214 NA
ATOM      7  C   UNL     1       2.034  -0.685  -1.181  0.00  0.00    +0.219 A 
ATOM      8  N   UNL     1       2.725  -0.474  -0.016  0.00  0.00    -0.206 N 
ATOM      9  C   UNL     1       2.788  -1.676  -4.632  0.00  0.00    +0.004 A 
ATOM     10  C   UNL     1       4.094  -2.153  -4.552  0.00  0.00    +0.010 A 
ATOM     11  C   UNL     1       4.758  -2.522  -5.705  0.00  0.00    +0.001 A 
ATOM     12  C   UNL     1       4.128  -2.420  -6.932  0.00  0.00    +0.000 A 
ATOM     13  C   UNL     1       2.833  -1.939  -7.016  0.00  0.00    +0.004 A 
ATOM     14  C   UNL     1       2.162  -1.557  -5.872  0.00  0.00    -0.037 A 
ATOM     15  C   UNL     1       0.773  -0.984  -5.964  0.00  0.00    +0.047 C 
ATOM     16  C   UNL     1      -0.067  -1.404  -4.759  0.00  0.00    +0.007 C 
ATOM     17  C   UNL     1      -0.372  -2.902  -4.850  0.00  0.00    +0.012 C 
ATOM     18  C   UNL     1      -1.130  -3.189  -6.148  0.00  0.00    +0.001 C 
ATOM     19  C   UNL     1      -2.443  -2.403  -6.157  0.00  0.00    +0.000 C 
ATOM     20  C   UNL     1      -2.142  -0.906  -6.061  0.00  0.00    +0.001 C 
ATOM     21  C   UNL     1      -1.384  -0.621  -4.763  0.00  0.00    +0.012 C 
ATOM     22  H   UNL     1       2.255  -0.180   0.780  0.00  0.00    +0.177 HD
ENDROOT
BRANCH   1  24
ATOM     23  C   UNL     1      -0.019   1.526   0.010  0.00  0.00    +0.027 C 
ATOM     24  C   UNL     1       0.002  -0.004   0.002  0.00  0.00    +0.125 C 
ENDBRANCH   1  24
BRANCH   8  25
ATOM     25  N   UNL     1       4.110  -0.683   0.024  0.00  0.00    -0.188 NA
ATOM     26  C   UNL     1       4.764  -0.483   1.127  0.00  0.00    +0.138 C 
BRANCH  26  27
ATOM     27  C   UNL     1       6.222  -0.704   1.170  0.00  0.00    -0.004 A 
ATOM     28  C   UNL     1       6.902  -1.122   0.023  0.00  0.00    +0.009 A 
ATOM     29  C   UNL     1       8.265  -1.326   0.070  0.00  0.00    +0.002 A 
ATOM     30  C   UNL     1       8.960  -1.119   1.249  0.00  0.00    +0.015 A 
ATOM     31  C   UNL     1       8.292  -0.705   2.389  0.00  0.00    +0.018 A 
ATOM     32  C   UNL     1       6.929  -0.490   2.355  0.00  0.00    +0.024 A 
ATOM     33 BR   UNL     1       9.251  -0.425   3.994  0.00  0.00    -0.050 Br
ENDBRANCH  26  27
ENDBRANCH   8  25
TORSDOF 3
