REMARK  Name = ZINC36861485
REMARK  4 active torsions:
REMARK  status: ('A' for Active; 'I' for Inactive)
REMARK    1  A    between atoms: C_1  and  C_2
REMARK    2  A    between atoms: C_7  and  C_19
REMARK    3  A    between atoms: C_10  and  C_12
REMARK    4  A    between atoms: C_14  and  N_18
REMARK                            x       y       z     vdW  Elec       q    Type
REMARK                         _______ _______ _______ _____ _____    ______ ____
ROOT
ATOM      1  C   UNL     1      -0.341   2.027   1.108  0.00  0.00    +0.028 C 
ATOM      2  C   UNL     1      -0.266   0.612   0.530  0.00  0.00    +0.074 C 
ATOM      3  C   UNL     1       0.350   0.663  -0.872  0.00  0.00    +0.022 C 
ATOM      4  C   UNL     1       1.803   1.133  -0.769  0.00  0.00    +0.004 C 
ATOM      5  C   UNL     1       2.604   0.140   0.075  0.00  0.00    +0.022 C 
ATOM      6  C   UNL     1       2.013   0.083   1.487  0.00  0.00    +0.074 C 
ATOM      7  N   UNL     1       0.578  -0.228   1.391  0.00  0.00    -0.291 N 
ATOM      8  C   UNL     1       0.048  -1.262   2.074  0.00  0.00    +0.263 C 
ATOM      9  O   UNL     1       0.726  -1.871   2.879  0.00  0.00    -0.268 OA
ATOM     10  C   UNL     1       2.722  -1.005   2.297  0.00  0.00    +0.028 C 
ENDROOT
BRANCH   8  11
ATOM     11  C   UNL     1      -1.347  -1.653   1.846  0.00  0.00    +0.104 A 
ATOM     12  C   UNL     1      -2.171  -2.293   2.748  0.00  0.00    +0.055 A 
ATOM     13  C   UNL     1      -3.411  -2.472   2.120  0.00  0.00    +0.043 A 
ATOM     14  C   UNL     1      -3.323  -1.947   0.870  0.00  0.00    +0.106 A 
ATOM     15  N   UNL     1      -2.072  -1.441   0.696  0.00  0.00    -0.355 N 
ATOM     16  H   UNL     1      -1.745  -1.006  -0.107  0.00  0.00    +0.166 HD
BRANCH  13  17
ATOM     17  N   UNL     1      -4.546  -3.086   2.683  0.00  0.00    -0.357 N 
ATOM     18  H   UNL     1      -4.510  -3.432   3.588  0.00  0.00    +0.142 HD
ATOM     19  H   UNL     1      -5.363  -3.163   2.166  0.00  0.00    +0.142 HD
ENDBRANCH  13  17
ENDBRANCH   8  11
TORSDOF 2
