REMARK  Name = ZINC39690755
REMARK  8 active torsions:
REMARK  status: ('A' for Active; 'I' for Inactive)
REMARK    1  A    between atoms: C_1  and  O_2
REMARK    2  A    between atoms: O_2  and  C_3
REMARK    3  A    between atoms: C_6  and  C_9
REMARK    4  A    between atoms: C_9  and  C_10
REMARK    5  A    between atoms: C_10  and  C_11
REMARK    6  A    between atoms: C_15  and  C_24
REMARK    7  A    between atoms: N_26  and  C_27
REMARK    8  A    between atoms: C_27  and  C_28
REMARK                            x       y       z     vdW  Elec       q    Type
REMARK                         _______ _______ _______ _____ _____    ______ ____
ROOT
ATOM      1  C   UNL     1       4.693  -3.422  -5.364  0.00  0.00    +0.216 C 
ATOM      2  O   UNL     1       4.061  -3.745  -6.347  0.00  0.00    -0.276 OA
ATOM      3  N   UNL     1       6.002  -3.730  -5.274  0.00  0.00    -0.300 N 
ATOM      4  C   UNL     1       6.931  -3.428  -4.160  0.00  0.00    +0.121 C 
ATOM      5  C   UNL     1       7.813  -4.691  -4.034  0.00  0.00    +0.100 C 
ATOM      6  C   UNL     1       7.749  -5.353  -5.421  0.00  0.00    -0.004 C 
ATOM      7  C   UNL     1       6.836  -4.452  -6.265  0.00  0.00    +0.115 C 
ATOM      8  C   UNL     1       9.143  -5.422  -6.039  0.00  0.00    -0.010 C 
ATOM      9  C   UNL     1       9.062  -6.136  -7.391  0.00  0.00    -0.082 C 
ATOM     10  N   UNL     1       8.522  -7.488  -7.200  0.00  0.00    +0.379 N 
ATOM     11  C   UNL     1       7.147  -7.411  -6.693  0.00  0.00    -0.082 C 
ATOM     12  C   UNL     1       7.147  -6.750  -5.311  0.00  0.00    -0.010 C 
ATOM     13  H   UNL     1       8.527  -7.978  -8.082  0.00  0.00    -0.086 HD
ATOM     14  H   UNL     1       9.096  -7.988  -6.538  0.00  0.00    -0.086 HD
ENDROOT
BRANCH   5  15
ATOM     15  C   UNL     1       9.232  -4.309  -3.698  0.00  0.00    +0.218 C 
ATOM     16  O   UNL     1       9.689  -3.259  -4.099  0.00  0.00    -0.275 OA
ATOM     17  N   UNL     1       9.992  -5.133  -2.950  0.00  0.00    -0.311 N 
ATOM     18  H   UNL     1       9.627  -5.972  -2.629  0.00  0.00    +0.149 HD
BRANCH  17  19
ATOM     19  C   UNL     1      11.371  -4.761  -2.623  0.00  0.00    +0.140 C 
BRANCH  19  20
ATOM     20  C   UNL     1      11.998  -5.845  -1.784  0.00  0.00    -0.016 A 
ATOM     21  C   UNL     1      12.079  -5.698  -0.412  0.00  0.00    +0.006 A 
ATOM     22  C   UNL     1      12.654  -6.692   0.357  0.00  0.00    +0.000 A 
ATOM     23  C   UNL     1      13.147  -7.835  -0.245  0.00  0.00    +0.001 A 
ATOM     24  C   UNL     1      13.065  -7.984  -1.617  0.00  0.00    +0.015 A 
ATOM     25  C   UNL     1      12.486  -6.991  -2.387  0.00  0.00    +0.023 A 
ATOM     26 BR   UNL     1      12.368  -7.197  -4.263  0.00  0.00    -0.050 Br
ENDBRANCH  19  20
ENDBRANCH  17  19
ENDBRANCH   5  15
BRANCH   1  27
ATOM     27  C   UNL     1       4.015  -2.677  -4.243  0.00  0.00    +0.100 C 
BRANCH  27  28
ATOM     28  C   UNL     1       2.543  -2.456  -4.595  0.00  0.00    +0.044 C 
BRANCH  28  32
ATOM     29  C   UNL     1       0.620  -0.343  -1.417  0.00  0.00    +0.120 A 
ATOM     30  C   UNL     1       1.214   0.357  -2.457  0.00  0.00    +0.046 A 
ATOM     31  C   UNL     1       1.835  -0.329  -3.483  0.00  0.00    +0.007 A 
ATOM     32  C   UNL     1       1.865  -1.711  -3.474  0.00  0.00    -0.047 A 
ATOM     33  C   UNL     1       1.274  -2.411  -2.438  0.00  0.00    +0.007 A 
ATOM     34  C   UNL     1       0.657  -1.730  -1.407  0.00  0.00    +0.046 A 
BRANCH  29  36
ATOM     35  C   UNL     1       0.010   1.756  -0.482  0.00  0.00    +0.277 C 
ATOM     36  O   UNL     1       0.009   0.329  -0.406  0.00  0.00    -0.495 OA
ENDBRANCH  29  36
ENDBRANCH  28  32
ENDBRANCH  27  28
ENDBRANCH   1  27
TORSDOF 7
