REMARK  Name = ZINC00626718
REMARK  13 active torsions:
REMARK  status: ('A' for Active; 'I' for Inactive)
REMARK    1  A    between atoms: C_1  and  C_2
REMARK    2  A    between atoms: C_3  and  C_28
REMARK    3  A    between atoms: C_4  and  C_16
REMARK    4  A    between atoms: C_10  and  C_14
REMARK    5  A    between atoms: C_10  and  C_15
REMARK    6  A    between atoms: C_18  and  O_26
REMARK    7  A    between atoms: C_19  and  O_24
REMARK    8  A    between atoms: C_20  and  O_22
REMARK    9  A    between atoms: O_22  and  C_23
REMARK   10  A    between atoms: O_24  and  C_25
REMARK   11  A    between atoms: O_26  and  C_27
REMARK   12  A    between atoms: C_28  and  O_30
REMARK   13  A    between atoms: O_30  and  C_31
REMARK                            x       y       z     vdW  Elec       q    Type
REMARK                         _______ _______ _______ _____ _____    ______ ____
ROOT
ATOM      1  C   UNL     1       2.362  -0.233   0.186  0.00  0.00    +0.061 C 
ATOM      2  C   UNL     1       2.365   1.271   0.088  0.00  0.00    +0.016 C 
ATOM      3  C   UNL     1       1.218   1.926  -0.161  0.00  0.00    +0.065 C 
ATOM      4  C   UNL     1       1.186   3.422  -0.278  0.00  0.00    +0.092 C 
ATOM      5  C   UNL     1       2.418   4.037   0.340  0.00  0.00    +0.024 C 
ATOM      6  C   UNL     1       3.522   3.293   0.562  0.00  0.00    +0.016 C 
ATOM      7  N   UNL     1       3.535   1.959   0.253  0.00  0.00    -0.321 N 
ATOM      8  C   UNL     1       4.767   3.908   1.151  0.00  0.00    +0.058 C 
ATOM      9  C   UNL     1       4.380   5.055   2.087  0.00  0.00    -0.023 C 
ATOM     10  C   UNL     1       3.576   6.085   1.287  0.00  0.00    +0.086 C 
ATOM     11  C   UNL     1       2.386   5.404   0.668  0.00  0.00    +0.162 C 
ATOM     12  O   UNL     1       1.379   6.047   0.447  0.00  0.00    -0.292 OA
ATOM     13  C   UNL     1       3.526   4.516   3.236  0.00  0.00    +0.011 C 
ATOM     14  C   UNL     1       5.644   5.708   2.650  0.00  0.00    +0.011 C 
ATOM     15  H   UNL     1       4.498   1.442   0.138  0.00  0.00    +0.152 HD
ENDROOT
BRANCH   4  16
ATOM     16  C   UNL     1       1.113   3.803  -1.734  0.00  0.00    -0.028 A 
ATOM     17  C   UNL     1       2.123   3.421  -2.597  0.00  0.00    +0.054 A 
ATOM     18  C   UNL     1       2.057   3.765  -3.939  0.00  0.00    +0.165 A 
ATOM     19  C   UNL     1       0.979   4.504  -4.413  0.00  0.00    +0.204 A 
ATOM     20  C   UNL     1      -0.031   4.890  -3.540  0.00  0.00    +0.165 A 
ATOM     21  C   UNL     1       0.040   4.538  -2.201  0.00  0.00    +0.054 A 
BRANCH  20  22
ATOM     22  O   UNL     1      -1.088   5.613  -3.999  0.00  0.00    -0.491 OA
ATOM     23  C   UNL     1      -2.089   5.976  -3.046  0.00  0.00    +0.277 C 
ENDBRANCH  20  22
BRANCH  19  24
ATOM     24  O   UNL     1       0.913   4.847  -5.728  0.00  0.00    -0.488 OA
ATOM     25  C   UNL     1       1.510   6.089  -6.105  0.00  0.00    +0.277 C 
ENDBRANCH  19  24
BRANCH  18  26
ATOM     26  O   UNL     1       3.048   3.385  -4.789  0.00  0.00    -0.491 OA
ATOM     27  C   UNL     1       4.125   2.628  -4.232  0.00  0.00    +0.277 C 
ENDBRANCH  18  26
ENDBRANCH   4  16
BRANCH   3  28
ATOM     28  C   UNL     1       0.020   1.191  -0.321  0.00  0.00    +0.338 C 
ATOM     29  O   UNL     1      -0.815   1.189   0.563  0.00  0.00    -0.245 OA
BRANCH  28  30
ATOM     30  O   UNL     1      -0.193   0.488  -1.453  0.00  0.00    -0.458 OA
BRANCH  30  31
ATOM     31  C   UNL     1      -1.422  -0.236  -1.545  0.00  0.00    +0.177 C 
ATOM     32  C   UNL     1      -1.227  -1.645  -0.982  0.00  0.00    +0.044 C 
ATOM     33  C   UNL     1      -2.543  -2.420  -1.081  0.00  0.00    +0.004 C 
ATOM     34  C   UNL     1      -2.973  -2.511  -2.546  0.00  0.00    +0.000 C 
ATOM     35  C   UNL     1      -3.168  -1.101  -3.109  0.00  0.00    +0.004 C 
ATOM     36  C   UNL     1      -1.852  -0.327  -3.010  0.00  0.00    +0.044 C 
ENDBRANCH  30  31
ENDBRANCH  28  30
ENDBRANCH   3  28
TORSDOF 7
