REMARK  Name = ZINC41514235
REMARK  9 active torsions:
REMARK  status: ('A' for Active; 'I' for Inactive)
REMARK    1  A    between atoms: C_1  and  C_2
REMARK    2  A    between atoms: C_4  and  O_31
REMARK    3  A    between atoms: C_5  and  C_23
REMARK    4  A    between atoms: C_11  and  C_12
REMARK    5  A    between atoms: C_15  and  O_20
REMARK    6  A    between atoms: C_16  and  O_18
REMARK    7  A    between atoms: O_18  and  C_19
REMARK    8  A    between atoms: O_20  and  C_21
REMARK    9  A    between atoms: C_23  and  N_24
REMARK                            x       y       z     vdW  Elec       q    Type
REMARK                         _______ _______ _______ _____ _____    ______ ____
ROOT
ATOM      1  C   UNL     1       0.136   1.479  -0.644  0.00  0.00    +0.045 C 
ATOM      2  C   UNL     1       0.132  -0.020  -0.495  0.00  0.00    -0.033 A 
ATOM      3  C   UNL     1       0.147  -0.818  -1.604  0.00  0.00    +0.050 A 
ATOM      4  C   UNL     1       0.143  -2.204  -1.468  0.00  0.00    +0.122 A 
ATOM      5  C   UNL     1       0.124  -2.789  -0.213  0.00  0.00    +0.020 A 
ATOM      6  C   UNL     1       0.109  -1.992   0.925  0.00  0.00    +0.145 A 
ATOM      7  C   UNL     1       0.119  -0.596   0.776  0.00  0.00    +0.071 A 
ATOM      8  C   UNL     1       0.107  -0.033   2.138  0.00  0.00    +0.232 C 
ATOM      9  O   UNL     1       0.106   1.143   2.459  0.00  0.00    -0.283 OA
ATOM     10  C   UNL     1       0.097  -1.207   3.023  0.00  0.00    +0.176 C 
ATOM     11  C   UNL     1       0.084  -1.188   4.380  0.00  0.00    +0.058 C 
ATOM     12  O   UNL     1       0.089  -2.310   2.238  0.00  0.00    -0.451 OA
ENDROOT
BRANCH  11  13
ATOM     13  C   UNL     1       0.199  -2.443   5.133  0.00  0.00    -0.018 A 
ATOM     14  C   UNL     1       0.201  -3.670   4.456  0.00  0.00    +0.012 A 
ATOM     15  C   UNL     1       0.309  -4.846   5.165  0.00  0.00    +0.050 A 
ATOM     16  C   UNL     1       0.415  -4.819   6.550  0.00  0.00    +0.162 A 
ATOM     17  C   UNL     1       0.413  -3.602   7.231  0.00  0.00    +0.162 A 
ATOM     18  C   UNL     1       0.312  -2.418   6.528  0.00  0.00    +0.057 A 
BRANCH  17  19
ATOM     19  O   UNL     1       0.517  -3.582   8.586  0.00  0.00    -0.491 OA
ATOM     20  C   UNL     1       0.508  -2.300   9.219  0.00  0.00    +0.277 C 
ENDBRANCH  17  19
BRANCH  16  21
ATOM     21  O   UNL     1       0.521  -5.983   7.243  0.00  0.00    -0.491 OA
ATOM     22  C   UNL     1       0.516  -7.193   6.483  0.00  0.00    +0.277 C 
ENDBRANCH  16  21
ENDBRANCH  11  13
BRANCH   4  23
ATOM     23  O   UNL     1       0.158  -2.988  -2.576  0.00  0.00    -0.506 OA
ATOM     24  H   UNL     1       1.043  -3.153  -2.929  0.00  0.00    +0.292 HD
ENDBRANCH   4  23
BRANCH   5  25
ATOM     25  C   UNL     1       0.120  -4.290  -0.082  0.00  0.00    -0.036 C 
BRANCH  25  26
ATOM     26  N   UNL     1      -1.252  -4.792  -0.239  0.00  0.00    +0.383 N 
ATOM     27  C   UNL     1      -2.084  -4.242   0.849  0.00  0.00    -0.078 C 
ATOM     28  C   UNL     1      -3.520  -4.230   0.387  0.00  0.00    -0.019 C 
ATOM     29  C   UNL     1      -4.278  -5.481   0.870  0.00  0.00    -0.002 C 
ATOM     30  C   UNL     1      -3.413  -6.752   0.759  0.00  0.00    -0.002 C 
ATOM     31  C   UNL     1      -2.614  -6.794  -0.518  0.00  0.00    -0.019 C 
ATOM     32  C   UNL     1      -1.219  -6.187  -0.260  0.00  0.00    -0.078 C 
ATOM     33  H   UNL     1      -1.617  -4.463  -1.120  0.00  0.00    -0.081 HD
ENDBRANCH  25  26
ENDBRANCH   5  25
TORSDOF 6
