REMARK  Name = ZINC65081547
REMARK  4 active torsions:
REMARK  status: ('A' for Active; 'I' for Inactive)
REMARK    1  A    between atoms: C_1  and  C_2
REMARK    2  A    between atoms: C_12  and  C_15
REMARK    3  A    between atoms: N_17  and  C_18
REMARK    4  A    between atoms: N_29  and  C_31
REMARK                            x       y       z     vdW  Elec       q    Type
REMARK                         _______ _______ _______ _____ _____    ______ ____
ROOT
ATOM      1  C   UNL     1      -0.018   1.503   0.010  0.00  0.00    +0.069 C 
ATOM      2  C   UNL     1       0.002  -0.004   0.002  0.00  0.00    +0.076 A 
ATOM      3  C   UNL     1       0.008  -0.808  -1.126  0.00  0.00    +0.082 A 
ATOM      4  C   UNL     1       0.028  -2.150  -0.736  0.00  0.00    +0.173 A 
ATOM      5  N   UNL     1       0.036  -3.058  -1.719  0.00  0.00    -0.205 NA
ATOM      6  C   UNL     1       0.027  -2.719  -2.992  0.00  0.00    +0.164 A 
ATOM      7  S   UNL     1       0.002  -0.934  -2.897  0.00  0.00    -0.049 S 
ATOM      8  N   UNL     1       0.034  -3.532  -4.110  0.00  0.00    -0.309 N 
ATOM      9  C   UNL     1       0.050  -4.994  -3.972  0.00  0.00    +0.107 C 
ATOM     10  C   UNL     1      -1.113  -5.578  -4.782  0.00  0.00    +0.020 C 
ATOM     11  C   UNL     1      -1.023  -5.082  -6.227  0.00  0.00    +0.016 C 
ATOM     12  C   UNL     1      -1.135  -3.556  -6.252  0.00  0.00    +0.092 C 
ATOM     13  C   UNL     1       0.021  -2.949  -5.459  0.00  0.00    +0.119 C 
ATOM     14  N   UNL     1       0.033  -2.111   0.651  0.00  0.00    -0.213 N 
ATOM     15  N   UNL     1       0.023  -0.775   1.059  0.00  0.00    -0.169 NA
ENDROOT
BRANCH  14  16
ATOM     16  C   UNL     1       0.052  -3.226   1.500  0.00  0.00    +0.068 A 
ATOM     17  C   UNL     1      -0.618  -4.387   1.139  0.00  0.00    +0.030 A 
ATOM     18  C   UNL     1      -0.598  -5.484   1.977  0.00  0.00    +0.040 A 
ATOM     19  C   UNL     1       0.090  -5.428   3.177  0.00  0.00    +0.124 A 
ATOM     20  C   UNL     1       0.759  -4.271   3.540  0.00  0.00    +0.040 A 
ATOM     21  C   UNL     1       0.746  -3.173   2.702  0.00  0.00    +0.030 A 
ATOM     22  F   UNL     1       0.109  -6.502   3.995  0.00  0.00    -0.205 F 
ENDBRANCH  14  16
BRANCH  12  23
ATOM     23  C   UNL     1      -1.080  -3.071  -7.678  0.00  0.00    +0.218 C 
ATOM     24  O   UNL     1      -0.962  -3.867  -8.585  0.00  0.00    -0.275 OA
ATOM     25  N   UNL     1      -1.161  -1.752  -7.944  0.00  0.00    -0.308 N 
ATOM     26  H   UNL     1      -1.256  -1.116  -7.219  0.00  0.00    +0.149 HD
BRANCH  25  27
ATOM     27  C   UNL     1      -1.107  -1.281  -9.331  0.00  0.00    +0.103 C 
ATOM     28  C   UNL     1      -0.589   0.155  -9.354  0.00  0.00    +0.027 C 
ATOM     29  C   UNL     1      -0.745   0.703 -10.778  0.00  0.00    +0.007 C 
ATOM     30  C   UNL     1      -2.234   0.895 -11.059  0.00  0.00    +0.035 C 
ATOM     31  C   UNL     1      -3.001  -0.359 -10.732  0.00  0.00    -0.042 A 
ATOM     32  C   UNL     1      -2.485  -1.356  -9.934  0.00  0.00    -0.024 A 
ATOM     33  C   UNL     1      -3.249  -2.484  -9.666  0.00  0.00    +0.006 A 
ATOM     34  C   UNL     1      -4.517  -2.615 -10.194  0.00  0.00    +0.000 A 
ATOM     35  C   UNL     1      -5.033  -1.615 -10.996  0.00  0.00    +0.000 A 
ATOM     36  C   UNL     1      -4.277  -0.494 -11.264  0.00  0.00    +0.004 A 
ENDBRANCH  25  27
ENDBRANCH  12  23
TORSDOF 3
