REMARK  Name = ZINC01009647
REMARK  2 active torsions:
REMARK  status: ('A' for Active; 'I' for Inactive)
REMARK    1  A    between atoms: C_4  and  C_7
REMARK    2  A    between atoms: C_9  and  C_22
REMARK                            x       y       z     vdW  Elec       q    Type
REMARK                         _______ _______ _______ _____ _____    ______ ____
ROOT
ATOM      1  C   UNL     1      -2.485   6.119  -0.466  0.00  0.00    +0.037 C 
ATOM      2  C   UNL     1      -1.282   6.680  -0.437  0.00  0.00    +0.010 C 
ATOM      3  C   UNL     1      -0.070   5.936   0.045  0.00  0.00    +0.083 C 
ATOM      4  C   UNL     1      -0.323   4.456   0.086  0.00  0.00    +0.066 A 
ATOM      5  C   UNL     1      -1.591   3.955   0.043  0.00  0.00    +0.112 A 
ATOM      6  N   UNL     1      -1.786   2.595   0.087  0.00  0.00    -0.323 N 
ATOM      7  H   UNL     1      -2.686   2.235   0.058  0.00  0.00    +0.169 HD
ATOM      8  C   UNL     1      -0.733   1.762   0.175  0.00  0.00    +0.159 A 
ATOM      9  S   UNL     1      -0.998   0.071   0.232  0.00  0.00    -0.013 S 
ATOM     10  N   UNL     1       0.525   2.237   0.213  0.00  0.00    -0.302 N 
ATOM     11  H   UNL     1       1.271   1.619   0.269  0.00  0.00    +0.171 HD
ATOM     12  C   UNL     1       0.759   3.563   0.174  0.00  0.00    +0.258 A 
ATOM     13  O   UNL     1       1.901   3.986   0.214  0.00  0.00    -0.267 OA
ATOM     14  N   UNL     1      -2.668   4.800  -0.050  0.00  0.00    -0.300 N 
ATOM     15  H   UNL     1      -3.556   4.480   0.173  0.00  0.00    +0.154 HD
ENDROOT
BRANCH   3  16
ATOM     16  C   UNL     1       0.283   6.416   1.430  0.00  0.00    -0.028 A 
ATOM     17  C   UNL     1      -0.549   6.159   2.476  0.00  0.00    +0.005 A 
ATOM     18  C   UNL     1      -0.239   6.594   3.763  0.00  0.00    +0.001 A 
ATOM     19  C   UNL     1       0.906   7.287   4.011  0.00  0.00    +0.008 A 
ATOM     20  C   UNL     1       1.790   7.571   2.957  0.00  0.00    -0.018 A 
ATOM     21  C   UNL     1       1.476   7.125   1.648  0.00  0.00    -0.014 A 
ATOM     22  C   UNL     1       2.358   7.413   0.592  0.00  0.00    +0.009 A 
ATOM     23  C   UNL     1       3.502   8.107   0.841  0.00  0.00    +0.001 A 
ATOM     24  C   UNL     1       3.812   8.542   2.128  0.00  0.00    +0.001 A 
ATOM     25  C   UNL     1       2.981   8.285   3.174  0.00  0.00    +0.008 A 
ENDBRANCH   3  16
BRANCH   1  29
ATOM     26  C   UNL     1      -5.818   8.368  -1.841  0.00  0.00    +0.000 A 
ATOM     27  C   UNL     1      -5.993   7.059  -1.429  0.00  0.00    +0.001 A 
ATOM     28  C   UNL     1      -4.915   6.324  -0.981  0.00  0.00    +0.010 A 
ATOM     29  C   UNL     1      -3.646   6.902  -0.946  0.00  0.00    -0.004 A 
ATOM     30  C   UNL     1      -3.477   8.223  -1.359  0.00  0.00    +0.010 A 
ATOM     31  C   UNL     1      -4.562   8.947  -1.809  0.00  0.00    +0.001 A 
ENDBRANCH   1  29
TORSDOF 2
