REMARK  Name = ZINC39964786
REMARK  9 active torsions:
REMARK  status: ('A' for Active; 'I' for Inactive)
REMARK    1  A    between atoms: C_1  and  C_2
REMARK    2  A    between atoms: C_7  and  C_12
REMARK    3  A    between atoms: C_12  and  C_31
REMARK    4  A    between atoms: C_13  and  C_14
REMARK    5  A    between atoms: C_16  and  C_30
REMARK    6  A    between atoms: N_17  and  C_20
REMARK    7  A    between atoms: C_18  and  C_19
REMARK    8  A    between atoms: C_23  and  S_26
REMARK    9  A    between atoms: S_26  and  N_29
REMARK                            x       y       z     vdW  Elec       q    Type
REMARK                         _______ _______ _______ _____ _____    ______ ____
ROOT
ATOM      1  C   UNL     1       0.337  -6.826   2.783  0.00  0.00    -0.003 A 
ATOM      2  C   UNL     1       1.617  -6.122   2.643  0.00  0.00    +0.031 A 
ATOM      3  C   UNL     1       2.575  -6.989   3.015  0.00  0.00    +0.022 A 
ATOM      4  N   UNL     1       1.993  -8.172   3.374  0.00  0.00    -0.317 N 
ATOM      5  C   UNL     1       0.645  -8.089   3.245  0.00  0.00    +0.028 A 
ATOM      6  C   UNL     1      -0.343  -9.185   3.551  0.00  0.00    +0.064 C 
ATOM      7  C   UNL     1       4.054  -6.702   3.032  0.00  0.00    +0.064 C 
ENDROOT
BRANCH   4   8
ATOM      8  C   UNL     1       2.688  -9.306   3.816  0.00  0.00    +0.047 A 
ATOM      9  C   UNL     1       2.680 -10.468   3.055  0.00  0.00    +0.028 A 
ATOM     10  C   UNL     1       3.366 -11.583   3.494  0.00  0.00    +0.030 A 
ATOM     11  C   UNL     1       4.061 -11.544   4.689  0.00  0.00    +0.105 A 
ATOM     12  C   UNL     1       4.071 -10.389   5.448  0.00  0.00    +0.030 A 
ATOM     13  C   UNL     1       3.392  -9.268   5.012  0.00  0.00    +0.028 A 
BRANCH  11  14
ATOM     14  S   UNL     1       4.934 -12.970   5.245  0.00  0.00    +0.056 S 
ATOM     15  O   UNL     1       5.052 -12.849   6.656  0.00  0.00    -0.153 OA
ATOM     16  O   UNL     1       4.319 -14.091   4.625  0.00  0.00    -0.153 OA
BRANCH  14  17
ATOM     17  N   UNL     1       6.469 -12.874   4.631  0.00  0.00    -0.204 NA
ATOM     18  H   UNL     1       7.212 -13.266   5.118  0.00  0.00    +0.144 HD
ATOM     19  H   UNL     1       6.627 -12.426   3.785  0.00  0.00    +0.144 HD
ENDBRANCH  14  17
ENDBRANCH  11  14
ENDBRANCH   4   8
BRANCH   1  21
ATOM     20  C   UNL     1      -1.277  -4.993   2.744  0.00  0.00    +0.072 C 
ATOM     21  C   UNL     1      -1.001  -6.292   2.496  0.00  0.00    +0.028 C 
BRANCH  20  28
ATOM     22  C   UNL     1      -1.331   1.559   5.174  0.00  0.00    +0.044 C 
ATOM     23  C   UNL     1      -0.880   0.316   4.451  0.00  0.00    -0.048 A 
ATOM     24  C   UNL     1      -0.139   0.456   3.265  0.00  0.00    +0.005 A 
ATOM     25  C   UNL     1       0.303  -0.602   2.555  0.00  0.00    +0.027 A 
ATOM     26  C   UNL     1       0.009  -1.963   3.023  0.00  0.00    +0.060 A 
ATOM     27  N   UNL     1       0.299  -3.143   2.555  0.00  0.00    -0.359 N 
ATOM     28  C   UNL     1      -0.275  -4.135   3.472  0.00  0.00    +0.216 C 
ATOM     29  N   UNL     1      -0.940  -3.376   4.539  0.00  0.00    -0.359 N 
ATOM     30  C   UNL     1      -0.776  -2.111   4.279  0.00  0.00    +0.061 A 
ATOM     31  C   UNL     1      -1.200  -0.886   4.971  0.00  0.00    +0.030 A 
ATOM     32  H   UNL     1       0.803  -3.331   1.747  0.00  0.00    +0.162 HD
ATOM     33  H   UNL     1      -1.415  -3.749   5.298  0.00  0.00    +0.162 HD
ENDBRANCH  20  28
BRANCH  20  34
ATOM     34  C   UNL     1      -2.523  -4.431   2.315  0.00  0.00    +0.099 C 
ATOM     35  N   UNL     1      -3.511  -3.986   1.975  0.00  0.00    -0.191 NA
ENDBRANCH  20  34
ENDBRANCH   1  21
TORSDOF 6
