REMARK  Name = ZINC22831115
REMARK  12 active torsions:
REMARK  status: ('A' for Active; 'I' for Inactive)
REMARK    1  A    between atoms: C_1  and  C_2
REMARK    2  A    between atoms: C_2  and  N_3
REMARK    3  A    between atoms: N_3  and  C_4
REMARK    4  A    between atoms: N_3  and  C_6
REMARK    5  A    between atoms: C_4  and  C_5
REMARK    6  A    between atoms: C_9  and  N_12
REMARK    7  A    between atoms: C_16  and  C_35
REMARK    8  A    between atoms: C_17  and  N_21
REMARK    9  A    between atoms: N_21  and  C_22
REMARK   10  A    between atoms: C_22  and  N_24
REMARK   11  A    between atoms: C_25  and  C_27
REMARK   12  A    between atoms: C_27  and  C_28
REMARK                            x       y       z     vdW  Elec       q    Type
REMARK                         _______ _______ _______ _____ _____    ______ ____
ROOT
ATOM      1  N   UNL     1      -2.084  -5.836   0.377  0.00  0.00    -0.149 N 
ATOM      2  N   UNL     1      -2.356  -6.515   1.436  0.00  0.00    -0.147 NA
ATOM      3  C   UNL     1      -2.199  -7.803   1.171  0.00  0.00    +0.114 A 
ATOM      4  C   UNL     1      -2.333  -9.011   1.878  0.00  0.00    +0.037 A 
ATOM      5  C   UNL     1      -2.075 -10.187   1.251  0.00  0.00    -0.027 A 
ATOM      6  C   UNL     1      -1.676 -10.232  -0.091  0.00  0.00    +0.038 A 
ATOM      7  C   UNL     1      -1.527  -9.095  -0.831  0.00  0.00    +0.055 A 
ATOM      8  C   UNL     1      -1.780  -7.847  -0.238  0.00  0.00    +0.115 A 
ATOM      9  N   UNL     1      -1.750  -6.580  -0.620  0.00  0.00    -0.147 NA
ATOM     10  C   UNL     1      -2.222 -11.476   2.017  0.00  0.00    +0.046 C 
ENDROOT
BRANCH   1  14
ATOM     11  C   UNL     1      -2.284  -1.678   0.188  0.00  0.00    +0.014 A 
ATOM     12  C   UNL     1      -1.915  -2.402  -0.931  0.00  0.00    +0.024 A 
ATOM     13  C   UNL     1      -1.847  -3.780  -0.871  0.00  0.00    +0.031 A 
ATOM     14  C   UNL     1      -2.151  -4.439   0.313  0.00  0.00    +0.086 A 
ATOM     15  C   UNL     1      -2.522  -3.708   1.435  0.00  0.00    +0.031 A 
ATOM     16  C   UNL     1      -2.582  -2.330   1.371  0.00  0.00    +0.024 A 
BRANCH  11  17
ATOM     17  N   UNL     1      -2.352  -0.283   0.125  0.00  0.00    -0.394 NA
ATOM     18  H   UNL     1      -2.630   0.081   1.023  0.00  0.00    +0.126 HD
BRANCH  17  20
ATOM     19  C   UNL     1      -0.040  -0.033   0.894  0.00  0.00    +0.022 C 
ATOM     20  C   UNL     1      -1.032   0.255  -0.234  0.00  0.00    +0.081 C 
ENDBRANCH  17  20
BRANCH  17  21
ATOM     21  C   UNL     1      -3.335   0.114  -0.891  0.00  0.00    +0.081 C 
ATOM     22  C   UNL     1      -4.730  -0.341  -0.457  0.00  0.00    +0.022 C 
ENDBRANCH  17  21
ENDBRANCH  11  17
ENDBRANCH   1  14
BRANCH   6  23
ATOM     23  N   UNL     1      -1.423 -11.472  -0.687  0.00  0.00    -0.296 N 
ATOM     24  H   UNL     1      -2.036 -12.211  -0.549  0.00  0.00    +0.154 HD
BRANCH  23  25
ATOM     25  C   UNL     1      -0.327 -11.641  -1.454  0.00  0.00    +0.141 C 
ATOM     26  S   UNL     1       0.818 -10.376  -1.600  0.00  0.00    -0.018 S 
BRANCH  25  27
ATOM     27  N   UNL     1      -0.133 -12.805  -2.105  0.00  0.00    -0.267 N 
ATOM     28  C   UNL     1       0.963 -12.973  -2.872  0.00  0.00    +0.223 C 
ATOM     29  O   UNL     1       1.774 -12.077  -2.975  0.00  0.00    -0.275 OA
ATOM     30  H   UNL     1      -0.781 -13.521  -2.022  0.00  0.00    +0.157 HD
BRANCH  28  31
ATOM     31  C   UNL     1       1.181 -14.274  -3.600  0.00  0.00    +0.131 C 
BRANCH  31  32
ATOM     32  C   UNL     1       2.468 -14.205  -4.380  0.00  0.00    -0.039 A 
ATOM     33  C   UNL     1       2.464 -13.738  -5.681  0.00  0.00    +0.005 A 
ATOM     34  C   UNL     1       3.645 -13.674  -6.396  0.00  0.00    +0.020 A 
ATOM     35  C   UNL     1       4.831 -14.077  -5.810  0.00  0.00    +0.041 A 
ATOM     36  C   UNL     1       4.835 -14.544  -4.508  0.00  0.00    +0.020 A 
ATOM     37  C   UNL     1       3.654 -14.602  -3.791  0.00  0.00    +0.005 A 
ATOM     38 CL   UNL     1       6.315 -13.997  -6.708  0.00  0.00    -0.084 Cl
ENDBRANCH  31  32
ENDBRANCH  28  31
ENDBRANCH  25  27
ENDBRANCH  23  25
ENDBRANCH   6  23
TORSDOF 9
