REMARK  Name = ZINC13395819
REMARK  6 active torsions:
REMARK  status: ('A' for Active; 'I' for Inactive)
REMARK    1  A    between atoms: C_1  and  O_2
REMARK    2  A    between atoms: O_2  and  C_3
REMARK    3  A    between atoms: C_3  and  C_5
REMARK    4  A    between atoms: C_5  and  C_32
REMARK    5  A    between atoms: C_10  and  C_13
REMARK    6  A    between atoms: N_22  and  C_25
REMARK                            x       y       z     vdW  Elec       q    Type
REMARK                         _______ _______ _______ _____ _____    ______ ____
ROOT
ATOM      1  C   UNL     1       0.657  -2.104  -1.120  0.00  0.00    +0.155 C 
ATOM      2  C   UNL     1       0.710  -2.582  -2.561  0.00  0.00    +0.125 C 
ATOM      3  C   UNL     1       0.009  -3.981  -2.368  0.00  0.00    +0.112 C 
ATOM      4  C   UNL     1      -1.182  -3.620  -1.581  0.00  0.00    +0.099 C 
ATOM      5  N   UNL     1      -0.603  -2.672  -0.554  0.00  0.00    -0.290 NA
ATOM      6  C   UNL     1       0.364  -4.657  -3.591  0.00  0.00    +0.232 C 
ATOM      7  O   UNL     1      -0.302  -5.459  -4.210  0.00  0.00    -0.274 OA
ATOM      8  N   UNL     1       1.619  -4.195  -3.903  0.00  0.00    -0.210 N 
ATOM      9  C   UNL     1       1.980  -3.085  -3.172  0.00  0.00    +0.233 C 
ATOM     10  O   UNL     1       3.089  -2.614  -3.043  0.00  0.00    -0.274 OA
ATOM     11  H   UNL     1      -0.427  -3.142   0.322  0.00  0.00    +0.124 HD
ENDROOT
BRANCH   4  12
ATOM     12  C   UNL     1      -2.211  -2.942  -2.449  0.00  0.00    -0.011 A 
ATOM     13  C   UNL     1      -2.256  -1.562  -2.517  0.00  0.00    +0.006 A 
ATOM     14  C   UNL     1      -3.200  -0.940  -3.313  0.00  0.00    +0.000 A 
ATOM     15  C   UNL     1      -4.100  -1.697  -4.040  0.00  0.00    +0.001 A 
ATOM     16  C   UNL     1      -4.056  -3.076  -3.972  0.00  0.00    +0.020 A 
ATOM     17  C   UNL     1      -3.107  -3.700  -3.180  0.00  0.00    +0.046 A 
ATOM     18 CL   UNL     1      -3.047  -5.433  -3.100  0.00  0.00    -0.083 Cl
ENDBRANCH   4  12
BRANCH   8  19
ATOM     19  C   UNL     1       2.445  -4.785  -4.871  0.00  0.00    +0.044 A 
ATOM     20  C   UNL     1       3.705  -4.259  -5.122  0.00  0.00    +0.025 A 
ATOM     21  C   UNL     1       4.517  -4.841  -6.076  0.00  0.00    +0.022 A 
ATOM     22  C   UNL     1       4.075  -5.947  -6.781  0.00  0.00    +0.041 A 
ATOM     23  C   UNL     1       2.819  -6.472  -6.533  0.00  0.00    +0.022 A 
ATOM     24  C   UNL     1       2.006  -5.897  -5.575  0.00  0.00    +0.025 A 
ATOM     25 CL   UNL     1       5.097  -6.676  -7.980  0.00  0.00    -0.084 Cl
ENDBRANCH   8  19
BRANCH   1  26
ATOM     26  C   UNL     1       1.850  -2.617  -0.355  0.00  0.00    -0.016 A 
ATOM     27  C   UNL     1       3.023  -1.886  -0.331  0.00  0.00    +0.006 A 
ATOM     28  C   UNL     1       4.117  -2.357   0.370  0.00  0.00    +0.000 A 
ATOM     29  C   UNL     1       4.038  -3.559   1.048  0.00  0.00    +0.000 A 
ATOM     30  C   UNL     1       2.865  -4.290   1.025  0.00  0.00    +0.000 A 
ATOM     31  C   UNL     1       1.770  -3.817   0.327  0.00  0.00    +0.006 A 
ENDBRANCH   1  26
BRANCH   1  32
ATOM     32  C   UNL     1       0.618  -0.598  -1.071  0.00  0.00    +0.333 C 
ATOM     33  O   UNL     1       1.108   0.049  -1.967  0.00  0.00    -0.248 OA
BRANCH  32  35
ATOM     34  C   UNL     1       0.036   1.454  -0.053  0.00  0.00    +0.280 C 
ATOM     35  O   UNL     1       0.037   0.025  -0.034  0.00  0.00    -0.466 OA
ENDBRANCH  32  35
ENDBRANCH   1  32
TORSDOF 5
