REMARK  Name = ZINC40035934
REMARK  10 active torsions:
REMARK  status: ('A' for Active; 'I' for Inactive)
REMARK    1  A    between atoms: C_1  and  C_2
REMARK    2  A    between atoms: C_2  and  C_3
REMARK    3  A    between atoms: C_3  and  C_4
REMARK    4  A    between atoms: C_4  and  C_37
REMARK    5  A    between atoms: N_16  and  C_29
REMARK    6  A    between atoms: N_19  and  N_20
REMARK    7  A    between atoms: C_21  and  C_22
REMARK    8  A    between atoms: C_25  and  C_28
REMARK    9  A    between atoms: C_32  and  O_35
REMARK   10  A    between atoms: O_35  and  C_36
REMARK                            x       y       z     vdW  Elec       q    Type
REMARK                         _______ _______ _______ _____ _____    ______ ____
ROOT
ATOM      1  C   UNL     1       1.050  -1.262  -0.684  0.00  0.00    +0.004 C 
ATOM      2  C   UNL     1       1.301  -1.335  -2.188  0.00  0.00    +0.047 C 
ATOM      3  C   UNL     1       2.769  -1.508  -2.472  0.00  0.00    -0.037 A 
ATOM      4  C   UNL     1       3.344  -0.909  -3.574  0.00  0.00    +0.004 A 
ATOM      5  C   UNL     1       4.693  -1.077  -3.829  0.00  0.00    +0.000 A 
ATOM      6  C   UNL     1       5.476  -1.844  -2.985  0.00  0.00    +0.001 A 
ATOM      7  C   UNL     1       4.913  -2.447  -1.877  0.00  0.00    +0.010 A 
ATOM      8  C   UNL     1       3.557  -2.279  -1.616  0.00  0.00    +0.004 A 
ATOM      9  C   UNL     1       2.927  -2.905  -0.431  0.00  0.00    +0.084 A 
ATOM     10  C   UNL     1       1.709  -2.415   0.018  0.00  0.00    +0.050 A 
ATOM     11  C   UNL     1       1.111  -3.014   1.134  0.00  0.00    +0.264 A 
ATOM     12  O   UNL     1       0.039  -2.613   1.557  0.00  0.00    -0.267 OA
ATOM     13  N   UNL     1       1.745  -4.046   1.732  0.00  0.00    -0.248 N 
ATOM     14  C   UNL     1       2.944  -4.485   1.253  0.00  0.00    +0.223 A 
ATOM     15  N   UNL     1       3.512  -3.926   0.204  0.00  0.00    -0.214 NA
ATOM     16  N   UNL     1       3.573  -5.531   1.878  0.00  0.00    -0.206 N 
ATOM     17  C   UNL     1      -0.457  -1.308  -0.423  0.00  0.00    +0.017 C 
ATOM     18  H   UNL     1       3.131  -5.999   2.604  0.00  0.00    +0.177 HD
ENDROOT
BRANCH  13  19
ATOM     19  C   UNL     1       1.169  -4.668   2.848  0.00  0.00    +0.053 A 
ATOM     20  C   UNL     1       0.301  -5.738   2.677  0.00  0.00    +0.030 A 
ATOM     21  C   UNL     1      -0.266  -6.349   3.777  0.00  0.00    +0.047 A 
ATOM     22  C   UNL     1       0.031  -5.895   5.054  0.00  0.00    +0.120 A 
ATOM     23  C   UNL     1       0.898  -4.826   5.226  0.00  0.00    +0.047 A 
ATOM     24  C   UNL     1       1.471  -4.217   4.126  0.00  0.00    +0.030 A 
BRANCH  22  25
ATOM     25  O   UNL     1      -0.528  -6.498   6.136  0.00  0.00    -0.495 OA
ATOM     26  C   UNL     1      -0.177  -5.978   7.421  0.00  0.00    +0.277 C 
ENDBRANCH  22  25
ENDBRANCH  13  19
BRANCH  16  27
ATOM     27  N   UNL     1       4.854  -5.924   1.468  0.00  0.00    -0.188 NA
ATOM     28  C   UNL     1       5.449  -6.914   2.060  0.00  0.00    +0.138 C 
BRANCH  28  29
ATOM     29  C   UNL     1       6.798  -7.327   1.629  0.00  0.00    -0.005 A 
ATOM     30  C   UNL     1       7.439  -6.652   0.588  0.00  0.00    +0.010 A 
ATOM     31  C   UNL     1       8.700  -7.044   0.190  0.00  0.00    +0.004 A 
ATOM     32  C   UNL     1       9.330  -8.104   0.819  0.00  0.00    -0.050 A 
ATOM     33  C   UNL     1       8.700  -8.778   1.850  0.00  0.00    +0.004 A 
ATOM     34  C   UNL     1       7.442  -8.392   2.263  0.00  0.00    +0.010 A 
ATOM     35  C   UNL     1      10.707  -8.527   0.378  0.00  0.00    +0.044 C 
ENDBRANCH  28  29
ENDBRANCH  16  27
BRANCH   1  36
ATOM     36  C   UNL     1       1.617   0.050  -0.141  0.00  0.00    +0.011 C 
BRANCH  36  38
ATOM     37  C   UNL     1       1.910   1.454   1.905  0.00  0.00    +0.004 C 
ATOM     38  C   UNL     1       1.343   0.141   1.362  0.00  0.00    -0.003 C 
ENDBRANCH  36  38
ENDBRANCH   1  36
TORSDOF 6
