REMARK  Name = ZINC04230082
REMARK  9 active torsions:
REMARK  status: ('A' for Active; 'I' for Inactive)
REMARK    1  A    between atoms: C_4  and  C_7
REMARK    2  A    between atoms: C_8  and  C_9
REMARK    3  A    between atoms: C_9  and  O_11
REMARK    4  A    between atoms: O_11  and  C_12
REMARK    5  A    between atoms: C_17  and  C_18
REMARK    6  A    between atoms: N_19  and  N_20
REMARK    7  A    between atoms: C_21  and  C_23
REMARK    8  A    between atoms: C_23  and  O_24
REMARK    9  A    between atoms: O_24  and  C_25
REMARK                            x       y       z     vdW  Elec       q    Type
REMARK                         _______ _______ _______ _____ _____    ______ ____
ROOT
ATOM      1  C   UNL     1      -5.840  -3.185   0.018  0.00  0.00    +0.141 A 
ATOM      2  C   UNL     1      -7.195  -3.470  -0.013  0.00  0.00    +0.048 A 
ATOM      3  C   UNL     1      -7.628  -4.782  -0.045  0.00  0.00    +0.019 A 
ATOM      4  C   UNL     1      -6.712  -5.821  -0.051  0.00  0.00    +0.019 A 
ATOM      5  C   UNL     1      -5.358  -5.555  -0.027  0.00  0.00    +0.028 A 
ATOM      6  C   UNL     1      -4.909  -4.233   0.006  0.00  0.00    +0.038 A 
ATOM      7 BR   UNL     1      -7.319  -7.612  -0.096  0.00  0.00    -0.050 Br
ENDROOT
BRANCH   6   8
ATOM      8  C   UNL     1      -3.465  -3.941   0.032  0.00  0.00    +0.142 C 
ATOM      9  N   UNL     1      -3.051  -2.711   0.062  0.00  0.00    -0.188 NA
BRANCH   9  10
ATOM     10  N   UNL     1      -1.678  -2.434   0.087  0.00  0.00    -0.204 N 
ATOM     11  C   UNL     1      -1.249  -1.157   0.118  0.00  0.00    +0.270 C 
ATOM     12  O   UNL     1      -2.052  -0.247   0.124  0.00  0.00    -0.270 OA
ATOM     13  H   UNL     1      -1.036  -3.161   0.082  0.00  0.00    +0.177 HD
BRANCH  11  14
ATOM     14  C   UNL     1       0.228  -0.859   0.145  0.00  0.00    +0.326 C 
BRANCH  14  15
ATOM     15  O   UNL     1       0.428   0.556   0.176  0.00  0.00    -0.483 OA
BRANCH  15  16
ATOM     16  C   UNL     1       1.713   0.997   0.203  0.00  0.00    +0.123 A 
ATOM     17  C   UNL     1       2.760   0.087   0.206  0.00  0.00    +0.046 A 
ATOM     18  C   UNL     1       4.066   0.537   0.228  0.00  0.00    +0.005 A 
ATOM     19  C   UNL     1       4.330   1.894   0.258  0.00  0.00    +0.020 A 
ATOM     20  C   UNL     1       3.288   2.804   0.261  0.00  0.00    +0.044 A 
ATOM     21  C   UNL     1       1.980   2.358   0.233  0.00  0.00    +0.065 A 
ATOM     22 CL   UNL     1       3.623   4.507   0.299  0.00  0.00    -0.083 Cl
ENDBRANCH  15  16
ENDBRANCH  14  15
ENDBRANCH  11  14
ENDBRANCH   9  10
ENDBRANCH   6   8
BRANCH   1  23
ATOM     23  O   UNL     1      -5.414  -1.896   0.055  0.00  0.00    -0.422 OA
BRANCH  23  24
ATOM     24  C   UNL     1      -5.114  -1.294  -1.115  0.00  0.00    +0.337 C 
ATOM     25  O   UNL     1      -5.138  -1.932  -2.150  0.00  0.00    -0.245 OA
BRANCH  24  27
ATOM     26  C   UNL     1      -4.458   0.726  -2.307  0.00  0.00    +0.015 C 
ATOM     27  C   UNL     1      -4.759   0.124  -1.137  0.00  0.00    +0.092 C 
BRANCH  26  31
ATOM     28  C   UNL     1      -3.429   4.840  -2.373  0.00  0.00    +0.000 A 
ATOM     29  C   UNL     1      -3.455   4.118  -3.554  0.00  0.00    +0.001 A 
ATOM     30  C   UNL     1      -3.789   2.780  -3.540  0.00  0.00    +0.008 A 
ATOM     31  C   UNL     1      -4.101   2.153  -2.330  0.00  0.00    -0.025 A 
ATOM     32  C   UNL     1      -4.077   2.891  -1.142  0.00  0.00    +0.008 A 
ATOM     33  C   UNL     1      -3.736   4.226  -1.171  0.00  0.00    +0.001 A 
ENDBRANCH  26  31
ENDBRANCH  24  27
ENDBRANCH  23  24
ENDBRANCH   1  23
TORSDOF 9
