REMARK  Name = ZINC63315274
REMARK  6 active torsions:
REMARK  status: ('A' for Active; 'I' for Inactive)
REMARK    1  A    between atoms: C_1  and  C_2
REMARK    2  A    between atoms: C_2  and  C_4
REMARK    3  A    between atoms: C_2  and  N_10
REMARK    4  A    between atoms: C_11  and  C_13
REMARK    5  A    between atoms: C_16  and  C_19
REMARK    6  A    between atoms: C_19  and  C_20
REMARK                            x       y       z     vdW  Elec       q    Type
REMARK                         _______ _______ _______ _____ _____    ______ ____
ROOT
ATOM      1  C   UNL     1      -3.465  -1.164  -1.134  0.00  0.00    +0.329 C 
ATOM      2  N   UNL     1      -3.476  -2.598  -0.816  0.00  0.00    -0.339 N 
ATOM      3  C   UNL     1      -3.990  -3.238  -1.808  0.00  0.00    +0.107 C 
ATOM      4  N   UNL     1      -4.354  -2.397  -2.819  0.00  0.00    -0.251 N 
ATOM      5  O   UNL     1      -4.043  -1.061  -2.444  0.00  0.00    -0.239 OA
ATOM      6  H   UNL     1      -4.760  -2.666  -3.658  0.00  0.00    +0.195 HD
ATOM      7  H   UNL     1      -3.150  -2.997   0.005  0.00  0.00    +0.164 HD
ENDROOT
BRANCH   1   9
ATOM      8  N   UNL     1      -1.372  -0.511   0.012  0.00  0.00    -0.305 N 
ATOM      9  C   UNL     1      -2.051  -0.643  -1.145  0.00  0.00    +0.266 C 
ATOM     10  O   UNL     1      -1.524  -0.341  -2.194  0.00  0.00    -0.271 OA
ATOM     11  H   UNL     1      -1.794  -0.752   0.852  0.00  0.00    +0.149 HD
BRANCH   8  13
ATOM     12  C   UNL     1      -0.019   1.526   0.010  0.00  0.00    +0.033 C 
ATOM     13  C   UNL     1       0.002  -0.004   0.002  0.00  0.00    +0.100 C 
BRANCH  13  14
ATOM     14  C   UNL     1       0.731  -0.503   1.223  0.00  0.00    -0.027 A 
ATOM     15  C   UNL     1       0.081  -0.558   2.442  0.00  0.00    +0.005 A 
ATOM     16  C   UNL     1       0.749  -1.016   3.562  0.00  0.00    +0.000 A 
ATOM     17  C   UNL     1       2.068  -1.420   3.463  0.00  0.00    +0.000 A 
ATOM     18  C   UNL     1       2.718  -1.365   2.244  0.00  0.00    +0.000 A 
ATOM     19  C   UNL     1       2.048  -0.911   1.123  0.00  0.00    +0.005 A 
ENDBRANCH  13  14
ENDBRANCH   8  13
ENDBRANCH   1   9
BRANCH   3  20
ATOM     20  C   UNL     1      -4.169  -4.733  -1.848  0.00  0.00    +0.107 C 
BRANCH  20  21
ATOM     21  C   UNL     1      -2.939  -5.371  -2.440  0.00  0.00    -0.034 C 
ATOM     22  C   UNL     1      -1.883  -5.882  -1.767  0.00  0.00    -0.001 A 
ATOM     23  C   UNL     1      -1.576  -5.993  -0.336  0.00  0.00    +0.010 A 
ATOM     24  C   UNL     1      -0.412  -6.568   0.043  0.00  0.00    +0.001 A 
ATOM     25  C   UNL     1       0.507  -7.058  -0.895  0.00  0.00    +0.002 A 
ATOM     26  C   UNL     1       0.295  -6.992  -2.227  0.00  0.00    +0.026 A 
ATOM     27  C   UNL     1      -0.897  -6.409  -2.737  0.00  0.00    +0.043 A 
ATOM     28  N   UNL     1      -1.326  -6.229  -3.963  0.00  0.00    -0.380 N 
ATOM     29  C   UNL     1      -2.637  -5.574  -3.908  0.00  0.00    +0.145 C 
ATOM     30  H   UNL     1      -0.856  -6.490  -4.771  0.00  0.00    +0.160 HD
ENDBRANCH  20  21
ENDBRANCH   3  20
TORSDOF 5
