REMARK  Name = ZINC20738351
REMARK  3 active torsions:
REMARK  status: ('A' for Active; 'I' for Inactive)
REMARK    1  A    between atoms: C_6  and  C_7
REMARK    2  A    between atoms: C_12  and  C_18
REMARK    3  A    between atoms: N_20  and  C_21
REMARK                            x       y       z     vdW  Elec       q    Type
REMARK                         _______ _______ _______ _____ _____    ______ ____
ROOT
ATOM      1  C   UNL     1      -1.278  -1.060  -0.608  0.00  0.00    +0.095 A 
ATOM      2  C   UNL     1      -1.479  -2.454  -0.519  0.00  0.00    +0.073 A 
ATOM      3  C   UNL     1      -2.796  -2.666  -0.332  0.00  0.00    +0.125 A 
ATOM      4  N   UNL     1      -3.418  -1.449  -0.303  0.00  0.00    -0.237 N 
ATOM      5  N   UNL     1      -2.448  -0.465  -0.471  0.00  0.00    -0.169 NA
ATOM      6  C   UNL     1      -4.864  -1.306  -0.117  0.00  0.00    +0.204 C 
ATOM      7  C   UNL     1      -5.558  -2.543  -0.694  0.00  0.00    +0.132 C 
ATOM      8  C   UNL     1      -4.851  -3.806  -0.291  0.00  0.00    +0.221 C 
ATOM      9  O   UNL     1      -5.503  -4.802  -0.060  0.00  0.00    -0.275 OA
ATOM     10  N   UNL     1      -3.504  -3.860  -0.182  0.00  0.00    -0.270 N 
ATOM     11  H   UNL     1      -3.047  -4.697  -0.005  0.00  0.00    +0.156 HD
ENDROOT
BRANCH   1  17
ATOM     12  C   UNL     1       0.085   1.010  -0.878  0.00  0.00    +0.011 A 
ATOM     13  C   UNL     1       1.299   1.638  -1.069  0.00  0.00    +0.020 A 
ATOM     14  C   UNL     1       2.456   0.888  -1.198  0.00  0.00    +0.041 A 
ATOM     15  C   UNL     1       2.401  -0.493  -1.136  0.00  0.00    +0.020 A 
ATOM     16  C   UNL     1       1.192  -1.130  -0.945  0.00  0.00    +0.011 A 
ATOM     17  C   UNL     1       0.025  -0.380  -0.814  0.00  0.00    +0.002 A 
ATOM     18 CL   UNL     1       3.979   1.684  -1.440  0.00  0.00    -0.084 Cl
ENDBRANCH   1  17
BRANCH   6  19
ATOM     19  C   UNL     1      -5.347  -0.072  -0.834  0.00  0.00    +0.242 C 
ATOM     20  O   UNL     1      -4.560   0.623  -1.442  0.00  0.00    -0.273 OA
ATOM     21  N   UNL     1      -6.653   0.260  -0.800  0.00  0.00    -0.284 N 
ATOM     22  H   UNL     1      -7.293  -0.335  -0.379  0.00  0.00    +0.155 HD
BRANCH  21  23
ATOM     23  C   UNL     1      -7.085   1.463  -1.371  0.00  0.00    +0.036 A 
ATOM     24  C   UNL     1      -8.340   1.542  -1.960  0.00  0.00    +0.026 A 
ATOM     25  C   UNL     1      -8.765   2.729  -2.523  0.00  0.00    +0.043 A 
ATOM     26  C   UNL     1      -7.941   3.842  -2.501  0.00  0.00    +0.159 A 
ATOM     27  C   UNL     1      -6.687   3.766  -1.914  0.00  0.00    +0.160 A 
ATOM     28  C   UNL     1      -6.261   2.580  -1.344  0.00  0.00    +0.064 A 
ATOM     29  F   UNL     1      -5.884   4.853  -1.893  0.00  0.00    -0.202 F 
ATOM     30  F   UNL     1      -8.359   5.002  -3.053  0.00  0.00    -0.202 F 
ENDBRANCH  21  23
ENDBRANCH   6  19
TORSDOF 3
