REMARK  Name = ZINC13065365
REMARK  8 active torsions:
REMARK  status: ('A' for Active; 'I' for Inactive)
REMARK    1  A    between atoms: C_4  and  C_7
REMARK    2  A    between atoms: C_7  and  N_8
REMARK    3  A    between atoms: C_9  and  C_13
REMARK    4  A    between atoms: C_13  and  N_60
REMARK    5  A    between atoms: C_14  and  C_15
REMARK    6  A    between atoms: C_14  and  N_60
REMARK    7  A    between atoms: C_21  and  C_22
REMARK    8  A    between atoms: C_21  and  N_60
REMARK                            x       y       z     vdW  Elec       q    Type
REMARK                         _______ _______ _______ _____ _____    ______ ____
ROOT
ATOM      1  N   UNL     1      -0.108  -0.864   2.034  0.00  0.00    +0.390 N 
ATOM      2  H   UNL     1       0.134   0.106   1.799  0.00  0.00    -0.080 HD
ENDROOT
BRANCH   1   3
ATOM      3  C   UNL     1      -1.541  -1.083   1.748  0.00  0.00    +0.001 C 
BRANCH   3   5
ATOM      4  N   UNL     1      -2.751   1.153   1.950  0.00  0.00    -0.227 N 
ATOM      5  C   UNL     1      -2.346  -0.025   2.458  0.00  0.00    +0.135 A 
ATOM      6  N   UNL     1      -2.786  -0.073   3.692  0.00  0.00    -0.115 NA
ATOM      7  N   UNL     1      -3.434   1.015   3.926  0.00  0.00    -0.023 NA
ATOM      8  N   UNL     1      -3.415   1.759   2.876  0.00  0.00    -0.044 NA
BRANCH   4   9
ATOM      9  C   UNL     1      -2.492   1.652   0.597  0.00  0.00    +0.182 C 
BRANCH   9  13
ATOM     10  C   UNL     1       0.839   4.324   0.672  0.00  0.00    +0.000 A 
ATOM     11  C   UNL     1       1.049   2.961   0.576  0.00  0.00    +0.000 A 
ATOM     12  C   UNL     1      -0.029   2.096   0.555  0.00  0.00    +0.005 A 
ATOM     13  C   UNL     1      -1.317   2.595   0.625  0.00  0.00    -0.026 A 
ATOM     14  C   UNL     1      -1.526   3.957   0.727  0.00  0.00    +0.005 A 
ATOM     15  C   UNL     1      -0.448   4.822   0.748  0.00  0.00    +0.000 A 
ENDBRANCH   9  13
ENDBRANCH   4   9
ENDBRANCH   3   5
ENDBRANCH   1   3
BRANCH   1  16
ATOM     16  C   UNL     1       0.163  -1.092   3.469  0.00  0.00    -0.042 C 
BRANCH  16  17
ATOM     17  C   UNL     1       1.538  -0.567   3.792  0.00  0.00    -0.064 A 
ATOM     18  C   UNL     1       2.616  -1.431   3.828  0.00  0.00    +0.002 A 
ATOM     19  C   UNL     1       3.878  -0.948   4.120  0.00  0.00    +0.000 A 
ATOM     20  C   UNL     1       4.060   0.396   4.387  0.00  0.00    +0.000 A 
ATOM     21  C   UNL     1       2.980   1.259   4.357  0.00  0.00    +0.000 A 
ATOM     22  C   UNL     1       1.719   0.777   4.059  0.00  0.00    +0.002 A 
ENDBRANCH  16  17
ENDBRANCH   1  16
BRANCH   1  23
ATOM     23  C   UNL     1       0.716  -1.776   1.213  0.00  0.00    -0.036 C 
BRANCH  23  24
ATOM     24  C   UNL     1       0.784  -1.233  -0.191  0.00  0.00    +0.001 A 
ATOM     25  C   UNL     1       1.808  -0.418  -0.552  0.00  0.00    +0.017 A 
ATOM     26  C   UNL     1       1.847   0.092  -1.922  0.00  0.00    +0.002 A 
ATOM     27  C   UNL     1       2.880   0.935  -2.350  0.00  0.00    +0.059 A 
ATOM     28  C   UNL     1       2.890   1.399  -3.647  0.00  0.00    +0.167 A 
ATOM     29  C   UNL     1       1.873   1.030  -4.536  0.00  0.00    +0.168 A 
ATOM     30  C   UNL     1       0.849   0.197  -4.122  0.00  0.00    +0.075 A 
ATOM     31  C   UNL     1       0.825  -0.279  -2.817  0.00  0.00    +0.053 A 
ATOM     32  N   UNL     1      -0.189  -1.112  -2.387  0.00  0.00    -0.322 N 
ATOM     33  H   UNL     1      -0.892  -1.367  -3.004  0.00  0.00    +0.169 HD
ATOM     34  C   UNL     1      -0.211  -1.579  -1.127  0.00  0.00    +0.251 A 
ATOM     35  O   UNL     1      -1.119  -2.317  -0.783  0.00  0.00    -0.268 OA
ATOM     36  O   UNL     1       2.118   1.618  -5.742  0.00  0.00    -0.453 OA
ATOM     37  C   UNL     1       3.502   2.012  -5.705  0.00  0.00    +0.466 C 
ATOM     38  O   UNL     1       3.765   2.216  -4.304  0.00  0.00    -0.453 OA
ENDBRANCH  23  24
ENDBRANCH   1  23
TORSDOF 8
