REMARK  Name = ZINC19772673
REMARK  2 active torsions:
REMARK  status: ('A' for Active; 'I' for Inactive)
REMARK    1  A    between atoms: C_4  and  C_7
REMARK    2  A    between atoms: C_9  and  C_12
REMARK                            x       y       z     vdW  Elec       q    Type
REMARK                         _______ _______ _______ _____ _____    ______ ____
ROOT
ATOM      1  C   UNL     1       3.699  -0.689  -0.059  0.00  0.00    +0.202 A 
ATOM      2  N   UNL     1       3.850  -2.022  -0.085  0.00  0.00    -0.187 NA
ATOM      3  C   UNL     1       5.127  -2.328  -0.064  0.00  0.00    +0.261 A 
ATOM      4  O   UNL     1       5.833  -1.184  -0.024  0.00  0.00    -0.332 OA
ATOM      5  N   UNL     1       4.884  -0.129  -0.027  0.00  0.00    -0.056 NA
ENDROOT
BRANCH   3   6
ATOM      6  C   UNL     1       5.691  -3.693  -0.081  0.00  0.00    +0.071 C 
ATOM      7  C   UNL     1       6.996  -3.866  -0.187  0.00  0.00    -0.041 C 
ATOM      8  C   UNL     1       8.007  -2.751  -0.444  0.00  0.00    +0.033 C 
ATOM      9  C   UNL     1       8.769  -3.138  -1.720  0.00  0.00    +0.004 C 
ATOM     10  C   UNL     1       9.340  -4.548  -1.593  0.00  0.00    +0.002 C 
ATOM     11  C   UNL     1       8.220  -5.583  -1.442  0.00  0.00    +0.019 C 
ATOM     12  C   UNL     1       7.486  -5.312  -0.127  0.00  0.00    +0.079 C 
ATOM     13  S   UNL     1       5.915  -6.251  -0.067  0.00  0.00    -0.098 S 
ATOM     14  C   UNL     1       4.792  -4.864   0.028  0.00  0.00    +0.101 C 
ATOM     15  N   UNL     1       3.495  -4.880   0.158  0.00  0.00    -0.292 NA
ATOM     16  H   UNL     1       3.024  -5.726   0.219  0.00  0.00    +0.187 HD
ENDBRANCH   3   6
BRANCH   1  20
ATOM     17  C   UNL     1      -0.016   1.381  -0.095  0.00  0.00    +0.000 A 
ATOM     18  C   UNL     1       1.169   2.093  -0.060  0.00  0.00    +0.001 A 
ATOM     19  C   UNL     1       2.378   1.426  -0.048  0.00  0.00    +0.012 A 
ATOM     20  C   UNL     1       2.402   0.033  -0.071  0.00  0.00    +0.022 A 
ATOM     21  C   UNL     1       1.206  -0.679  -0.107  0.00  0.00    +0.012 A 
ATOM     22  C   UNL     1       0.003  -0.002  -0.119  0.00  0.00    +0.001 A 
ENDBRANCH   1  20
TORSDOF 2
