REMARK  Name = ZINC63275883
REMARK  5 active torsions:
REMARK  status: ('A' for Active; 'I' for Inactive)
REMARK    1  A    between atoms: C_1  and  C_2
REMARK    2  A    between atoms: C_2  and  C_3
REMARK    3  A    between atoms: C_2  and  C_4
REMARK    4  A    between atoms: C_2  and  C_5
REMARK    5  A    between atoms: C_6  and  C_11
REMARK                            x       y       z     vdW  Elec       q    Type
REMARK                         _______ _______ _______ _____ _____    ______ ____
ROOT
ATOM      1  C   UNL     1       0.494  -3.024  -0.837  0.00  0.00    +0.022 C 
ATOM      2  C   UNL     1       1.154  -4.196  -0.985  0.00  0.00    +0.038 C 
ATOM      3  C   UNL     1       0.661  -5.448  -0.303  0.00  0.00    +0.268 C 
ATOM      4  O   UNL     1       0.961  -6.594  -1.099  0.00  0.00    -0.487 OA
ATOM      5  C   UNL     1       2.226  -6.738  -1.560  0.00  0.00    +0.132 A 
ATOM      6  C   UNL     1       2.803  -7.993  -1.676  0.00  0.00    +0.046 A 
ATOM      7  C   UNL     1       4.094  -8.116  -2.152  0.00  0.00    +0.004 A 
ATOM      8  C   UNL     1       4.822  -6.995  -2.517  0.00  0.00    +0.001 A 
ATOM      9  C   UNL     1       4.264  -5.737  -2.407  0.00  0.00    +0.015 A 
ATOM     10  C   UNL     1       2.964  -5.603  -1.928  0.00  0.00    +0.064 A 
ATOM     11  C   UNL     1       2.326  -4.274  -1.793  0.00  0.00    +0.196 C 
ATOM     12  O   UNL     1       2.785  -3.290  -2.345  0.00  0.00    -0.287 OA
ENDROOT
BRANCH   1  14
ATOM     13  C   UNL     1       1.024  -0.535  -1.226  0.00  0.00    +0.075 A 
ATOM     14  C   UNL     1       0.856  -1.868  -1.668  0.00  0.00    +0.016 A 
ATOM     15  C   UNL     1       1.098  -1.878  -3.030  0.00  0.00    +0.113 A 
ATOM     16  N   UNL     1       1.395  -0.619  -3.394  0.00  0.00    -0.284 N 
ATOM     17  H   UNL     1       1.610  -0.325  -4.293  0.00  0.00    +0.188 HD
ATOM     18  N   UNL     1       1.338   0.197  -2.258  0.00  0.00    -0.178 NA
BRANCH  13  20
ATOM     19  C   UNL     1       1.124   1.462   0.242  0.00  0.00    +0.017 C 
ATOM     20  C   UNL     1       0.861  -0.045   0.190  0.00  0.00    +0.007 C 
ATOM     21  C   UNL     1       1.859  -0.767   1.098  0.00  0.00    +0.017 C 
ATOM     22  C   UNL     1      -0.564  -0.331   0.669  0.00  0.00    +0.017 C 
ENDBRANCH  13  20
ENDBRANCH   1  14
TORSDOF 2
