REMARK  Name = ZINC22238323
REMARK  6 active torsions:
REMARK  status: ('A' for Active; 'I' for Inactive)
REMARK    1  A    between atoms: C_1  and  C_2
REMARK    2  A    between atoms: C_2  and  C_3
REMARK    3  A    between atoms: C_6  and  N_9
REMARK    4  A    between atoms: C_11  and  C_16
REMARK    5  A    between atoms: C_21  and  C_24
REMARK    6  A    between atoms: C_24  and  N_25
REMARK                            x       y       z     vdW  Elec       q    Type
REMARK                         _______ _______ _______ _____ _____    ______ ____
ROOT
ATOM      1  C   UNL     1      -8.581  -2.714  -1.416  0.00  0.00    +0.224 C 
ATOM      2  O   UNL     1      -8.601  -1.784  -2.193  0.00  0.00    -0.275 OA
ATOM      3  N   UNL     1      -9.707  -3.411  -1.169  0.00  0.00    -0.264 N 
ATOM      4  C   UNL     1     -10.893  -3.064  -1.805  0.00  0.00    +0.165 A 
ATOM      5  N   UNL     1     -12.079  -3.620  -1.685  0.00  0.00    -0.231 NA
ATOM      6  C   UNL     1     -13.117  -3.169  -2.365  0.00  0.00    +0.034 A 
ATOM      7  C   UNL     1     -12.902  -2.113  -3.187  0.00  0.00    +0.070 A 
ATOM      8  S   UNL     1     -11.162  -1.824  -2.911  0.00  0.00    -0.060 S 
ATOM      9  H   UNL     1      -9.691  -4.155  -0.546  0.00  0.00    +0.157 HD
ENDROOT
BRANCH   1  12
ATOM     10  N   UNL     1      -5.320  -1.968   0.042  0.00  0.00    -0.271 N 
ATOM     11  C   UNL     1      -6.141  -2.159  -1.159  0.00  0.00    +0.127 C 
ATOM     12  C   UNL     1      -7.295  -3.091  -0.725  0.00  0.00    +0.102 C 
ATOM     13  C   UNL     1      -7.377  -2.806   0.792  0.00  0.00    +0.110 C 
ATOM     14  C   UNL     1      -5.989  -2.323   1.153  0.00  0.00    +0.221 C 
ATOM     15  O   UNL     1      -5.545  -2.263   2.280  0.00  0.00    -0.275 OA
BRANCH  10  19
ATOM     16  C   UNL     1      -1.412  -0.526   0.013  0.00  0.00    -0.048 A 
ATOM     17  C   UNL     1      -2.054  -0.752   1.216  0.00  0.00    +0.005 A 
ATOM     18  C   UNL     1      -3.350  -1.230   1.229  0.00  0.00    +0.024 A 
ATOM     19  C   UNL     1      -4.008  -1.483   0.032  0.00  0.00    +0.036 A 
ATOM     20  C   UNL     1      -3.360  -1.254  -1.174  0.00  0.00    +0.024 A 
ATOM     21  C   UNL     1      -2.066  -0.771  -1.181  0.00  0.00    +0.005 A 
BRANCH  16  23
ATOM     22  C   UNL     1      -0.019   1.526  -0.007  0.00  0.00    +0.009 C 
ATOM     23  C   UNL     1       0.002  -0.004   0.002  0.00  0.00    +0.032 C 
ENDBRANCH  16  23
ENDBRANCH  10  19
ENDBRANCH   1  12
BRANCH   6  24
ATOM     24  C   UNL     1     -14.479  -3.801  -2.234  0.00  0.00    -0.022 C 
BRANCH  24  25
ATOM     25  N   UNL     1     -14.575  -4.950  -3.144  0.00  0.00    +0.383 N 
ATOM     26  C   UNL     1     -14.487  -4.482  -4.532  0.00  0.00    -0.078 C 
ATOM     27  C   UNL     1     -14.506  -5.681  -5.482  0.00  0.00    -0.019 C 
ATOM     28  C   UNL     1     -15.810  -6.460  -5.286  0.00  0.00    -0.004 C 
ATOM     29  C   UNL     1     -15.926  -6.880  -3.817  0.00  0.00    -0.019 C 
ATOM     30  C   UNL     1     -15.855  -5.636  -2.930  0.00  0.00    -0.078 C 
ATOM     31  H   UNL     1     -13.817  -5.590  -2.958  0.00  0.00    -0.081 HD
ENDBRANCH  24  25
ENDBRANCH   6  24
TORSDOF 5
