REMARK  Name = ZINC12320232
REMARK  10 active torsions:
REMARK  status: ('A' for Active; 'I' for Inactive)
REMARK    1  A    between atoms: C_1  and  C_2
REMARK    2  A    between atoms: C_7  and  C_8
REMARK    3  A    between atoms: C_13  and  C_23
REMARK    4  A    between atoms: C_15  and  C_19
REMARK    5  A    between atoms: C_19  and  O_21
REMARK    6  A    between atoms: O_21  and  C_22
REMARK    7  A    between atoms: C_25  and  C_37
REMARK    8  A    between atoms: C_26  and  C_27
REMARK    9  A    between atoms: C_27  and  O_29
REMARK   10  A    between atoms: O_29  and  C_30
REMARK                            x       y       z     vdW  Elec       q    Type
REMARK                         _______ _______ _______ _____ _____    ______ ____
ROOT
ATOM      1  C   UNL     1       2.044   3.310  -0.346  0.00  0.00    +0.092 C 
ATOM      2  C   UNL     1       2.354   4.277   0.768  0.00  0.00    +0.025 C 
ATOM      3  C   UNL     1       2.507   5.594   0.514  0.00  0.00    +0.016 C 
ATOM      4  C   UNL     1       2.822   6.567   1.623  0.00  0.00    +0.055 C 
ATOM      5  C   UNL     1       2.206   6.071   2.933  0.00  0.00    +0.013 C 
ATOM      6  C   UNL     1       2.767   4.678   3.237  0.00  0.00    +0.171 C 
ATOM      7  C   UNL     1       2.477   3.770   2.073  0.00  0.00    +0.176 C 
ATOM      8  O   UNL     1       2.347   2.577   2.265  0.00  0.00    -0.291 OA
ATOM      9  C   UNL     1       0.685   5.993   2.789  0.00  0.00    +0.009 C 
ATOM     10  N   UNL     1       2.383   6.075  -0.761  0.00  0.00    -0.321 N 
ATOM     11  C   UNL     1       2.506   5.239  -1.836  0.00  0.00    +0.016 C 
ATOM     12  C   UNL     1       2.356   3.911  -1.685  0.00  0.00    +0.065 C 
ATOM     13  C   UNL     1       2.810   5.808  -3.197  0.00  0.00    +0.061 C 
ATOM     14  H   UNL     1       2.182   7.144  -0.929  0.00  0.00    +0.152 HD
ENDROOT
BRANCH   1  21
ATOM     15  C   UNL     1       1.245   0.539  -0.160  0.00  0.00    +0.044 C 
ATOM     16  C   UNL     1       0.199   1.624  -0.206  0.00  0.00    -0.046 A 
ATOM     17  C   UNL     1      -1.142   1.293  -0.160  0.00  0.00    +0.003 A 
ATOM     18  C   UNL     1      -2.101   2.287  -0.208  0.00  0.00    +0.000 A 
ATOM     19  C   UNL     1      -1.719   3.613  -0.292  0.00  0.00    +0.000 A 
ATOM     20  C   UNL     1      -0.378   3.944  -0.338  0.00  0.00    +0.005 A 
ATOM     21  C   UNL     1       0.582   2.949  -0.295  0.00  0.00    -0.032 A 
ENDBRANCH   1  21
BRANCH   6  22
ATOM     22  C   UNL     1       2.115   4.131   4.481  0.00  0.00    +0.318 C 
ATOM     23  O   UNL     1       1.286   4.787   5.066  0.00  0.00    -0.250 OA
BRANCH  22  24
ATOM     24  O   UNL     1       2.454   2.916   4.938  0.00  0.00    -0.467 OA
ATOM     25  C   UNL     1       1.785   2.454   6.141  0.00  0.00    +0.280 C 
ENDBRANCH  22  24
ENDBRANCH   6  22
BRANCH  12  26
ATOM     26  C   UNL     1       2.496   3.065  -2.810  0.00  0.00    +0.338 C 
ATOM     27  O   UNL     1       3.546   2.483  -3.007  0.00  0.00    -0.245 OA
BRANCH  26  28
ATOM     28  O   UNL     1       1.465   2.904  -3.665  0.00  0.00    -0.458 OA
BRANCH  28  29
ATOM     29  C   UNL     1       1.676   2.035  -4.780  0.00  0.00    +0.177 C 
ATOM     30  C   UNL     1       2.261   2.855  -5.948  0.00  0.00    +0.044 C 
ATOM     31  C   UNL     1       2.947   1.909  -6.898  0.00  0.00    +0.004 C 
ATOM     32  C   UNL     1       2.026   1.464  -8.051  0.00  0.00    +0.000 C 
ATOM     33  C   UNL     1       0.592   1.151  -7.583  0.00  0.00    +0.000 C 
ATOM     34  C   UNL     1       0.563   0.391  -6.285  0.00  0.00    +0.004 C 
ATOM     35  C   UNL     1       0.413   1.400  -5.128  0.00  0.00    +0.044 C 
ENDBRANCH  28  29
ENDBRANCH  26  28
ENDBRANCH  12  26
TORSDOF 6
