REMARK  Name = ZINC13276304
REMARK  10 active torsions:
REMARK  status: ('A' for Active; 'I' for Inactive)
REMARK    1  A    between atoms: CB_1  and  CA_2
REMARK    2  A    between atoms: CA_2  and  C_4
REMARK    3  A    between atoms: CA_2  and  N_6
REMARK    4  A    between atoms: C_7  and  C_9
REMARK    5  A    between atoms: C_12  and  S_18
REMARK    6  A    between atoms: C_13  and  N_15
REMARK    7  A    between atoms: S_18  and  C_19
REMARK    8  A    between atoms: N_23  and  C_24
REMARK    9  A    between atoms: C_27  and  O_30
REMARK   10  A    between atoms: O_30  and  C_31
REMARK                            x       y       z     vdW  Elec       q    Type
REMARK                         _______ _______ _______ _____ _____    ______ ____
ROOT
ATOM      1  C   UNK A   0      -0.022   1.385   0.013  0.00  0.00    +0.039 A 
ATOM      2  C   UNK A   0       1.173   2.093  -0.146  0.00  0.00    +0.014 A 
ATOM      3  C   UNK A   0       2.366   1.428  -0.161  0.00  0.00    +0.018 A 
ATOM      4  C   UNK A   0       2.397   0.043  -0.019  0.00  0.00    +0.046 A 
ATOM      5  C   UNK A   0       1.211  -0.671   0.139  0.00  0.00    +0.141 A 
ATOM      6  C   UNK A   0       0.006  -0.005   0.155  0.00  0.00    +0.047 A 
ENDROOT
BRANCH   1   8
ATOM      7  N   ALA A   1      -1.336   3.443  -0.115  0.00  0.00    -0.298 N 
ATOM      8  C   UNK A   0      -1.310   2.103   0.023  0.00  0.00    +0.245 C 
ATOM      9  O   UNK A   0      -2.349   1.486   0.156  0.00  0.00    -0.270 OA
ATOM     10  H   ALA A   1      -0.507   3.936  -0.221  0.00  0.00    +0.150 HD
BRANCH   7  12
ATOM     11  CB  ALA A   1      -3.027   4.444   1.341  0.00  0.00    +0.040 C 
ATOM     12  CA  ALA A   1      -2.616   4.157  -0.104  0.00  0.00    +0.183 C 
BRANCH  12  13
ATOM     13  C   ALA A   1      -2.473   5.456  -0.854  0.00  0.00    +0.376 C 
ATOM     14  O   ALA A   1      -1.411   5.756  -1.346  0.00  0.00    -0.244 OA
ATOM     15  OXT ALA A   1      -3.525   6.281  -0.975  0.00  0.00    -0.244 OA
ENDBRANCH  12  13
ENDBRANCH   7  12
ENDBRANCH   1   8
BRANCH   5  16
ATOM     16  N   UNK A   0       1.247  -2.143   0.289  0.00  0.00    +0.058 N 
ATOM     17  O   UNK A   0       0.210  -2.766   0.427  0.00  0.00    -0.126 OA
ATOM     18  O   UNK A   0       2.313  -2.731   0.275  0.00  0.00    -0.126 OA
ENDBRANCH   5  16
BRANCH   4  19
ATOM     19  S   UNK A   0       3.939  -0.809  -0.041  0.00  0.00    -0.046 S 
BRANCH  19  20
ATOM     20  C   UNK A   0       3.902  -1.468  -1.674  0.00  0.00    +0.219 A 
ATOM     21  N   UNK A   0       2.986  -1.239  -2.589  0.00  0.00    -0.101 NA
ATOM     22  N   UNK A   0       3.262  -1.872  -3.672  0.00  0.00    -0.022 NA
ATOM     23  N   UNK A   0       4.351  -2.548  -3.531  0.00  0.00    -0.038 NA
ATOM     24  N   UNK A   0       4.811  -2.311  -2.224  0.00  0.00    -0.187 N 
BRANCH  24  25
ATOM     25  C   UNK A   0       5.963  -2.836  -1.619  0.00  0.00    +0.070 A 
ATOM     26  C   UNK A   0       6.689  -2.063  -0.722  0.00  0.00    +0.031 A 
ATOM     27  C   UNK A   0       7.820  -2.581  -0.123  0.00  0.00    +0.048 A 
ATOM     28  C   UNK A   0       8.237  -3.869  -0.425  0.00  0.00    +0.130 A 
ATOM     29  C   UNK A   0       7.516  -4.640  -1.325  0.00  0.00    +0.048 A 
ATOM     30  C   UNK A   0       6.381  -4.125  -1.921  0.00  0.00    +0.031 A 
BRANCH  28  31
ATOM     31  O   UNK A   0       9.354  -4.377   0.162  0.00  0.00    -0.406 OA
BRANCH  31  32
ATOM     32  C   UNK A   0      10.048  -3.529   1.078  0.00  0.00    +0.575 C 
ATOM     33  F   UNK A   0       9.195  -3.183   2.131  0.00  0.00    -0.133 F 
ATOM     34  F   UNK A   0      11.164  -4.204   1.585  0.00  0.00    -0.133 F 
ATOM     35  F   UNK A   0      10.465  -2.369   0.416  0.00  0.00    -0.133 F 
ENDBRANCH  31  32
ENDBRANCH  28  31
ENDBRANCH  24  25
ENDBRANCH  19  20
ENDBRANCH   4  19
TORSDOF 9
