REMARK  Name = ZINC00710590
REMARK  11 active torsions:
REMARK  status: ('A' for Active; 'I' for Inactive)
REMARK    1  A    between atoms: C_1  and  C_2
REMARK    2  A    between atoms: C_6  and  N_9
REMARK    3  A    between atoms: C_7  and  C_8
REMARK    4  A    between atoms: C_10  and  C_12
REMARK    5  A    between atoms: C_12  and  S_13
REMARK    6  A    between atoms: S_13  and  C_14
REMARK    7  A    between atoms: C_15  and  C_36
REMARK    8  A    between atoms: C_16  and  C_31
REMARK    9  A    between atoms: C_18  and  C_22
REMARK   10  A    between atoms: C_19  and  C_21
REMARK   11  A    between atoms: N_24  and  C_25
REMARK                            x       y       z     vdW  Elec       q    Type
REMARK                         _______ _______ _______ _____ _____    ______ ____
ROOT
ATOM      1  C   UNL     1      -2.800   2.839   2.469  0.00  0.00    +0.093 C 
ATOM      2  C   UNL     1      -2.289   2.776   3.728  0.00  0.00    +0.161 C 
ATOM      3  C   UNL     1      -0.964   2.124   3.999  0.00  0.00    +0.115 C 
ATOM      4  C   UNL     1      -0.187   1.939   2.727  0.00  0.00    +0.048 C 
ATOM      5  C   UNL     1      -0.771   2.035   1.521  0.00  0.00    +0.048 C 
ATOM      6  N   UNL     1      -2.107   2.308   1.406  0.00  0.00    -0.248 NA
ATOM      7  C   UNL     1       0.054   1.831   0.277  0.00  0.00    +0.066 C 
ENDROOT
BRANCH   3   8
ATOM      8  C   UNL     1      -1.206   0.778   4.632  0.00  0.00    +0.114 A 
ATOM      9  C   UNL     1      -0.793   0.399   5.854  0.00  0.00    +0.045 A 
ATOM     10  C   UNL     1      -1.235  -0.931   6.042  0.00  0.00    +0.041 A 
ATOM     11  C   UNL     1      -1.892  -1.284   4.922  0.00  0.00    +0.195 A 
ATOM     12  O   UNL     1      -1.877  -0.243   4.075  0.00  0.00    -0.467 OA
ENDBRANCH   3   8
BRANCH   4  13
ATOM     13  C   UNL     1       1.198   1.660   2.801  0.00  0.00    +0.247 C 
ATOM     14  O   UNL     1       1.863   1.603   1.782  0.00  0.00    -0.270 OA
ATOM     15  N   UNL     1       1.782   1.456   3.999  0.00  0.00    -0.282 N 
ATOM     16  H   UNL     1       1.242   1.437   4.804  0.00  0.00    +0.155 HD
BRANCH  15  17
ATOM     17  C   UNL     1       3.166   1.275   4.080  0.00  0.00    +0.034 A 
ATOM     18  C   UNL     1       3.837   0.579   3.083  0.00  0.00    +0.023 A 
ATOM     19  C   UNL     1       5.205   0.407   3.163  0.00  0.00    +0.002 A 
ATOM     20  C   UNL     1       5.905   0.916   4.241  0.00  0.00    +0.000 A 
ATOM     21  C   UNL     1       5.240   1.604   5.239  0.00  0.00    +0.002 A 
ATOM     22  C   UNL     1       3.873   1.785   5.162  0.00  0.00    +0.023 A 
ENDBRANCH  15  17
ENDBRANCH   4  13
BRANCH   2  23
ATOM     23  C   UNL     1      -3.025   3.347   4.815  0.00  0.00    +0.074 C 
ATOM     24  N   UNL     1      -3.610   3.800   5.677  0.00  0.00    -0.196 NA
ENDBRANCH   2  23
BRANCH   1  25
ATOM     25  S   UNL     1      -4.364   3.606   2.198  0.00  0.00    -0.100 S 
BRANCH  25  26
ATOM     26  C   UNL     1      -4.513   3.389   0.407  0.00  0.00    +0.171 C 
BRANCH  26  28
ATOM     27  N   UNL     1      -6.142   3.942  -1.371  0.00  0.00    -0.285 N 
ATOM     28  C   UNL     1      -5.814   3.986  -0.064  0.00  0.00    +0.227 C 
ATOM     29  O   UNL     1      -6.566   4.508   0.732  0.00  0.00    -0.275 OA
ATOM     30  H   UNL     1      -5.574   3.468  -1.998  0.00  0.00    +0.155 HD
BRANCH  27  36
ATOM     31  C   UNL     1      -8.526   6.377  -4.915  0.00  0.00    +0.044 C 
ATOM     32  C   UNL     1      -8.486   5.768  -3.537  0.00  0.00    -0.046 A 
ATOM     33  C   UNL     1      -9.598   5.840  -2.717  0.00  0.00    +0.004 A 
ATOM     34  C   UNL     1      -9.565   5.283  -1.452  0.00  0.00    +0.002 A 
ATOM     35  C   UNL     1      -8.421   4.653  -1.003  0.00  0.00    +0.023 A 
ATOM     36  C   UNL     1      -7.303   4.579  -1.823  0.00  0.00    +0.037 A 
ATOM     37  C   UNL     1      -7.337   5.145  -3.091  0.00  0.00    -0.026 A 
ATOM     38  C   UNL     1      -6.124   5.073  -3.982  0.00  0.00    +0.046 C 
ENDBRANCH  27  36
ENDBRANCH  26  28
ENDBRANCH  25  26
ENDBRANCH   1  25
TORSDOF 8
