REMARK  Name = ZINC16887081
REMARK  8 active torsions:
REMARK  status: ('A' for Active; 'I' for Inactive)
REMARK    1  A    between atoms: C_4  and  C_7
REMARK    2  A    between atoms: C_8  and  C_9
REMARK    3  A    between atoms: N_11  and  C_12
REMARK    4  A    between atoms: C_12  and  C_23
REMARK    5  A    between atoms: C_13  and  C_14
REMARK    6  A    between atoms: C_23  and  O_25
REMARK    7  A    between atoms: O_25  and  C_26
REMARK    8  A    between atoms: C_26  and  N_27
REMARK                            x       y       z     vdW  Elec       q    Type
REMARK                         _______ _______ _______ _____ _____    ______ ____
ROOT
ATOM      1  C   UNL     1       2.323   1.062  -0.274  0.00  0.00    +0.119 C 
ATOM      2  C   UNL     1       2.236  -0.267  -0.025  0.00  0.00    +0.038 C 
ENDROOT
BRANCH   2   3
ATOM      3  C   UNL     1       0.922  -0.924   0.009  0.00  0.00    -0.019 A 
ATOM      4  C   UNL     1       0.778  -2.173   0.623  0.00  0.00    +0.012 A 
ATOM      5  C   UNL     1      -0.456  -2.784   0.658  0.00  0.00    +0.050 A 
ATOM      6  C   UNL     1      -1.558  -2.169   0.078  0.00  0.00    +0.166 A 
ATOM      7  C   UNL     1      -1.421  -0.925  -0.540  0.00  0.00    +0.167 A 
ATOM      8  C   UNL     1      -0.188  -0.304  -0.576  0.00  0.00    +0.057 A 
ATOM      9  O   UNL     1      -2.638  -0.544  -1.026  0.00  0.00    -0.453 OA
ATOM     10  C   UNL     1      -3.600  -1.370  -0.343  0.00  0.00    +0.466 C 
ATOM     11  O   UNL     1      -2.861  -2.563  -0.022  0.00  0.00    -0.453 OA
ENDBRANCH   2   3
BRANCH   1  14
ATOM     12  C   UNL     1       0.899   2.549  -1.465  0.00  0.00    +0.241 C 
ATOM     13  O   UNL     1       1.723   2.607  -2.359  0.00  0.00    -0.270 OA
ATOM     14  N   UNL     1       1.161   1.837  -0.351  0.00  0.00    -0.276 N 
ATOM     15  H   UNL     1       0.543   1.861   0.397  0.00  0.00    +0.155 HD
BRANCH  12  17
ATOM     16  C   UNL     1      -0.679   3.889  -2.750  0.00  0.00    +0.013 C 
ATOM     17  C   UNL     1      -0.375   3.258  -1.597  0.00  0.00    +0.068 C 
BRANCH  16  21
ATOM     18  C   UNL     1      -4.208   6.227  -3.021  0.00  0.00    +0.000 A 
ATOM     19  C   UNL     1      -3.371   6.114  -4.117  0.00  0.00    +0.001 A 
ATOM     20  C   UNL     1      -2.222   5.356  -4.037  0.00  0.00    +0.008 A 
ATOM     21  C   UNL     1      -1.903   4.701  -2.844  0.00  0.00    -0.025 A 
ATOM     22  C   UNL     1      -2.757   4.815  -1.742  0.00  0.00    +0.008 A 
ATOM     23  C   UNL     1      -3.900   5.582  -1.836  0.00  0.00    +0.001 A 
ENDBRANCH  16  21
ENDBRANCH  12  17
ENDBRANCH   1  14
BRANCH   1  24
ATOM     24  C   UNL     1       3.636   1.689  -0.461  0.00  0.00    +0.355 C 
ATOM     25  O   UNL     1       3.714   2.882  -0.684  0.00  0.00    -0.243 OA
BRANCH  24  26
ATOM     26  O   UNL     1       4.757   0.942  -0.387  0.00  0.00    -0.440 OA
BRANCH  26  27
ATOM     27  C   UNL     1       6.021   1.629  -0.582  0.00  0.00    +0.353 C 
BRANCH  27  28
ATOM     28  N   UNL     1       6.403   2.312   0.656  0.00  0.00    -0.199 N 
ATOM     29  C   UNL     1       5.841   3.450   1.103  0.00  0.00    +0.256 C 
ATOM     30  O   UNL     1       4.949   4.064   0.552  0.00  0.00    -0.269 OA
ATOM     31  C   UNL     1       6.487   3.825   2.378  0.00  0.00    +0.049 A 
ATOM     32  C   UNL     1       6.326   4.870   3.274  0.00  0.00    +0.014 A 
ATOM     33  C   UNL     1       7.122   4.934   4.407  0.00  0.00    +0.001 A 
ATOM     34  C   UNL     1       8.075   3.962   4.649  0.00  0.00    +0.001 A 
ATOM     35  C   UNL     1       8.247   2.910   3.762  0.00  0.00    +0.014 A 
ATOM     36  C   UNL     1       7.458   2.834   2.625  0.00  0.00    +0.049 A 
ATOM     37  C   UNL     1       7.366   1.887   1.494  0.00  0.00    +0.256 C 
ATOM     38  O   UNL     1       8.046   0.892   1.346  0.00  0.00    -0.269 OA
ENDBRANCH  27  28
ENDBRANCH  26  27
ENDBRANCH  24  26
ENDBRANCH   1  24
TORSDOF 8
