REMARK  Name = ZINC06600331
REMARK  12 active torsions:
REMARK  status: ('A' for Active; 'I' for Inactive)
REMARK    1  A    between atoms: C_1  and  C_2
REMARK    2  A    between atoms: C_2  and  O_3
REMARK    3  A    between atoms: O_3  and  C_4
REMARK    4  A    between atoms: C_6  and  N_16
REMARK    5  A    between atoms: C_7  and  O_13
REMARK    6  A    between atoms: C_9  and  N_10
REMARK    7  A    between atoms: O_13  and  C_14
REMARK    8  A    between atoms: C_14  and  C_15
REMARK    9  A    between atoms: C_17  and  C_19
REMARK   10  A    between atoms: C_19  and  S_20
REMARK   11  A    between atoms: S_20  and  C_21
REMARK   12  A    between atoms: C_31  and  C_35
REMARK                            x       y       z     vdW  Elec       q    Type
REMARK                         _______ _______ _______ _____ _____    ______ ____
ROOT
ATOM      1  N   UNL     1      -1.897   2.399   3.529  0.00  0.00    -0.282 N 
ATOM      2  C   UNL     1      -2.533   2.720   4.674  0.00  0.00    +0.228 C 
ATOM      3  O   UNL     1      -2.059   2.396   5.742  0.00  0.00    -0.275 OA
ATOM      4  H   UNL     1      -2.233   2.726   2.680  0.00  0.00    +0.155 HD
ENDROOT
BRANCH   1   7
ATOM      5  C   UNL     1       0.585  -0.075   4.661  0.00  0.00    +0.153 A 
ATOM      6  C   UNL     1      -0.552   0.719   4.625  0.00  0.00    +0.075 A 
ATOM      7  C   UNL     1      -0.752   1.592   3.566  0.00  0.00    +0.079 A 
ATOM      8  C   UNL     1       0.184   1.662   2.538  0.00  0.00    +0.144 A 
ATOM      9  C   UNL     1       1.317   0.867   2.579  0.00  0.00    +0.084 A 
ATOM     10  C   UNL     1       1.518   0.001   3.638  0.00  0.00    +0.171 A 
BRANCH  10  11
ATOM     11  N   UNL     1       2.730  -0.847   3.680  0.00  0.00    +0.060 N 
ATOM     12  O   UNL     1       3.550  -0.782   2.782  0.00  0.00    -0.126 OA
ATOM     13  O   UNL     1       2.908  -1.611   4.612  0.00  0.00    -0.126 OA
ENDBRANCH  10  11
BRANCH   5  14
ATOM     14  O   UNL     1       0.784  -0.928   5.701  0.00  0.00    -0.490 OA
BRANCH  14  16
ATOM     15  C   UNL     1       0.178  -1.966   7.798  0.00  0.00    +0.048 C 
ATOM     16  C   UNL     1      -0.217  -0.955   6.720  0.00  0.00    +0.226 C 
ENDBRANCH  14  16
ENDBRANCH   5  14
BRANCH   8  17
ATOM     17  O   UNL     1      -0.012   2.514   1.495  0.00  0.00    -0.490 OA
BRANCH  17  18
ATOM     18  C   UNL     1       0.993   2.538   0.479  0.00  0.00    +0.226 C 
ATOM     19  C   UNL     1       0.601   3.548  -0.601  0.00  0.00    +0.048 C 
ENDBRANCH  17  18
ENDBRANCH   8  17
ENDBRANCH   1   7
BRANCH   2  20
ATOM     20  C   UNL     1      -3.832   3.482   4.626  0.00  0.00    +0.171 C 
BRANCH  20  21
ATOM     21  S   UNL     1      -4.431   3.758   6.311  0.00  0.00    -0.096 S 
BRANCH  21  22
ATOM     22  C   UNL     1      -5.916   4.642   5.967  0.00  0.00    +0.109 A 
ATOM     23  C   UNL     1      -6.758   5.081   7.028  0.00  0.00    +0.043 A 
ATOM     24  C   UNL     1      -6.573   4.917   8.470  0.00  0.00    -0.025 A 
ATOM     25  C   UNL     1      -7.524   5.438   9.272  0.00  0.00    -0.004 A 
ATOM     26  S   UNL     1      -8.703   6.175   8.171  0.00  0.00    -0.073 S 
ATOM     27  C   UNL     1      -7.915   5.781   6.632  0.00  0.00    +0.113 A 
ATOM     28  N   UNL     1      -8.189   5.997   5.360  0.00  0.00    -0.228 NA
ATOM     29  C   UNL     1      -7.373   5.562   4.420  0.00  0.00    +0.223 A 
ATOM     30  N   UNL     1      -6.267   4.903   4.717  0.00  0.00    -0.229 NA
ATOM     31  C   UNL     1      -7.571   5.400  10.769  0.00  0.00    +0.046 C 
ATOM     32  C   UNL     1      -6.559   4.354  11.259  0.00  0.00    -0.009 C 
ATOM     33  C   UNL     1      -5.230   4.578  10.533  0.00  0.00    +0.008 C 
ATOM     34  C   UNL     1      -5.370   4.188   9.061  0.00  0.00    +0.037 C 
ATOM     35  C   UNL     1      -6.355   4.504  12.768  0.00  0.00    +0.008 C 
ENDBRANCH  21  22
ENDBRANCH  20  21
ENDBRANCH   2  20
TORSDOF 9
