REMARK  Name = ZINC13245722
REMARK  10 active torsions:
REMARK  status: ('A' for Active; 'I' for Inactive)
REMARK    1  A    between atoms: C_1  and  C_2
REMARK    2  A    between atoms: C_2  and  O_3
REMARK    3  A    between atoms: O_3  and  C_4
REMARK    4  A    between atoms: C_9  and  N_12
REMARK    5  A    between atoms: C_13  and  C_15
REMARK    6  A    between atoms: C_15  and  N_16
REMARK    7  A    between atoms: N_19  and  CA_20
REMARK    8  A    between atoms: CA_20  and  C_22
REMARK    9  A    between atoms: CA_20  and  C_30
REMARK   10  A    between atoms: C_22  and  C_23
REMARK                            x       y       z     vdW  Elec       q    Type
REMARK                         _______ _______ _______ _____ _____    ______ ____
ROOT
ATOM      1  N   UNL     1      -3.887  -0.432  -1.145  0.00  0.00    -0.291 N 
ATOM      2  C   UNL     1      -2.875   0.458  -1.145  0.00  0.00    +0.301 C 
ATOM      3  O   UNL     1      -2.362   0.796  -2.194  0.00  0.00    -0.253 OA
ATOM      4  N   UNL     1      -2.430   0.973   0.019  0.00  0.00    -0.286 N 
ATOM      5  H   UNL     1      -4.296  -0.702  -0.307  0.00  0.00    +0.151 HD
ATOM      6  H   UNL     1      -2.839   0.703   0.856  0.00  0.00    +0.151 HD
ENDROOT
BRANCH   1   7
ATOM      7  C   UNL     1      -4.370  -0.992  -2.409  0.00  0.00    +0.201 C 
BRANCH   7   9
ATOM      8  N   UNL     1      -6.102  -2.593  -3.156  0.00  0.00    -0.311 N 
ATOM      9  C   UNL     1      -5.498  -1.953  -2.135  0.00  0.00    +0.230 C 
ATOM     10  O   UNL     1      -5.862  -2.151  -0.995  0.00  0.00    -0.274 OA
ATOM     11  H   UNL     1      -5.810  -2.434  -4.068  0.00  0.00    +0.149 HD
BRANCH   8  17
ATOM     12  C   UNL     1      -9.070  -7.019  -3.972  0.00  0.00    +0.403 C 
ATOM     13  O   UNL     1      -9.850  -7.002  -4.904  0.00  0.00    -0.226 OA
ATOM     14  N   UNL     1      -8.712  -5.867  -3.372  0.00  0.00    -0.267 N 
ATOM     15  C   UNL     1      -9.256  -4.582  -3.832  0.00  0.00    +0.113 C 
ATOM     16  C   UNL     1      -8.092  -3.631  -4.127  0.00  0.00    +0.041 C 
ATOM     17  C   UNL     1      -7.198  -3.527  -2.889  0.00  0.00    +0.076 C 
ATOM     18  C   UNL     1      -6.622  -4.906  -2.557  0.00  0.00    +0.041 C 
ATOM     19  C   UNL     1      -7.770  -5.872  -2.244  0.00  0.00    +0.113 C 
BRANCH  12  20
ATOM     20  O   UNL     1      -8.564  -8.189  -3.540  0.00  0.00    -0.451 OA
BRANCH  20  22
ATOM     21  C   UNL     1      -8.318 -10.611  -3.606  0.00  0.00    +0.048 C 
ATOM     22  C   UNL     1      -8.993  -9.390  -4.234  0.00  0.00    +0.230 C 
ENDBRANCH  20  22
ENDBRANCH  12  20
ENDBRANCH   8  17
ENDBRANCH   7   9
ENDBRANCH   1   7
BRANCH   4  23
ATOM     23  CA  UNL     1      -1.329   1.940   0.019  0.00  0.00    +0.196 C 
BRANCH  23  24
ATOM     24  C   UNL     1      -0.014   1.204   0.009  0.00  0.00    +0.376 C 
ATOM     25  O   UNL     1       0.002  -0.004   0.002  0.00  0.00    -0.244 OA
ATOM     26  OXT UNL     1       1.139   1.891   0.001  0.00  0.00    -0.244 OA
ENDBRANCH  23  24
BRANCH  23  27
ATOM     27  C   UNL     1      -1.417   2.811   1.273  0.00  0.00    +0.130 C 
BRANCH  27  28
ATOM     28  C   UNL     1      -2.675   3.639   1.223  0.00  0.00    +0.218 C 
ATOM     29  O   UNL     1      -3.428   3.542   0.278  0.00  0.00    -0.276 OA
ATOM     30  N   UNL     1      -2.963   4.488   2.230  0.00  0.00    -0.301 N 
ATOM     31  C   UNL     1      -2.146   4.699   3.433  0.00  0.00    +0.108 C 
ATOM     32  C   UNL     1      -2.879   5.737   4.309  0.00  0.00    +0.020 C 
ATOM     33  C   UNL     1      -4.348   5.624   3.822  0.00  0.00    +0.020 C 
ATOM     34  C   UNL     1      -4.154   5.354   2.309  0.00  0.00    +0.108 C 
ENDBRANCH  27  28
ENDBRANCH  23  27
ENDBRANCH   4  23
TORSDOF 9
