REMARK  Name = ZINC41007036
REMARK  13 active torsions:
REMARK  status: ('A' for Active; 'I' for Inactive)
REMARK    1  A    between atoms: C_1  and  C_2
REMARK    2  A    between atoms: C_2  and  C_3
REMARK    3  A    between atoms: C_3  and  C_4
REMARK    4  A    between atoms: C_4  and  C_5
REMARK    5  A    between atoms: C_5  and  O_6
REMARK    6  A    between atoms: O_6  and  C_7
REMARK    7  A    between atoms: C_12  and  C_13
REMARK    8  A    between atoms: C_15  and  C_34
REMARK    9  A    between atoms: C_20  and  C_32
REMARK   10  A    between atoms: C_20  and  O_33
REMARK   11  A    between atoms: C_21  and  C_23
REMARK   12  A    between atoms: N_25  and  C_26
REMARK   13  A    between atoms: N_36  and  C_37
REMARK                            x       y       z     vdW  Elec       q    Type
REMARK                         _______ _______ _______ _____ _____    ______ ____
ROOT
ATOM      1  C   UNL     1      -2.432  -6.568  -0.014  0.00  0.00    +0.056 C 
ATOM      2  C   UNL     1      -2.572  -7.456   1.227  0.00  0.00    +0.150 C 
ATOM      3  C   UNL     1      -1.457  -8.479   1.215  0.00  0.00    +0.148 C 
ATOM      4  O   UNL     1      -0.752  -8.638   2.182  0.00  0.00    -0.296 OA
ATOM      5  C   UNL     1      -1.249  -9.298  -0.040  0.00  0.00    +0.110 C 
ATOM      6  C   UNL     1      -1.157  -8.343  -1.235  0.00  0.00    +0.082 C 
ATOM      7  C   UNL     1      -2.396  -7.447  -1.266  0.00  0.00    +0.116 C 
ATOM      8  C   UNL     1       0.097  -7.477  -1.100  0.00  0.00    +0.042 C 
ENDROOT
BRANCH   1  14
ATOM      9  C   UNL     1      -3.399  -4.256  -0.075  0.00  0.00    +0.124 A 
ATOM     10  C   UNL     1      -4.482  -3.392  -0.154  0.00  0.00    +0.046 A 
ATOM     11  C   UNL     1      -5.763  -3.899  -0.247  0.00  0.00    +0.004 A 
ATOM     12  C   UNL     1      -5.967  -5.267  -0.260  0.00  0.00    +0.001 A 
ATOM     13  C   UNL     1      -4.890  -6.130  -0.181  0.00  0.00    +0.007 A 
ATOM     14  C   UNL     1      -3.606  -5.627  -0.094  0.00  0.00    -0.001 A 
BRANCH   9  15
ATOM     15  O   UNL     1      -2.137  -3.759   0.015  0.00  0.00    -0.492 OA
BRANCH  15  16
ATOM     16  C   UNL     1      -1.999  -2.337   0.029  0.00  0.00    +0.229 C 
BRANCH  16  17
ATOM     17  C   UNL     1      -0.518  -1.969   0.135  0.00  0.00    +0.041 C 
BRANCH  17  18
ATOM     18  C   UNL     1      -0.370  -0.446   0.150  0.00  0.00    +0.003 C 
BRANCH  18  20
ATOM     19  C   UNL     1       1.259   1.444   0.271  0.00  0.00    +0.004 C 
ATOM     20  C   UNL     1       1.111  -0.079   0.255  0.00  0.00    -0.003 C 
ENDBRANCH  18  20
ENDBRANCH  17  18
ENDBRANCH  16  17
ENDBRANCH  15  16
ENDBRANCH   9  15
ENDBRANCH   1  14
BRANCH   7  21
ATOM     21  C   UNL     1      -2.349  -6.571  -2.491  0.00  0.00    +0.224 C 
ATOM     22  O   UNL     1      -2.345  -5.363  -2.374  0.00  0.00    -0.275 OA
ATOM     23  N   UNL     1      -2.312  -7.128  -3.718  0.00  0.00    -0.285 N 
ATOM     24  H   UNL     1      -2.252  -8.092  -3.811  0.00  0.00    +0.155 HD
BRANCH  23  25
ATOM     25  C   UNL     1      -2.360  -6.318  -4.857  0.00  0.00    +0.033 A 
ATOM     26  C   UNL     1      -3.031  -6.753  -5.993  0.00  0.00    +0.023 A 
ATOM     27  C   UNL     1      -3.077  -5.950  -7.116  0.00  0.00    +0.002 A 
ATOM     28  C   UNL     1      -2.456  -4.714  -7.110  0.00  0.00    +0.000 A 
ATOM     29  C   UNL     1      -1.788  -4.278  -5.981  0.00  0.00    +0.002 A 
ATOM     30  C   UNL     1      -1.743  -5.074  -4.853  0.00  0.00    +0.023 A 
ENDBRANCH  23  25
ENDBRANCH   7  21
BRANCH   2  31
ATOM     31  C   UNL     1      -2.473  -6.609   2.469  0.00  0.00    +0.228 C 
ATOM     32  O   UNL     1      -2.307  -5.411   2.374  0.00  0.00    -0.275 OA
ATOM     33  N   UNL     1      -2.569  -7.182   3.685  0.00  0.00    -0.285 N 
ATOM     34  H   UNL     1      -2.629  -8.147   3.763  0.00  0.00    +0.155 HD
BRANCH  33  35
ATOM     35  C   UNL     1      -2.584  -6.385   4.835  0.00  0.00    +0.033 A 
ATOM     36  C   UNL     1      -2.001  -6.845   6.008  0.00  0.00    +0.023 A 
ATOM     37  C   UNL     1      -2.018  -6.056   7.142  0.00  0.00    +0.002 A 
ATOM     38  C   UNL     1      -2.613  -4.808   7.109  0.00  0.00    +0.000 A 
ATOM     39  C   UNL     1      -3.195  -4.347   5.942  0.00  0.00    +0.002 A 
ATOM     40  C   UNL     1      -3.176  -5.129   4.804  0.00  0.00    +0.023 A 
ENDBRANCH  33  35
ENDBRANCH   2  31
BRANCH   6  41
ATOM     41  O   UNL     1      -1.086  -9.100  -2.445  0.00  0.00    -0.388 OA
ATOM     42  H   UNL     1      -0.323  -9.693  -2.494  0.00  0.00    +0.210 HD
ENDBRANCH   6  41
TORSDOF 11
