REMARK  Name = ZINC63270445
REMARK  11 active torsions:
REMARK  status: ('A' for Active; 'I' for Inactive)
REMARK    1  A    between atoms: C_1  and  C_2
REMARK    2  A    between atoms: C_4  and  O_17
REMARK    3  A    between atoms: C_11  and  O_15
REMARK    4  A    between atoms: O_15  and  C_16
REMARK    5  A    between atoms: O_17  and  C_18
REMARK    6  A    between atoms: C_21  and  C_24
REMARK    7  A    between atoms: N_26  and  C_27
REMARK    8  A    between atoms: C_27  and  C_28
REMARK    9  A    between atoms: C_28  and  C_29
REMARK   10  A    between atoms: C_33  and  O_38
REMARK   11  A    between atoms: O_38  and  C_39
REMARK                            x       y       z     vdW  Elec       q    Type
REMARK                         _______ _______ _______ _____ _____    ______ ____
ROOT
ATOM      1  C   UNL     1      -3.443   0.215   1.046  0.00  0.00    +0.122 A 
ATOM      2  C   UNL     1      -4.094  -0.064  -0.150  0.00  0.00    +0.046 A 
ATOM      3  C   UNL     1      -5.434   0.220  -0.289  0.00  0.00    +0.016 A 
ATOM      4  C   UNL     1      -6.140   0.787   0.775  0.00  0.00    +0.037 A 
ATOM      5  C   UNL     1      -5.482   1.066   1.976  0.00  0.00    +0.016 A 
ATOM      6  C   UNL     1      -4.142   0.775   2.108  0.00  0.00    +0.046 A 
ENDROOT
BRANCH   4   7
ATOM      7  C   UNL     1      -7.577   1.093   0.631  0.00  0.00    +0.244 C 
ATOM      8  O   UNL     1      -8.148   0.850  -0.414  0.00  0.00    -0.270 OA
ATOM      9  N   UNL     1      -8.256   1.640   1.659  0.00  0.00    -0.311 N 
ATOM     10  H   UNL     1      -7.800   1.834   2.493  0.00  0.00    +0.149 HD
BRANCH   9  11
ATOM     11  C   UNL     1      -9.682   1.943   1.516  0.00  0.00    +0.109 C 
BRANCH  11  12
ATOM     12  C   UNL     1     -10.207   2.553   2.817  0.00  0.00    +0.052 C 
BRANCH  12  13
ATOM     13  C   UNL     1     -11.674   2.865   2.670  0.00  0.00    -0.040 C 
ATOM     14  C   UNL     1     -12.711   2.085   3.046  0.00  0.00    -0.001 A 
ATOM     15  C   UNL     1     -12.779   0.762   3.681  0.00  0.00    +0.013 A 
ATOM     16  C   UNL     1     -13.989   0.221   3.942  0.00  0.00    +0.046 A 
ATOM     17  C   UNL     1     -15.183   0.894   3.621  0.00  0.00    +0.122 A 
ATOM     18  C   UNL     1     -15.197   2.118   3.034  0.00  0.00    +0.071 A 
ATOM     19  C   UNL     1     -13.981   2.773   2.718  0.00  0.00    +0.046 A 
ATOM     20  N   UNL     1     -13.735   3.936   2.160  0.00  0.00    -0.380 N 
ATOM     21  C   UNL     1     -12.281   4.117   2.078  0.00  0.00    +0.144 C 
ATOM     22  H   UNL     1     -14.403   4.571   1.856  0.00  0.00    +0.160 HD
BRANCH  17  23
ATOM     23  O   UNL     1     -16.366   0.296   3.909  0.00  0.00    -0.495 OA
ATOM     24  C   UNL     1     -16.308  -0.992   4.526  0.00  0.00    +0.277 C 
ENDBRANCH  17  23
ENDBRANCH  12  13
ENDBRANCH  11  12
ENDBRANCH   9  11
ENDBRANCH   4   7
BRANCH   1  25
ATOM     25  O   UNL     1      -2.121  -0.065   1.178  0.00  0.00    -0.477 OA
BRANCH  25  28
ATOM     26  C   UNL     1       0.245   1.308   0.269  0.00  0.00    +0.056 C 
ATOM     27  C   UNL     1       0.060  -0.203   0.121  0.00  0.00    +0.219 C 
ATOM     28  C   UNL     1      -1.437  -0.528   0.012  0.00  0.00    +0.284 C 
ATOM     29  C   UNL     1      -1.562  -2.037  -0.097  0.00  0.00    +0.210 C 
ATOM     30  O   UNL     1      -2.360  -2.559  -0.847  0.00  0.00    -0.288 OA
ATOM     31  C   UNL     1      -0.664  -2.835   0.752  0.00  0.00    +0.063 A 
ATOM     32  C   UNL     1      -0.868  -4.208   0.913  0.00  0.00    +0.019 A 
ATOM     33  C   UNL     1      -0.019  -4.932   1.702  0.00  0.00    +0.046 A 
ATOM     34  C   UNL     1       1.047  -4.307   2.344  0.00  0.00    +0.124 A 
ATOM     35  C   UNL     1       1.259  -2.944   2.196  0.00  0.00    +0.092 A 
ATOM     36  C   UNL     1       0.407  -2.195   1.401  0.00  0.00    +0.135 A 
ATOM     37  O   UNL     1       0.606  -0.863   1.264  0.00  0.00    -0.484 OA
BRANCH  34  38
ATOM     38  O   UNL     1       1.884  -5.037   3.122  0.00  0.00    -0.495 OA
ATOM     39  C   UNL     1       1.611  -6.436   3.235  0.00  0.00    +0.277 C 
ENDBRANCH  34  38
ENDBRANCH  25  28
ENDBRANCH   1  25
TORSDOF 8
