REMARK  Name = ZINC35581809
REMARK  10 active torsions:
REMARK  status: ('A' for Active; 'I' for Inactive)
REMARK    1  A    between atoms: C_1  and  C_2
REMARK    2  A    between atoms: C_2  and  C_3
REMARK    3  A    between atoms: C_3  and  N_4
REMARK    4  A    between atoms: N_4  and  C_5
REMARK    5  A    between atoms: C_5  and  C_7
REMARK    6  A    between atoms: C_5  and  C_13
REMARK    7  A    between atoms: C_14  and  C_22
REMARK    8  A    between atoms: C_15  and  C_21
REMARK    9  A    between atoms: C_17  and  C_20
REMARK   10  A    between atoms: C_18  and  C_19
REMARK                            x       y       z     vdW  Elec       q    Type
REMARK                         _______ _______ _______ _____ _____    ______ ____
ROOT
ATOM      1  C   UNL     1       1.793  -2.487  -1.355  0.00  0.00    -0.003 C 
ENDROOT
BRANCH   1   2
ATOM      2  C   UNL     1       1.680  -3.918  -1.816  0.00  0.00    -0.050 A 
ATOM      3  C   UNL     1       0.598  -4.685  -1.429  0.00  0.00    -0.045 A 
ATOM      4  C   UNL     1       0.494  -5.997  -1.851  0.00  0.00    -0.047 A 
ATOM      5  C   UNL     1       1.473  -6.542  -2.661  0.00  0.00    +0.007 A 
ATOM      6  C   UNL     1       2.555  -5.774  -3.049  0.00  0.00    -0.047 A 
ATOM      7  C   UNL     1       2.657  -4.461  -2.630  0.00  0.00    -0.045 A 
ATOM      8  C   UNL     1       3.834  -3.622  -3.057  0.00  0.00    +0.044 C 
ATOM      9  C   UNL     1       3.623  -6.368  -3.931  0.00  0.00    +0.044 C 
ATOM     10  C   UNL     1      -0.686  -6.834  -1.429  0.00  0.00    +0.044 C 
ATOM     11  C   UNL     1      -0.470  -4.091  -0.546  0.00  0.00    +0.044 C 
ENDBRANCH   1   2
BRANCH   1  12
ATOM     12  C   UNL     1       2.769  -1.751  -2.236  0.00  0.00    -0.019 A 
ATOM     13  C   UNL     1       4.080  -1.485  -2.022  0.00  0.00    +0.011 A 
ATOM     14  C   UNL     1       4.788  -0.785  -2.981  0.00  0.00    +0.023 A 
ATOM     15  C   UNL     1       4.149  -0.386  -4.109  0.00  0.00    +0.055 A 
ATOM     16  S   UNL     1       2.499  -1.010  -3.838  0.00  0.00    -0.088 S 
ATOM     17 BR   UNL     1       4.832   0.575  -5.588  0.00  0.00    -0.043 Br
ENDBRANCH   1  12
BRANCH   1  18
ATOM     18  N   UNL     1       0.476  -1.841  -1.436  0.00  0.00    +0.387 N 
ATOM     19  H   UNL     1      -0.164  -2.303  -0.807  0.00  0.00    -0.085 HD
ATOM     20  H   UNL     1       0.127  -1.907  -2.380  0.00  0.00    -0.085 HD
BRANCH  18  21
ATOM     21  C   UNL     1       0.600  -0.427  -1.057  0.00  0.00    -0.082 C 
BRANCH  21  23
ATOM     22  C   UNL     1      -0.642   1.718  -0.748  0.00  0.00    +0.002 C 
ATOM     23  C   UNL     1      -0.771   0.245  -1.142  0.00  0.00    -0.022 C 
ENDBRANCH  21  23
ENDBRANCH  18  21
ENDBRANCH   1  18
TORSDOF 5
