REMARK  Name = ZINC34757688
REMARK  9 active torsions:
REMARK  status: ('A' for Active; 'I' for Inactive)
REMARK    1  A    between atoms: C_1  and  C_2
REMARK    2  A    between atoms: C_2  and  N_3
REMARK    3  A    between atoms: N_3  and  C_4
REMARK    4  A    between atoms: C_4  and  C_5
REMARK    5  A    between atoms: C_6  and  C_8
REMARK    6  A    between atoms: C_8  and  N_9
REMARK    7  A    between atoms: C_22  and  S_24
REMARK    8  A    between atoms: S_24  and  C_25
REMARK    9  A    between atoms: C_25  and  C_26
REMARK                            x       y       z     vdW  Elec       q    Type
REMARK                         _______ _______ _______ _____ _____    ______ ____
ROOT
ATOM      1  N   UNL     1      -2.152  -0.852  -3.634  0.00  0.00    +0.387 N 
ATOM      2  C   UNL     1      -1.631   0.220  -4.491  0.00  0.00    -0.059 C 
ATOM      3  C   UNL     1      -1.943  -0.103  -5.957  0.00  0.00    +0.088 C 
ATOM      4  N   UNL     1      -3.390  -0.335  -6.085  0.00  0.00    -0.318 N 
ATOM      5  C   UNL     1      -4.026  -1.277  -5.152  0.00  0.00    +0.088 C 
ATOM      6  C   UNL     1      -3.616  -0.898  -3.725  0.00  0.00    -0.059 C 
ATOM      7  C   UNL     1      -4.130   0.314  -7.056  0.00  0.00    +0.134 A 
ATOM      8  C   UNL     1      -4.369  -0.304  -8.315  0.00  0.00    +0.051 A 
ATOM      9  C   UNL     1      -3.918  -1.626  -8.783  0.00  0.00    -0.025 A 
ATOM     10  C   UNL     1      -4.277  -1.985 -10.025  0.00  0.00    -0.004 A 
ATOM     11  S   UNL     1      -5.226  -0.615 -10.646  0.00  0.00    -0.073 S 
ATOM     12  C   UNL     1      -5.134   0.443  -9.227  0.00  0.00    +0.115 A 
ATOM     13  N   UNL     1      -5.596   1.641  -8.924  0.00  0.00    -0.214 NA
ATOM     14  C   UNL     1      -5.343   2.171  -7.735  0.00  0.00    +0.191 A 
ATOM     15  N   UNL     1      -4.631   1.517  -6.824  0.00  0.00    -0.206 NA
ATOM     16  C   UNL     1      -3.757  -3.348 -10.397  0.00  0.00    +0.043 C 
ATOM     17  C   UNL     1      -2.646  -3.633  -9.363  0.00  0.00    +0.010 C 
ATOM     18  C   UNL     1      -3.095  -2.765  -8.172  0.00  0.00    +0.037 C 
ATOM     19  H   UNL     1      -1.769  -1.735  -3.934  0.00  0.00    -0.081 HD
ENDROOT
BRANCH   1  20
ATOM     20  C   UNL     1      -1.758  -0.597  -2.241  0.00  0.00    +0.019 C 
BRANCH  20  22
ATOM     21  N   UNL     1       0.335  -0.469  -0.929  0.00  0.00    -0.304 N 
ATOM     22  C   UNL     1      -0.257  -0.670  -2.123  0.00  0.00    +0.199 C 
ATOM     23  O   UNL     1       0.418  -0.911  -3.102  0.00  0.00    -0.278 OA
BRANCH  21  25
ATOM     24  C   UNL     1      -0.672   1.334   0.381  0.00  0.00    +0.024 C 
ATOM     25  C   UNL     1      -0.480  -0.178   0.253  0.00  0.00    +0.104 C 
ENDBRANCH  21  25
BRANCH  21  26
ATOM     26  C   UNL     1       1.794  -0.540  -0.814  0.00  0.00    +0.104 C 
ATOM     27  C   UNL     1       2.210  -1.976  -0.490  0.00  0.00    +0.024 C 
ENDBRANCH  21  26
ENDBRANCH  20  22
ENDBRANCH   1  20
BRANCH  14  28
ATOM     28  S   UNL     1      -5.970   3.773  -7.352  0.00  0.00    -0.077 S 
BRANCH  28  29
ATOM     29  C   UNL     1      -6.862   4.265  -8.853  0.00  0.00    +0.172 C 
BRANCH  29  30
ATOM     30  C   UNL     1      -7.455   5.637  -8.658  0.00  0.00    +0.221 C 
ATOM     31  O   UNL     1      -7.293   6.224  -7.609  0.00  0.00    -0.275 OA
ATOM     32  N   UNL     1      -8.167   6.210  -9.648  0.00  0.00    -0.329 N 
ATOM     33  H   UNL     1      -8.298   5.740 -10.487  0.00  0.00    +0.145 HD
ATOM     34  H   UNL     1      -8.549   7.093  -9.522  0.00  0.00    +0.145 HD
ENDBRANCH  29  30
ENDBRANCH  28  29
ENDBRANCH  14  28
TORSDOF 7
