REMARK  Name = ZINC09155341
REMARK  7 active torsions:
REMARK  status: ('A' for Active; 'I' for Inactive)
REMARK    1  A    between atoms: C_1  and  C_2
REMARK    2  A    between atoms: C_2  and  C_4
REMARK    3  A    between atoms: C_2  and  N_70
REMARK    4  A    between atoms: C_7  and  S_16
REMARK    5  A    between atoms: N_8  and  C_9
REMARK    6  A    between atoms: S_16  and  C_17
REMARK    7  A    between atoms: C_17  and  C_18
REMARK                            x       y       z     vdW  Elec       q    Type
REMARK                         _______ _______ _______ _____ _____    ______ ____
ROOT
ATOM      1  C   UNL     1       9.632   5.357  -3.344  0.00  0.00    +0.125 A 
ATOM      2  N   UNL     1       9.461   4.731  -2.214  0.00  0.00    -0.135 NA
ATOM      3  N   UNL     1       8.266   4.263  -2.144  0.00  0.00    -0.122 NA
ATOM      4  C   UNL     1       7.605   4.559  -3.239  0.00  0.00    +0.197 A 
ATOM      5  N   UNL     1       8.456   5.271  -4.040  0.00  0.00    -0.275 N 
ENDROOT
BRANCH   5   6
ATOM      6  C   UNL     1       8.180   5.802  -5.309  0.00  0.00    +0.050 A 
ATOM      7  C   UNL     1       8.860   5.330  -6.423  0.00  0.00    +0.029 A 
ATOM      8  C   UNL     1       8.584   5.849  -7.672  0.00  0.00    +0.040 A 
ATOM      9  C   UNL     1       7.636   6.850  -7.812  0.00  0.00    +0.124 A 
ATOM     10  C   UNL     1       6.961   7.327  -6.701  0.00  0.00    +0.040 A 
ATOM     11  C   UNL     1       7.231   6.805  -5.451  0.00  0.00    +0.029 A 
ATOM     12  F   UNL     1       7.371   7.361  -9.034  0.00  0.00    -0.205 F 
ENDBRANCH   5   6
BRANCH   1  14
ATOM     13  C   UNL     1      11.922   5.000  -4.227  0.00  0.00    -0.005 C 
ATOM     14  C   UNL     1      10.892   6.048  -3.801  0.00  0.00    -0.002 C 
BRANCH  14  20
ATOM     15  C   UNL     1      10.437   7.803  -2.196  0.00  0.00    -0.078 C 
ATOM     16  C   UNL     1      10.988   8.517  -0.960  0.00  0.00    -0.019 C 
ATOM     17  C   UNL     1      12.277   9.253  -1.333  0.00  0.00    -0.004 C 
ATOM     18  C   UNL     1      13.284   8.247  -1.899  0.00  0.00    -0.019 C 
ATOM     19  C   UNL     1      12.667   7.540  -3.108  0.00  0.00    -0.078 C 
ATOM     20  N   UNL     1      11.443   6.832  -2.676  0.00  0.00    +0.386 N 
ATOM     21  H   UNL     1      11.682   6.192  -1.909  0.00  0.00    -0.081 HD
ENDBRANCH  14  20
ENDBRANCH   1  14
BRANCH   4  22
ATOM     22  S   UNL     1       5.936   4.129  -3.605  0.00  0.00    -0.076 S 
BRANCH  22  23
ATOM     23  C   UNL     1       5.508   3.221  -2.099  0.00  0.00    +0.173 C 
BRANCH  23  24
ATOM     24  C   UNL     1       4.082   2.742  -2.188  0.00  0.00    +0.226 C 
ATOM     25  O   UNL     1       3.420   2.990  -3.174  0.00  0.00    -0.275 OA
ATOM     26  N   UNL     1       3.543   2.038  -1.174  0.00  0.00    -0.297 N 
ATOM     27  C   UNL     1       4.329   1.728   0.029  0.00  0.00    +0.108 C 
ATOM     28  C   UNL     1       3.560   2.208   1.263  0.00  0.00    +0.019 C 
ATOM     29  C   UNL     1       2.154   1.602   1.254  0.00  0.00    +0.007 C 
ATOM     30  C   UNL     1       1.411   2.062  -0.000  0.00  0.00    +0.010 C 
ATOM     31  C   UNL     1       2.152   1.562  -1.243  0.00  0.00    +0.079 C 
ATOM     32  C   UNL     1       2.160   0.031  -1.253  0.00  0.00    +0.023 C 
ATOM     33  C   UNL     1       0.723  -0.492  -1.257  0.00  0.00    +0.002 C 
ATOM     34  C   UNL     1       0.002  -0.004   0.002  0.00  0.00    +0.000 C 
ATOM     35  C   UNL     1      -0.019   1.526   0.010  0.00  0.00    +0.005 C 
ENDBRANCH  23  24
ENDBRANCH  22  23
ENDBRANCH   4  22
TORSDOF 6
