REMARK  Name = ZINC63886464
REMARK  8 active torsions:
REMARK  status: ('A' for Active; 'I' for Inactive)
REMARK    1  A    between atoms: C_1  and  C_2
REMARK    2  A    between atoms: C_2  and  C_3
REMARK    3  A    between atoms: C_3  and  C_4
REMARK    4  A    between atoms: C_6  and  S_11
REMARK    5  A    between atoms: S_11  and  C_12
REMARK    6  A    between atoms: C_24  and  N_26
REMARK    7  A    between atoms: N_26  and  S_27
REMARK    8  A    between atoms: S_27  and  C_30
REMARK                            x       y       z     vdW  Elec       q    Type
REMARK                         _______ _______ _______ _____ _____    ______ ____
ROOT
ATOM      1  C   UNL     1       0.987  -6.578   0.121  0.00  0.00    +0.107 C 
ATOM      2  C   UNL     1       0.415  -7.105  -1.172  0.00  0.00    -0.024 A 
ATOM      3  C   UNL     1      -0.699  -6.831  -1.907  0.00  0.00    +0.005 A 
ATOM      4  C   UNL     1      -0.945  -7.519  -3.097  0.00  0.00    +0.001 A 
ATOM      5  C   UNL     1      -0.100  -8.480  -3.573  0.00  0.00    +0.008 A 
ATOM      6  C   UNL     1       1.057  -8.788  -2.840  0.00  0.00    -0.017 A 
ATOM      7  C   UNL     1       1.284  -8.082  -1.645  0.00  0.00    -0.009 A 
ATOM      8  C   UNL     1       2.397  -8.306  -0.839  0.00  0.00    -0.019 A 
ATOM      9  C   UNL     1       3.294  -9.249  -1.237  0.00  0.00    +0.006 A 
ATOM     10  C   UNL     1       3.090  -9.962  -2.421  0.00  0.00    +0.001 A 
ATOM     11  C   UNL     1       2.003  -9.754  -3.220  0.00  0.00    +0.008 A 
ATOM     12  C   UNL     1       2.294  -7.370   0.344  0.00  0.00    +0.125 C 
ENDROOT
BRANCH  12  13
ATOM     13  N   UNL     1       2.219  -8.134   1.592  0.00  0.00    -0.181 NA
ATOM     14  H   UNL     1       1.375  -8.517   1.876  0.00  0.00    +0.149 HD
BRANCH  13  15
ATOM     15  S   UNL     1       3.577  -8.342   2.517  0.00  0.00    +0.059 S 
ATOM     16  O   UNL     1       3.179  -9.091   3.658  0.00  0.00    -0.153 OA
ATOM     17  O   UNL     1       4.604  -8.780   1.639  0.00  0.00    -0.153 OA
BRANCH  15  18
ATOM     18  C   UNL     1       4.058  -6.751   3.102  0.00  0.00    +0.105 A 
ATOM     19  C   UNL     1       4.928  -5.976   2.357  0.00  0.00    +0.030 A 
ATOM     20  C   UNL     1       5.306  -4.728   2.815  0.00  0.00    +0.022 A 
ATOM     21  C   UNL     1       4.814  -4.255   4.019  0.00  0.00    +0.041 A 
ATOM     22  C   UNL     1       3.944  -5.031   4.763  0.00  0.00    +0.022 A 
ATOM     23  C   UNL     1       3.562  -6.277   4.302  0.00  0.00    +0.030 A 
ATOM     24 CL   UNL     1       5.289  -2.687   4.595  0.00  0.00    -0.084 Cl
ENDBRANCH  15  18
ENDBRANCH  13  15
ENDBRANCH  12  13
BRANCH   1  25
ATOM     25  S   UNL     1       1.343  -4.806  -0.024  0.00  0.00    -0.078 S 
BRANCH  25  28
ATOM     26  C   UNL     1      -1.424  -2.052  -0.068  0.00  0.00    +0.030 C 
ATOM     27  N   UNL     1      -0.306  -2.710  -0.119  0.00  0.00    -0.233 NA
ATOM     28  C   UNL     1      -0.243  -4.043   0.075  0.00  0.00    +0.181 C 
ATOM     29  N   UNL     1      -1.277  -4.819   0.333  0.00  0.00    -0.155 NA
ATOM     30  C   UNL     1      -2.516  -4.331   0.426  0.00  0.00    +0.244 C 
ATOM     31  O   UNL     1      -3.465  -5.052   0.665  0.00  0.00    -0.273 OA
ATOM     32  C   UNL     1      -2.688  -2.836   0.229  0.00  0.00    +0.148 C 
BRANCH  26  33
ATOM     33  C   UNL     1      -1.464  -0.562  -0.289  0.00  0.00    +0.051 C 
BRANCH  33  35
ATOM     34  C   UNL     1      -0.089   1.464  -0.790  0.00  0.00    +0.004 C 
ATOM     35  C   UNL     1      -0.049  -0.049  -0.566  0.00  0.00    +0.002 C 
ENDBRANCH  33  35
ENDBRANCH  26  33
ENDBRANCH  25  28
ENDBRANCH   1  25
TORSDOF 7
