REMARK  Name = ZINC20916839
REMARK  10 active torsions:
REMARK  status: ('A' for Active; 'I' for Inactive)
REMARK    1  A    between atoms: C_9  and  O_36
REMARK    2  A    between atoms: C_10  and  C_11
REMARK    3  A    between atoms: N_12  and  N_13
REMARK    4  A    between atoms: C_17  and  S_20
REMARK    5  A    between atoms: N_18  and  N_19
REMARK    6  A    between atoms: S_20  and  C_21
REMARK    7  A    between atoms: C_21  and  C_22
REMARK    8  A    between atoms: C_22  and  C_23
REMARK    9  A    between atoms: N_25  and  C_26
REMARK   10  A    between atoms: C_26  and  C_27
REMARK                            x       y       z     vdW  Elec       q    Type
REMARK                         _______ _______ _______ _____ _____    ______ ____
ROOT
ATOM      1  N   UNL     1      15.948  -2.937   0.869  0.00  0.00    -0.204 N 
ATOM      2  C   UNL     1      14.599  -2.657   1.028  0.00  0.00    +0.254 A 
ATOM      3  N   UNL     1      14.015  -2.287   2.142  0.00  0.00    -0.109 NA
ATOM      4  N   UNL     1      12.653  -2.099   1.875  0.00  0.00    -0.119 NA
ATOM      5  C   UNL     1      12.447  -2.369   0.608  0.00  0.00    +0.210 A 
ATOM      6  N   UNL     1      13.645  -2.717   0.051  0.00  0.00    -0.211 N 
ATOM      7  H   UNL     1      16.334  -3.240  -0.115  0.00  0.00    +0.177 HD
ENDROOT
BRANCH   6   8
ATOM      8  N   UNL     1      13.852  -3.066  -1.253  0.00  0.00    -0.294 N 
ATOM      9  H   UNL     1      13.009  -3.082  -1.959  0.00  0.00    +0.163 HD
ATOM     10  H   UNL     1      14.863  -3.330  -1.598  0.00  0.00    +0.163 HD
ENDBRANCH   6   8
BRANCH   1  12
ATOM     11  C   UNL     1      18.084  -3.096   1.812  0.00  0.00    +0.142 C 
ATOM     12  N   UNL     1      16.819  -2.833   1.962  0.00  0.00    -0.187 NA
BRANCH  11  22
ATOM     13  C   UNL     1      23.127  -3.835   2.593  0.00  0.00    +0.001 A 
ATOM     14  C   UNL     1      22.293  -3.949   1.483  0.00  0.00    +0.001 A 
ATOM     15  C   UNL     1      20.960  -3.680   1.579  0.00  0.00    +0.009 A 
ATOM     16  C   UNL     1      20.420  -3.285   2.810  0.00  0.00    -0.006 A 
ATOM     17  C   UNL     1      21.267  -3.163   3.939  0.00  0.00    -0.017 A 
ATOM     18  C   UNL     1      22.637  -3.443   3.801  0.00  0.00    +0.008 A 
ATOM     19  C   UNL     1      20.723  -2.772   5.174  0.00  0.00    +0.012 A 
ATOM     20  C   UNL     1      19.395  -2.504   5.296  0.00  0.00    +0.046 A 
ATOM     21  C   UNL     1      18.524  -2.604   4.213  0.00  0.00    +0.126 A 
ATOM     22  C   UNL     1      18.997  -2.987   2.958  0.00  0.00    +0.044 A 
BRANCH  21  23
ATOM     23  O   UNL     1      17.205  -2.327   4.381  0.00  0.00    -0.506 OA
ATOM     24  H   UNL     1      16.514  -2.405   3.529  0.00  0.00    +0.292 HD
ENDBRANCH  21  23
ENDBRANCH  11  22
ENDBRANCH   1  12
BRANCH   5  25
ATOM     25  S   UNL     1      10.899  -2.291  -0.229  0.00  0.00    -0.084 S 
BRANCH  25  26
ATOM     26  C   UNL     1       9.729  -1.774   1.058  0.00  0.00    +0.086 C 
BRANCH  26  27
ATOM     27  C   UNL     1       8.326  -1.665   0.457  0.00  0.00    +0.107 C 
BRANCH  27  28
ATOM     28  C   UNL     1       7.355  -1.236   1.526  0.00  0.00    +0.214 C 
ATOM     29  O   UNL     1       7.746  -1.037   2.657  0.00  0.00    -0.276 OA
ATOM     30  N   UNL     1       6.051  -1.073   1.226  0.00  0.00    -0.311 N 
ATOM     31  H   UNL     1       5.696  -1.253   0.201  0.00  0.00    +0.149 HD
BRANCH  30  32
ATOM     32  C   UNL     1       5.107  -0.655   2.265  0.00  0.00    +0.139 C 
BRANCH  32  33
ATOM     33  C   UNL     1       3.725  -0.548   1.674  0.00  0.00    -0.027 A 
ATOM     34  C   UNL     1       2.885  -1.646   1.677  0.00  0.00    +0.009 A 
ATOM     35  C   UNL     1       1.617  -1.553   1.135  0.00  0.00    +0.050 A 
ATOM     36  C   UNL     1       1.183  -0.356   0.589  0.00  0.00    +0.166 A 
ATOM     37  C   UNL     1       2.028   0.751   0.586  0.00  0.00    +0.167 A 
ATOM     38  C   UNL     1       3.298   0.650   1.131  0.00  0.00    +0.054 A 
ATOM     39  O   UNL     1       1.376   1.797  -0.001  0.00  0.00    -0.453 OA
ATOM     40  C   UNL     1      -0.018   1.436   0.010  0.00  0.00    +0.466 C 
ATOM     41  O   UNL     1       0.002  -0.004   0.002  0.00  0.00    -0.453 OA
ENDBRANCH  32  33
ENDBRANCH  30  32
ENDBRANCH  27  28
ENDBRANCH  26  27
ENDBRANCH  25  26
ENDBRANCH   5  25
TORSDOF 10
