REMARK  Name = ZINC16037630
REMARK  7 active torsions:
REMARK  status: ('A' for Active; 'I' for Inactive)
REMARK    1  A    between atoms: C_1  and  C_2
REMARK    2  A    between atoms: C_5  and  N_40
REMARK    3  A    between atoms: C_7  and  N_8
REMARK    4  A    between atoms: C_24  and  C_30
REMARK    5  A    between atoms: C_30  and  C_32
REMARK    6  A    between atoms: C_35  and  O_38
REMARK    7  A    between atoms: O_38  and  C_39
REMARK                            x       y       z     vdW  Elec       q    Type
REMARK                         _______ _______ _______ _____ _____    ______ ____
ROOT
ATOM      1  N   UNL     1       4.835   0.143   3.560  0.00  0.00    -0.209 N 
ATOM      2  C   UNL     1       5.934  -0.642   3.300  0.00  0.00    +0.232 C 
ATOM      3  O   UNL     1       6.742  -1.060   4.102  0.00  0.00    -0.274 OA
ATOM      4  C   UNL     1       5.922  -0.859   1.870  0.00  0.00    +0.113 C 
ATOM      5  C   UNL     1       6.797  -1.245   0.776  0.00  0.00    +0.100 C 
ATOM      6  C   UNL     1       7.141  -2.688   0.608  0.00  0.00    -0.021 A 
ATOM      7  C   UNL     1       7.343  -3.503   1.701  0.00  0.00    +0.006 A 
ATOM      8  C   UNL     1       7.705  -4.827   1.529  0.00  0.00    +0.000 A 
ATOM      9  C   UNL     1       7.870  -5.346   0.256  0.00  0.00    +0.001 A 
ATOM     10  C   UNL     1       7.662  -4.547  -0.848  0.00  0.00    +0.008 A 
ATOM     11  C   UNL     1       7.279  -3.214  -0.685  0.00  0.00    -0.019 A 
ATOM     12  C   UNL     1       7.045  -2.364  -1.868  0.00  0.00    +0.022 C 
ATOM     13  C   UNL     1       6.470  -1.157  -1.728  0.00  0.00    +0.054 C 
ATOM     14  N   UNL     1       6.106  -0.773  -0.456  0.00  0.00    -0.384 NA
ATOM     15  C   UNL     1       4.977   0.100  -0.046  0.00  0.00    +0.141 C 
ATOM     16  C   UNL     1       5.352   0.535   1.369  0.00  0.00    +0.116 C 
ATOM     17  C   UNL     1       4.308   0.696   2.427  0.00  0.00    +0.232 C 
ATOM     18  O   UNL     1       3.218   1.212   2.305  0.00  0.00    -0.274 OA
ATOM     19  H   UNL     1       6.325  -0.825  -1.533  0.00  0.00    +0.127 HD
ENDROOT
BRANCH   1  26
ATOM     20  C   UNL     1       5.854   2.332   5.067  0.00  0.00    +0.045 C 
ATOM     21  C   UNL     1       4.786   1.419   5.613  0.00  0.00    -0.028 A 
ATOM     22  C   UNL     1       4.270   1.635   6.876  0.00  0.00    +0.007 A 
ATOM     23  C   UNL     1       3.294   0.795   7.379  0.00  0.00    +0.033 A 
ATOM     24  C   UNL     1       2.828  -0.262   6.618  0.00  0.00    +0.128 A 
ATOM     25  C   UNL     1       3.336  -0.480   5.352  0.00  0.00    +0.057 A 
ATOM     26  C   UNL     1       4.316   0.362   4.845  0.00  0.00    +0.049 A 
BRANCH  24  27
ATOM     27  N   UNL     1       1.784  -1.159   7.160  0.00  0.00    +0.056 N 
ATOM     28  O   UNL     1       1.373  -2.090   6.490  0.00  0.00    -0.126 OA
ATOM     29  O   UNL     1       1.335  -0.968   8.276  0.00  0.00    -0.126 OA
ENDBRANCH  24  27
ENDBRANCH   1  26
BRANCH  15  30
ATOM     30  C   UNL     1       3.683  -0.673  -0.038  0.00  0.00    +0.183 C 
ATOM     31  O   UNL     1       3.702  -1.886  -0.046  0.00  0.00    -0.290 OA
BRANCH  30  32
ATOM     32  C   UNL     1       2.400   0.041  -0.021  0.00  0.00    +0.019 A 
ATOM     33  C   UNL     1       1.197  -0.676  -0.013  0.00  0.00    +0.015 A 
ATOM     34  C   UNL     1       0.002  -0.004   0.002  0.00  0.00    +0.046 A 
ATOM     35  C   UNL     1      -0.017   1.387   0.010  0.00  0.00    +0.120 A 
ATOM     36  C   UNL     1       1.175   2.103   0.002  0.00  0.00    +0.046 A 
ATOM     37  C   UNL     1       2.376   1.441  -0.013  0.00  0.00    +0.015 A 
BRANCH  35  38
ATOM     38  O   UNL     1      -1.202   2.046   0.019  0.00  0.00    -0.495 OA
ATOM     39  C   UNL     1      -1.149   3.474   0.026  0.00  0.00    +0.277 C 
ENDBRANCH  35  38
ENDBRANCH  30  32
ENDBRANCH  15  30
TORSDOF 5
