REMARK  Name = ZINC38642221
REMARK  13 active torsions:
REMARK  status: ('A' for Active; 'I' for Inactive)
REMARK    1  A    between atoms: C_1  and  C_2
REMARK    2  A    between atoms: C_2  and  C_3
REMARK    3  A    between atoms: C_3  and  O_4
REMARK    4  A    between atoms: O_4  and  C_5
REMARK    5  A    between atoms: C_8  and  S_12
REMARK    6  A    between atoms: C_10  and  C_11
REMARK    7  A    between atoms: S_12  and  N_15
REMARK    8  A    between atoms: N_15  and  C_16
REMARK    9  A    between atoms: C_16  and  C_17
REMARK   10  A    between atoms: C_17  and  C_19
REMARK   11  A    between atoms: C_17  and  N_29
REMARK   12  A    between atoms: N_29  and  C_30
REMARK   13  A    between atoms: N_29  and  C_31
REMARK                            x       y       z     vdW  Elec       q    Type
REMARK                         _______ _______ _______ _____ _____    ______ ____
ROOT
ATOM      1  N   UNL     1      -6.593  -5.000  -1.909  0.00  0.00    -0.191 NA
ATOM      2  H   UNL     1      -7.371  -4.487  -2.181  0.00  0.00    +0.148 HD
ENDROOT
BRANCH   1   3
ATOM      3  S   UNL     1      -5.833  -4.657  -0.479  0.00  0.00    +0.058 S 
ATOM      4  O   UNL     1      -5.665  -5.895   0.198  0.00  0.00    -0.153 OA
ATOM      5  O   UNL     1      -6.530  -3.561   0.099  0.00  0.00    -0.153 OA
BRANCH   3   9
ATOM      6  C   UNL     1      -1.682  -3.160  -1.494  0.00  0.00    +0.123 A 
ATOM      7  C   UNL     1      -2.736  -2.265  -1.386  0.00  0.00    +0.048 A 
ATOM      8  C   UNL     1      -4.002  -2.724  -1.076  0.00  0.00    +0.032 A 
ATOM      9  C   UNL     1      -4.218  -4.074  -0.874  0.00  0.00    +0.106 A 
ATOM     10  C   UNL     1      -3.169  -4.969  -0.980  0.00  0.00    +0.035 A 
ATOM     11  C   UNL     1      -1.902  -4.515  -1.295  0.00  0.00    -0.007 A 
ATOM     12  C   UNL     1      -0.761  -5.491  -1.417  0.00  0.00    +0.047 C 
BRANCH   6  13
ATOM     13  O   UNL     1      -0.436  -2.711  -1.799  0.00  0.00    -0.492 OA
BRANCH  13  14
ATOM     14  C   UNL     1      -0.282  -1.303  -1.990  0.00  0.00    +0.229 C 
BRANCH  14  16
ATOM     15  C   UNL     1       1.342   0.518  -2.527  0.00  0.00    +0.007 C 
ATOM     16  C   UNL     1       1.178  -0.990  -2.323  0.00  0.00    +0.038 C 
ENDBRANCH  14  16
ENDBRANCH  13  14
ENDBRANCH   6  13
ENDBRANCH   3   9
ENDBRANCH   1   3
BRANCH   1  17
ATOM     17  C   UNL     1      -6.092  -6.077  -2.766  0.00  0.00    +0.095 C 
BRANCH  17  18
ATOM     18  C   UNL     1      -7.153  -6.437  -3.808  0.00  0.00    -0.022 C 
BRANCH  18  19
ATOM     19  C   UNL     1      -7.357  -5.270  -4.739  0.00  0.00    -0.052 A 
ATOM     20  C   UNL     1      -8.354  -4.373  -4.503  0.00  0.00    +0.002 A 
ATOM     21  C   UNL     1      -8.558  -3.288  -5.354  0.00  0.00    +0.001 A 
ATOM     22  C   UNL     1      -7.768  -3.094  -6.445  0.00  0.00    +0.008 A 
ATOM     23  C   UNL     1      -6.729  -4.000  -6.721  0.00  0.00    -0.018 A 
ATOM     24  C   UNL     1      -6.518  -5.100  -5.853  0.00  0.00    -0.016 A 
ATOM     25  C   UNL     1      -5.475  -6.002  -6.125  0.00  0.00    +0.009 A 
ATOM     26  C   UNL     1      -4.681  -5.805  -7.213  0.00  0.00    +0.001 A 
ATOM     27  C   UNL     1      -4.886  -4.719  -8.063  0.00  0.00    +0.001 A 
ATOM     28  C   UNL     1      -5.894  -3.833  -7.838  0.00  0.00    +0.008 A 
ENDBRANCH  18  19
BRANCH  18  29
ATOM     29  N   UNL     1      -8.418  -6.750  -3.130  0.00  0.00    +0.381 N 
ATOM     30  C   UNL     1      -9.409  -7.190  -4.122  0.00  0.00    -0.096 C 
ATOM     31  C   UNL     1      -8.197  -7.822  -2.151  0.00  0.00    -0.096 C 
ATOM     32  H   UNL     1      -8.759  -5.927  -2.657  0.00  0.00    -0.082 HD
ENDBRANCH  18  29
ENDBRANCH  17  18
ENDBRANCH   1  17
TORSDOF 9
