REMARK  Name = ZINC60278568
REMARK  3 active torsions:
REMARK  status: ('A' for Active; 'I' for Inactive)
REMARK    1  A    between atoms: C_4  and  N_7
REMARK    2  A    between atoms: C_10  and  C_12
REMARK    3  A    between atoms: C_12  and  N_13
REMARK                            x       y       z     vdW  Elec       q    Type
REMARK                         _______ _______ _______ _____ _____    ______ ____
ROOT
ATOM      1  N   UNL     1       7.742  -0.641  -1.447  0.00  0.00    -0.218 N 
ATOM      2  C   UNL     1       8.111  -1.644  -2.270  0.00  0.00    +0.252 C 
ATOM      3  O   UNL     1       8.128  -2.830  -2.021  0.00  0.00    -0.272 OA
ATOM      4  C   UNL     1       8.501  -0.976  -3.569  0.00  0.00    +0.144 C 
ATOM      5  C   UNL     1       7.599  -1.454  -4.704  0.00  0.00    +0.081 C 
ATOM      6  C   UNL     1       8.033  -2.873  -5.097  0.00  0.00    +0.232 C 
ATOM      7  O   UNL     1       9.366  -2.815  -5.605  0.00  0.00    -0.492 OA
ATOM      8  C   UNL     1      10.300  -2.150  -4.877  0.00  0.00    +0.126 A 
ATOM      9  C   UNL     1       9.944  -1.249  -3.886  0.00  0.00    +0.027 A 
ATOM     10  C   UNL     1      10.928  -0.586  -3.174  0.00  0.00    +0.010 A 
ATOM     11  C   UNL     1      12.263  -0.821  -3.442  0.00  0.00    +0.001 A 
ATOM     12  C   UNL     1      12.621  -1.724  -4.425  0.00  0.00    +0.004 A 
ATOM     13  C   UNL     1      11.645  -2.387  -5.141  0.00  0.00    +0.046 A 
ATOM     14  N   UNL     1       8.290   0.454  -3.312  0.00  0.00    -0.281 N 
ATOM     15  C   UNL     1       7.841   0.551  -2.046  0.00  0.00    +0.310 C 
ATOM     16  O   UNL     1       7.560   1.604  -1.508  0.00  0.00    -0.252 OA
ATOM     17  H   UNL     1       8.442   1.184  -3.933  0.00  0.00    +0.152 HD
ENDROOT
BRANCH   1  18
ATOM     18  C   UNL     1       7.283  -0.835  -0.069  0.00  0.00    +0.175 C 
BRANCH  18  22
ATOM     19  N   UNL     1       3.624  -0.652  -0.037  0.00  0.00    -0.240 N 
ATOM     20  C   UNL     1       3.786  -1.994  -0.052  0.00  0.00    +0.115 A 
ATOM     21  C   UNL     1       5.115  -2.248  -0.065  0.00  0.00    +0.046 A 
ATOM     22  C   UNL     1       5.788  -1.022  -0.059  0.00  0.00    +0.081 A 
ATOM     23  N   UNL     1       4.895  -0.065  -0.048  0.00  0.00    -0.170 NA
BRANCH  19  27
ATOM     24  C   UNL     1      -0.017   1.379   0.010  0.00  0.00    +0.000 A 
ATOM     25  C   UNL     1       1.170   2.089   0.002  0.00  0.00    +0.002 A 
ATOM     26  C   UNL     1       2.377   1.419  -0.013  0.00  0.00    +0.028 A 
ATOM     27  C   UNL     1       2.399   0.031  -0.021  0.00  0.00    +0.065 A 
ATOM     28  C   UNL     1       1.207  -0.680  -0.013  0.00  0.00    +0.028 A 
ATOM     29  C   UNL     1       0.002  -0.004   0.002  0.00  0.00    +0.002 A 
ENDBRANCH  19  27
ENDBRANCH  18  22
ENDBRANCH   1  18
TORSDOF 3
