REMARK  Name = ZINC57987126
REMARK  9 active torsions:
REMARK  status: ('A' for Active; 'I' for Inactive)
REMARK    1  A    between atoms: C_1  and  C_2
REMARK    2  A    between atoms: C_5  and  N_8
REMARK    3  A    between atoms: N_8  and  C_9
REMARK    4  A    between atoms: C_9  and  C_10
REMARK    5  A    between atoms: N_12  and  N_13
REMARK    6  A    between atoms: C_14  and  C_16
REMARK    7  A    between atoms: C_17  and  C_30
REMARK    8  A    between atoms: N_19  and  C_22
REMARK    9  A    between atoms: C_22  and  C_23
REMARK                            x       y       z     vdW  Elec       q    Type
REMARK                         _______ _______ _______ _____ _____    ______ ____
ROOT
ATOM      1  N   UNL     1       0.485  -8.749   1.968  0.00  0.00    -0.230 N 
ATOM      2  C   UNL     1       0.579  -9.719   2.900  0.00  0.00    +0.265 C 
ATOM      3  O   UNL     1       0.765  -9.427   4.066  0.00  0.00    -0.268 OA
ATOM      4  H   UNL     1       0.336  -8.982   1.039  0.00  0.00    +0.173 HD
ENDROOT
BRANCH   2   5
ATOM      5  C   UNL     1       0.457 -11.133   2.505  0.00  0.00    +0.097 A 
ATOM      6  C   UNL     1       1.511 -11.991   2.119  0.00  0.00    +0.074 A 
ATOM      7  N   UNL     1       1.002 -13.160   1.847  0.00  0.00    -0.174 NA
ATOM      8  N   UNL     1      -0.383 -13.109   2.041  0.00  0.00    -0.248 N 
ATOM      9  C   UNL     1      -0.711 -11.872   2.449  0.00  0.00    +0.140 A 
ATOM     10 CL   UNL     1      -2.306 -11.304   2.831  0.00  0.00    -0.062 Cl
ATOM     11  C   UNL     1       2.970 -11.620   2.038  0.00  0.00    +0.068 C 
BRANCH   8  12
ATOM     12  C   UNL     1      -1.317 -14.220   1.840  0.00  0.00    +0.181 C 
BRANCH  12  13
ATOM     13  C   UNL     1      -1.707 -14.292   0.386  0.00  0.00    -0.008 A 
ATOM     14  C   UNL     1      -2.865 -13.677  -0.050  0.00  0.00    +0.007 A 
ATOM     15  C   UNL     1      -3.223 -13.742  -1.384  0.00  0.00    +0.000 A 
ATOM     16  C   UNL     1      -2.422 -14.423  -2.282  0.00  0.00    +0.001 A 
ATOM     17  C   UNL     1      -1.264 -15.038  -1.847  0.00  0.00    +0.020 A 
ATOM     18  C   UNL     1      -0.902 -14.968  -0.513  0.00  0.00    +0.046 A 
ATOM     19 CL   UNL     1       0.556 -15.735   0.033  0.00  0.00    -0.083 Cl
ENDBRANCH  12  13
ENDBRANCH   8  12
ENDBRANCH   2   5
BRANCH   1  22
ATOM     20  C   UNL     1       0.507  -6.435   1.413  0.00  0.00    +0.246 C 
ATOM     21  O   UNL     1       0.322  -6.726   0.250  0.00  0.00    -0.273 OA
ATOM     22  N   UNL     1       0.601  -7.404   2.344  0.00  0.00    -0.233 N 
ATOM     23  H   UNL     1       0.749  -7.171   3.273  0.00  0.00    +0.173 HD
BRANCH  20  24
ATOM     24  C   UNL     1       0.632  -4.988   1.816  0.00  0.00    +0.199 C 
BRANCH  24  25
ATOM     25  N   UNL     1       0.495  -4.137   0.631  0.00  0.00    -0.335 N 
ATOM     26  H   UNL     1       0.348  -4.538  -0.240  0.00  0.00    +0.147 HD
BRANCH  25  31
ATOM     27  C   UNL     1       0.823   1.502   1.137  0.00  0.00    +0.044 C 
ATOM     28  C   UNL     1       0.736   0.003   1.003  0.00  0.00    -0.050 A 
ATOM     29  C   UNL     1       0.527  -0.567  -0.240  0.00  0.00    +0.005 A 
ATOM     30  C   UNL     1       0.446  -1.940  -0.366  0.00  0.00    +0.023 A 
ATOM     31  C   UNL     1       0.576  -2.748   0.756  0.00  0.00    +0.028 A 
ATOM     32  C   UNL     1       0.786  -2.172   2.002  0.00  0.00    +0.023 A 
ATOM     33  C   UNL     1       0.872  -0.799   2.121  0.00  0.00    +0.005 A 
ENDBRANCH  25  31
ENDBRANCH  24  25
ENDBRANCH  20  24
ENDBRANCH   1  22
TORSDOF 7
