REMARK  Name = ZINC39928351
REMARK  7 active torsions:
REMARK  status: ('A' for Active; 'I' for Inactive)
REMARK    1  A    between atoms: C_1  and  C_2
REMARK    2  A    between atoms: C_2  and  C_3
REMARK    3  A    between atoms: N_5  and  C_6
REMARK    4  A    between atoms: C_6  and  C_7
REMARK    5  A    between atoms: C_7  and  C_8
REMARK    6  A    between atoms: C_16  and  C_18
REMARK    7  A    between atoms: N_24  and  C_27
REMARK                            x       y       z     vdW  Elec       q    Type
REMARK                         _______ _______ _______ _____ _____    ______ ____
ROOT
ATOM      1  C   UNL     1      -4.344  -6.550  -1.227  0.00  0.00    +0.020 C 
ATOM      2  C   UNL     1      -3.518  -7.615  -1.125  0.00  0.00    +0.100 C 
ATOM      3  C   UNL     1      -2.916  -8.246  -2.321  0.00  0.00    +0.274 C 
ATOM      4  O   UNL     1      -3.176  -7.773  -3.557  0.00  0.00    -0.268 OA
ATOM      5  N   UNL     1      -2.119  -9.282  -2.148  0.00  0.00    -0.153 NA
ATOM      6  C   UNL     1      -1.842  -9.771  -0.940  0.00  0.00    +0.171 C 
ATOM      7  N   UNL     1      -2.338  -9.269   0.200  0.00  0.00    -0.215 N 
ATOM      8  C   UNL     1      -3.167  -8.203   0.191  0.00  0.00    +0.261 C 
ATOM      9  O   UNL     1      -3.613  -7.744   1.224  0.00  0.00    -0.269 OA
ATOM     10  S   UNL     1      -0.793 -11.121  -0.838  0.00  0.00    -0.016 S 
ENDROOT
BRANCH   1  19
ATOM     11  C   UNL     1      -4.493  -4.322  -0.157  0.00  0.00    -0.033 C 
ATOM     12  C   UNL     1      -5.695  -3.708  -0.062  0.00  0.00    -0.000 A 
ATOM     13  C   UNL     1      -6.101  -2.300  -0.143  0.00  0.00    +0.010 A 
ATOM     14  C   UNL     1      -7.409  -1.986  -0.005  0.00  0.00    +0.001 A 
ATOM     15  C   UNL     1      -8.384  -2.969   0.212  0.00  0.00    +0.002 A 
ATOM     16  C   UNL     1      -8.089  -4.283   0.298  0.00  0.00    +0.026 A 
ATOM     17  C   UNL     1      -6.744  -4.727   0.168  0.00  0.00    +0.043 A 
ATOM     18  N   UNL     1      -6.212  -5.924   0.213  0.00  0.00    -0.374 N 
ATOM     19  C   UNL     1      -4.764  -5.801   0.011  0.00  0.00    +0.130 C 
ATOM     20  H   UNL     1      -6.695  -6.754   0.353  0.00  0.00    +0.161 HD
BRANCH  11  21
ATOM     21  C   UNL     1      -3.157  -3.667  -0.390  0.00  0.00    +0.052 C 
BRANCH  21  22
ATOM     22  C   UNL     1      -3.344  -2.152  -0.502  0.00  0.00    +0.108 C 
BRANCH  22  25
ATOM     23  C   UNL     1      -1.964  -0.176  -0.859  0.00  0.00    +0.213 C 
ATOM     24  O   UNL     1      -2.968   0.501  -0.789  0.00  0.00    -0.276 OA
ATOM     25  N   UNL     1      -2.044  -1.515  -0.728  0.00  0.00    -0.315 N 
ATOM     26  H   UNL     1      -1.242  -2.057  -0.784  0.00  0.00    +0.149 HD
BRANCH  23  28
ATOM     27  C   UNL     1      -0.815   1.994  -1.204  0.00  0.00    +0.013 C 
ATOM     28  C   UNL     1      -0.628   0.480  -1.092  0.00  0.00    +0.092 C 
ENDBRANCH  23  28
ENDBRANCH  22  25
ENDBRANCH  21  22
ENDBRANCH  11  21
ENDBRANCH   1  19
BRANCH   7  29
ATOM     29  C   UNL     1      -1.987  -9.856   1.419  0.00  0.00    +0.051 A 
ATOM     30  C   UNL     1      -0.881  -9.411   2.111  0.00  0.00    +0.024 A 
ATOM     31  C   UNL     1      -0.523  -9.988   3.326  0.00  0.00    +0.002 A 
ATOM     32  C   UNL     1      -1.251 -11.005   3.863  0.00  0.00    +0.008 A 
ATOM     33  C   UNL     1      -2.386 -11.488   3.189  0.00  0.00    -0.016 A 
ATOM     34  C   UNL     1      -2.764 -10.905   1.954  0.00  0.00    +0.004 A 
ATOM     35  C   UNL     1      -3.900 -11.385   1.284  0.00  0.00    +0.010 A 
ATOM     36  C   UNL     1      -4.626 -12.399   1.830  0.00  0.00    +0.001 A 
ATOM     37  C   UNL     1      -4.258 -12.970   3.047  0.00  0.00    +0.001 A 
ATOM     38  C   UNL     1      -3.157 -12.537   3.719  0.00  0.00    +0.008 A 
ENDBRANCH   7  29
TORSDOF 6
