REMARK  Name = ZINC28288649
REMARK  6 active torsions:
REMARK  status: ('A' for Active; 'I' for Inactive)
REMARK    1  A    between atoms: C_1  and  C_2
REMARK    2  A    between atoms: C_11  and  C_13
REMARK    3  A    between atoms: N_15  and  C_16
REMARK    4  A    between atoms: C_16  and  C_17
REMARK    5  A    between atoms: C_17  and  C_19
REMARK    6  A    between atoms: C_17  and  N_26
REMARK                            x       y       z     vdW  Elec       q    Type
REMARK                         _______ _______ _______ _____ _____    ______ ____
ROOT
ATOM      1  C   UNL     1      -1.958   3.977   3.550  0.00  0.00    +0.279 C 
ATOM      2  O   UNL     1      -2.871   3.532   4.218  0.00  0.00    -0.267 OA
ATOM      3  N   UNL     1      -1.051   3.141   3.007  0.00  0.00    -0.310 N 
ATOM      4  H   UNL     1      -0.226   3.544   2.402  0.00  0.00    +0.149 HD
ENDROOT
BRANCH   1  15
ATOM      5  C   UNL     1      -0.047  11.381   1.540  0.00  0.00    +0.044 C 
ATOM      6  C   UNL     1      -0.263   9.917   1.826  0.00  0.00    -0.050 A 
ATOM      7  C   UNL     1       0.618   8.976   1.311  0.00  0.00    +0.007 A 
ATOM      8  C   UNL     1       0.439   7.633   1.561  0.00  0.00    +0.047 A 
ATOM      9  C   UNL     1      -0.636   7.210   2.337  0.00  0.00    +0.139 A 
ATOM     10  C   UNL     1      -1.523   8.169   2.855  0.00  0.00    +0.064 A 
ATOM     11  C   UNL     1      -1.325   9.525   2.592  0.00  0.00    +0.018 A 
ATOM     12  C   UNL     1      -2.657   7.705   3.677  0.00  0.00    +0.193 A 
ATOM     13  O   UNL     1      -3.461   8.485   4.155  0.00  0.00    -0.287 OA
ATOM     14  C   UNL     1      -2.769   6.254   3.892  0.00  0.00    +0.103 A 
ATOM     15  C   UNL     1      -1.843   5.438   3.333  0.00  0.00    +0.193 A 
ATOM     16  O   UNL     1      -0.824   5.902   2.596  0.00  0.00    -0.450 OA
ENDBRANCH   1  15
BRANCH   3  17
ATOM     17  C   UNL     1      -1.165   1.696   3.221  0.00  0.00    +0.094 C 
BRANCH  17  18
ATOM     18  C   UNL     1      -0.083   0.975   2.415  0.00  0.00    -0.020 C 
BRANCH  18  19
ATOM     19  C   UNL     1      -0.282  -0.515   2.529  0.00  0.00    -0.059 A 
ATOM     20  C   UNL     1      -1.468  -1.088   2.108  0.00  0.00    +0.003 A 
ATOM     21  C   UNL     1      -1.649  -2.454   2.206  0.00  0.00    +0.020 A 
ATOM     22  C   UNL     1      -0.648  -3.248   2.737  0.00  0.00    +0.041 A 
ATOM     23  C   UNL     1       0.536  -2.674   3.163  0.00  0.00    +0.020 A 
ATOM     24  C   UNL     1       0.719  -1.308   3.059  0.00  0.00    +0.003 A 
ATOM     25 CL   UNL     1      -0.877  -4.964   2.868  0.00  0.00    -0.084 Cl
ENDBRANCH  18  19
BRANCH  18  26
ATOM     26  N   UNL     1      -0.174   1.375   1.005  0.00  0.00    +0.385 N 
ATOM     27  C   UNL     1      -1.557   1.708   0.641  0.00  0.00    -0.078 C 
ATOM     28  C   UNL     1      -1.591   2.258  -0.787  0.00  0.00    -0.019 C 
ATOM     29  C   UNL     1      -1.030   1.206  -1.748  0.00  0.00    -0.004 C 
ATOM     30  C   UNL     1       0.393   0.840  -1.317  0.00  0.00    -0.019 C 
ATOM     31  C   UNL     1       0.370   0.332   0.126  0.00  0.00    -0.078 C 
ATOM     32  H   UNL     1       0.436   2.280   0.869  0.00  0.00    -0.081 HD
ENDBRANCH  18  26
ENDBRANCH  17  18
ENDBRANCH   3  17
TORSDOF 5
