REMARK  Name = ZINC06073614
REMARK  12 active torsions:
REMARK  status: ('A' for Active; 'I' for Inactive)
REMARK    1  A    between atoms: C_1  and  C_2
REMARK    2  A    between atoms: C_2  and  C_4
REMARK    3  A    between atoms: C_8  and  C_40
REMARK    4  A    between atoms: C_17  and  C_39
REMARK    5  A    between atoms: C_20  and  O_35
REMARK    6  A    between atoms: C_22  and  C_33
REMARK    7  A    between atoms: C_22  and  C_34
REMARK    8  A    between atoms: C_27  and  C_32
REMARK    9  A    between atoms: C_28  and  C_31
REMARK   10  A    between atoms: O_35  and  C_36
REMARK   11  A    between atoms: C_36  and  C_38
REMARK   12  A    between atoms: C_40  and  O_41
REMARK                            x       y       z     vdW  Elec       q    Type
REMARK                         _______ _______ _______ _____ _____    ______ ____
ROOT
ATOM      1  C   UNL     1       1.282   6.782  -3.472  0.00  0.00    +0.018 C 
ATOM      2  C   UNL     1       2.795   6.744  -3.780  0.00  0.00    +0.009 C 
ATOM      3  C   UNL     1       3.479   6.755  -2.394  0.00  0.00    +0.010 C 
ATOM      4  C   UNL     1       2.506   5.890  -1.533  0.00  0.00    -0.002 C 
ATOM      5  C   UNL     1       1.122   6.338  -2.019  0.00  0.00    +0.008 C 
ATOM      6  C   UNL     1       0.008   5.352  -1.764  0.00  0.00    -0.000 C 
ATOM      7  C   UNL     1      -0.475   5.508  -0.319  0.00  0.00    +0.005 C 
ATOM      8  C   UNL     1      -1.721   4.669  -0.079  0.00  0.00    +0.005 C 
ATOM      9  C   UNL     1      -1.447   3.187  -0.324  0.00  0.00    +0.002 C 
ATOM     10  C   UNL     1      -0.928   2.513   0.941  0.00  0.00    -0.025 C 
ATOM     11  C   UNL     1       0.041   3.443   1.660  0.00  0.00    +0.011 C 
ATOM     12  C   UNL     1       0.557   2.807   2.952  0.00  0.00    +0.046 C 
ATOM     13  C   UNL     1       1.307   1.529   2.598  0.00  0.00    +0.182 C 
ATOM     14  C   UNL     1       0.375   0.530   1.918  0.00  0.00    +0.005 C 
ATOM     15  C   UNL     1      -0.365   1.120   0.725  0.00  0.00    +0.004 C 
ATOM     16  C   UNL     1       0.509   1.059  -0.526  0.00  0.00    +0.005 C 
ATOM     17  C   UNL     1      -0.280   1.490  -1.756  0.00  0.00    +0.008 C 
ATOM     18  C   UNL     1      -0.761   2.936  -1.633  0.00  0.00    -0.023 C 
ATOM     19  C   UNL     1       0.343   3.902  -2.059  0.00  0.00    -0.023 C 
ATOM     20  C   UNL     1       1.680   3.507  -1.445  0.00  0.00    +0.008 C 
ATOM     21  C   UNL     1       2.788   4.439  -1.915  0.00  0.00    +0.010 C 
ATOM     22  C   UNL     1       0.463   3.739  -3.595  0.00  0.00    +0.012 C 
ATOM     23  C   UNL     1      -1.863   3.080  -2.734  0.00  0.00    +0.012 C 
ATOM     24  C   UNL     1       1.246  -0.666   1.475  0.00  0.00    +0.015 C 
ATOM     25  C   UNL     1      -0.607  -0.039   2.954  0.00  0.00    +0.015 C 
ATOM     26  C   UNL     1      -2.187   2.376   1.849  0.00  0.00    +0.012 C 
ENDROOT
BRANCH   1  28
ATOM     27  C   UNL     1       1.388   9.309  -2.797  0.00  0.00    +0.039 C 
ATOM     28  C   UNL     1       0.783   8.204  -3.626  0.00  0.00    -0.076 C 
ATOM     29  C   UNL     1      -0.173   8.474  -4.479  0.00  0.00    +0.007 C 
ENDBRANCH   1  28
BRANCH  13  30
ATOM     30  O   UNL     1       2.421   1.841   1.719  0.00  0.00    -0.461 OA
BRANCH  30  31
ATOM     31  C   UNL     1       3.597   2.124   2.303  0.00  0.00    +0.304 C 
ATOM     32  O   UNL     1       3.692   2.111   3.507  0.00  0.00    -0.251 OA
ATOM     33  C   UNL     1       4.798   2.457   1.455  0.00  0.00    +0.136 C 
ENDBRANCH  30  31
ENDBRANCH  13  30
BRANCH   4  34
ATOM     34  C   UNL     1       2.729   6.150  -0.039  0.00  0.00    +0.163 C 
BRANCH  34  35
ATOM     35  O   UNL     1       4.083   5.844   0.300  0.00  0.00    -0.394 OA
ATOM     36  H   UNL     1       4.297   5.986   1.232  0.00  0.00    +0.209 HD
ENDBRANCH  34  35
ENDBRANCH   4  34
TORSDOF 5
