REMARK  Name = ZINC20779254
REMARK  11 active torsions:
REMARK  status: ('A' for Active; 'I' for Inactive)
REMARK    1  A    between atoms: N_9  and  C_11
REMARK    2  A    between atoms: C_11  and  C_12
REMARK    3  A    between atoms: C_12  and  C_14
REMARK    4  A    between atoms: C_12  and  O_32
REMARK    5  A    between atoms: C_14  and  O_15
REMARK    6  A    between atoms: O_15  and  C_16
REMARK    7  A    between atoms: C_21  and  C_22
REMARK    8  A    between atoms: C_22  and  N_23
REMARK    9  A    between atoms: N_23  and  C_24
REMARK   10  A    between atoms: C_24  and  C_25
REMARK   11  A    between atoms: C_25  and  O_31
REMARK                            x       y       z     vdW  Elec       q    Type
REMARK                         _______ _______ _______ _____ _____    ______ ____
ROOT
ATOM      1  C   UNL     1      -1.871   0.935   6.583  0.00  0.00    +0.122 A 
ATOM      2  C   UNL     1      -2.542   1.402   7.703  0.00  0.00    +0.046 A 
ATOM      3  C   UNL     1      -2.069   2.509   8.380  0.00  0.00    +0.004 A 
ATOM      4  C   UNL     1      -0.926   3.152   7.941  0.00  0.00    +0.000 A 
ATOM      5  C   UNL     1      -0.252   2.687   6.827  0.00  0.00    +0.005 A 
ATOM      6  C   UNL     1      -0.725   1.582   6.144  0.00  0.00    -0.023 A 
ENDROOT
BRANCH   1   7
ATOM      7  O   UNL     1      -2.335  -0.154   5.915  0.00  0.00    -0.489 OA
BRANCH   7   8
ATOM      8  C   UNL     1      -3.520  -0.770   6.424  0.00  0.00    +0.258 C 
BRANCH   8   9
ATOM      9  C   UNL     1      -3.886  -1.970   5.549  0.00  0.00    +0.135 C 
BRANCH   9  10
ATOM     10  O   UNL     1      -4.228  -1.518   4.237  0.00  0.00    -0.390 OA
ATOM     11  H   UNL     1      -3.490  -0.966   3.636  0.00  0.00    +0.210 HD
ENDBRANCH   9  10
BRANCH   9  12
ATOM     12  C   UNL     1      -5.080  -2.704   6.163  0.00  0.00    -0.043 C 
BRANCH  12  21
ATOM     13  C   UNL     1      -5.128  -8.553   3.498  0.00  0.00    +0.000 A 
ATOM     14  C   UNL     1      -3.828  -8.232   3.845  0.00  0.00    +0.000 A 
ATOM     15  C   UNL     1      -3.564  -7.043   4.494  0.00  0.00    +0.002 A 
ATOM     16  C   UNL     1      -4.595  -6.167   4.801  0.00  0.00    -0.061 A 
ATOM     17  C   UNL     1      -5.889  -6.486   4.453  0.00  0.00    -0.048 A 
ATOM     18  C   UNL     1      -6.154  -7.681   3.802  0.00  0.00    +0.004 A 
ATOM     19  C   UNL     1      -7.042  -5.564   4.759  0.00  0.00    +0.017 C 
ATOM     20  C   UNL     1      -6.623  -4.540   5.815  0.00  0.00    -0.074 C 
ATOM     21  N   UNL     1      -5.357  -3.922   5.390  0.00  0.00    +0.384 N 
ATOM     22  C   UNL     1      -4.257  -4.883   5.514  0.00  0.00    -0.043 C 
ATOM     23  H   UNL     1      -5.445  -3.634   4.332  0.00  0.00    -0.081 HD
ENDBRANCH  12  21
ENDBRANCH   9  12
ENDBRANCH   8   9
ENDBRANCH   7   8
ENDBRANCH   1   7
BRANCH   6  24
ATOM     24  C   UNL     1       0.008   1.078   4.928  0.00  0.00    -0.043 C 
BRANCH  24  25
ATOM     25  N   UNL     1      -0.676   1.546   3.715  0.00  0.00    +0.384 N 
ATOM     26  H   UNL     1      -1.708   1.165   3.706  0.00  0.00    -0.085 HD
ATOM     27  H   UNL     1      -0.691   2.646   3.704  0.00  0.00    -0.085 HD
BRANCH  25  28
ATOM     28  C   UNL     1       0.011   1.072   2.506  0.00  0.00    -0.047 C 
BRANCH  28  29
ATOM     29  C   UNL     1      -0.729   1.579   1.267  0.00  0.00    +0.051 C 
ATOM     30  C   UNL     1      -0.013   1.086   0.008  0.00  0.00    +0.033 C 
ATOM     31  C   UNL     1      -0.753   1.593  -1.232  0.00  0.00    +0.003 C 
ATOM     32  C   UNL     1      -0.773   3.123  -1.223  0.00  0.00    +0.000 C 
ATOM     33  C   UNL     1      -1.490   3.616   0.036  0.00  0.00    +0.003 C 
ATOM     34  C   UNL     1      -0.750   3.109   1.275  0.00  0.00    +0.033 C 
BRANCH  29  35
ATOM     35  O   UNL     1      -2.070   1.085   1.277  0.00  0.00    -0.390 OA
ATOM     36  H   UNL     1      -2.758   1.345   0.460  0.00  0.00    +0.210 HD
ENDBRANCH  29  35
ENDBRANCH  28  29
ENDBRANCH  25  28
ENDBRANCH  24  25
ENDBRANCH   6  24
TORSDOF 11
