REMARK  Name = ZINC40100816
REMARK  16 active torsions:
REMARK  status: ('A' for Active; 'I' for Inactive)
REMARK    1  A    between atoms: C_1  and  C_2
REMARK    2  A    between atoms: C_2  and  C_3
REMARK    3  A    between atoms: C_3  and  O_4
REMARK    4  A    between atoms: O_4  and  C_5
REMARK    5  A    between atoms: C_10  and  C_11
REMARK    6  A    between atoms: C_13  and  C_25
REMARK    7  A    between atoms: N_17  and  C_18
REMARK    8  A    between atoms: C_18  and  C_19
REMARK    9  A    between atoms: C_19  and  O_20
REMARK   10  A    between atoms: O_20  and  C_21
REMARK   11  A    between atoms: C_21  and  C_22
REMARK   12  A    between atoms: C_22  and  O_23
REMARK   13  A    between atoms: C_25  and  C_27
REMARK   14  A    between atoms: C_31  and  O_33
REMARK   15  A    between atoms: O_33  and  C_34
REMARK   16  A    between atoms: C_34  and  C_35
REMARK                            x       y       z     vdW  Elec       q    Type
REMARK                         _______ _______ _______ _____ _____    ______ ____
ROOT
ATOM      1  C   UNL     1      -1.523  -5.180  -0.144  0.00  0.00    +0.148 C 
ATOM      2  C   UNL     1      -0.903  -5.301  -1.517  0.00  0.00    +0.076 C 
ATOM      3  C   UNL     1      -0.853  -6.622  -1.808  0.00  0.00    +0.249 C 
ATOM      4  C   UNL     1      -1.418  -7.390  -0.678  0.00  0.00    +0.288 C 
ATOM      5  O   UNL     1      -1.512  -8.600  -0.636  0.00  0.00    -0.266 OA
ATOM      6  N   UNL     1      -1.810  -6.550   0.299  0.00  0.00    -0.281 N 
ATOM      7  O   UNL     1      -0.364  -7.154  -2.952  0.00  0.00    -0.282 OA
ENDROOT
BRANCH   1  13
ATOM      8  C   UNL     1      -3.352  -3.846   0.935  0.00  0.00    +0.126 A 
ATOM      9  C   UNL     1      -4.524  -3.107   0.861  0.00  0.00    +0.046 A 
ATOM     10  C   UNL     1      -5.139  -2.910  -0.360  0.00  0.00    +0.004 A 
ATOM     11  C   UNL     1      -4.589  -3.450  -1.508  0.00  0.00    +0.001 A 
ATOM     12  C   UNL     1      -3.421  -4.187  -1.437  0.00  0.00    +0.009 A 
ATOM     13  C   UNL     1      -2.799  -4.382  -0.219  0.00  0.00    +0.019 A 
BRANCH   8  14
ATOM     14  O   UNL     1      -2.744  -4.041   2.134  0.00  0.00    -0.492 OA
BRANCH  14  15
ATOM     15  C   UNL     1      -3.300  -3.361   3.261  0.00  0.00    +0.229 C 
BRANCH  15  17
ATOM     16  C   UNL     1      -3.078  -2.977   5.720  0.00  0.00    +0.007 C 
ATOM     17  C   UNL     1      -2.418  -3.601   4.488  0.00  0.00    +0.038 C 
ENDBRANCH  15  17
ENDBRANCH  14  15
ENDBRANCH   8  14
ENDBRANCH   1  13
BRANCH   2  18
ATOM     18  C   UNL     1      -0.445  -4.199  -2.369  0.00  0.00    +0.195 C 
ATOM     19  O   UNL     1      -1.005  -3.975  -3.426  0.00  0.00    -0.287 OA
BRANCH  18  20
ATOM     20  C   UNL     1       0.696  -3.361  -1.944  0.00  0.00    +0.026 A 
ATOM     21  C   UNL     1       1.420  -3.692  -0.796  0.00  0.00    +0.012 A 
ATOM     22  C   UNL     1       2.485  -2.909  -0.403  0.00  0.00    +0.004 A 
ATOM     23  C   UNL     1       2.839  -1.794  -1.142  0.00  0.00    +0.045 A 
ATOM     24  C   UNL     1       2.125  -1.457  -2.284  0.00  0.00    +0.121 A 
ATOM     25  C   UNL     1       1.058  -2.240  -2.691  0.00  0.00    +0.057 A 
BRANCH  24  26
ATOM     26  O   UNL     1       2.478  -0.360  -3.006  0.00  0.00    -0.492 OA
BRANCH  26  27
ATOM     27  C   UNL     1       3.657   0.335  -2.596  0.00  0.00    +0.225 C 
ATOM     28  C   UNL     1       3.832   1.591  -3.451  0.00  0.00    +0.048 C 
ENDBRANCH  26  27
ENDBRANCH  24  26
ENDBRANCH  18  20
ENDBRANCH   2  18
BRANCH   6  29
ATOM     29  C   UNL     1      -2.417  -6.934   1.576  0.00  0.00    +0.137 C 
BRANCH  29  30
ATOM     30  C   UNL     1      -3.925  -7.111   1.391  0.00  0.00    +0.179 C 
BRANCH  30  31
ATOM     31  O   UNL     1      -4.172  -8.216   0.520  0.00  0.00    -0.376 OA
BRANCH  31  32
ATOM     32  C   UNL     1      -5.558  -8.469   0.280  0.00  0.00    +0.187 C 
BRANCH  32  33
ATOM     33  C   UNL     1      -5.702  -9.668  -0.660  0.00  0.00    +0.184 C 
BRANCH  33  34
ATOM     34  O   UNL     1      -5.210 -10.843  -0.013  0.00  0.00    -0.393 OA
ATOM     35  H   UNL     1      -5.270 -11.643  -0.552  0.00  0.00    +0.209 HD
ENDBRANCH  33  34
ENDBRANCH  32  33
ENDBRANCH  31  32
ENDBRANCH  30  31
ENDBRANCH  29  30
ENDBRANCH   6  29
TORSDOF 14
