REMARK  Name = ZINC21755424
REMARK  11 active torsions:
REMARK  status: ('A' for Active; 'I' for Inactive)
REMARK    1  A    between atoms: C_1  and  C_2
REMARK    2  A    between atoms: C_5  and  N_34
REMARK    3  A    between atoms: C_7  and  S_8
REMARK    4  A    between atoms: S_8  and  N_11
REMARK    5  A    between atoms: N_11  and  C_12
REMARK    6  A    between atoms: C_12  and  C_13
REMARK    7  A    between atoms: C_13  and  C_15
REMARK    8  A    between atoms: C_13  and  N_24
REMARK    9  A    between atoms: C_18  and  N_21
REMARK   10  A    between atoms: N_21  and  C_22
REMARK   11  A    between atoms: N_21  and  C_23
REMARK                            x       y       z     vdW  Elec       q    Type
REMARK                         _______ _______ _______ _____ _____    ______ ____
ROOT
ATOM      1  C   UNL     1       5.735   2.389   3.704  0.00  0.00    -0.021 C 
ENDROOT
BRANCH   1   2
ATOM      2  N   UNL     1       6.853   3.338   3.614  0.00  0.00    +0.388 N 
ATOM      3  C   UNL     1       7.855   3.072   4.658  0.00  0.00    -0.073 C 
ATOM      4  C   UNL     1       9.138   3.823   4.302  0.00  0.00    +0.017 C 
ATOM      5  C   UNL     1       8.822   5.265   3.996  0.00  0.00    -0.048 A 
ATOM      6  C   UNL     1       9.861   6.184   3.997  0.00  0.00    +0.004 A 
ATOM      7  C   UNL     1       9.616   7.513   3.713  0.00  0.00    +0.000 A 
ATOM      8  C   UNL     1       8.329   7.929   3.427  0.00  0.00    +0.000 A 
ATOM      9  C   UNL     1       7.295   7.015   3.428  0.00  0.00    +0.002 A 
ATOM     10  C   UNL     1       7.539   5.680   3.714  0.00  0.00    -0.061 A 
ATOM     11  C   UNL     1       6.377   4.721   3.707  0.00  0.00    -0.042 C 
ATOM     12  H   UNL     1       7.327   3.202   2.631  0.00  0.00    -0.080 HD
ENDBRANCH   1   2
BRANCH   1  13
ATOM     13  C   UNL     1       6.235   0.995   3.422  0.00  0.00    -0.060 A 
ATOM     14  C   UNL     1       7.164   0.785   2.420  0.00  0.00    +0.004 A 
ATOM     15  C   UNL     1       7.628  -0.490   2.163  0.00  0.00    +0.023 A 
ATOM     16  C   UNL     1       7.153  -1.563   2.906  0.00  0.00    +0.029 A 
ATOM     17  C   UNL     1       6.215  -1.349   3.909  0.00  0.00    +0.023 A 
ATOM     18  C   UNL     1       5.759  -0.071   4.164  0.00  0.00    +0.004 A 
BRANCH  16  19
ATOM     19  N   UNL     1       7.615  -2.855   2.645  0.00  0.00    -0.336 N 
ATOM     20  C   UNL     1       7.113  -3.986   3.429  0.00  0.00    +0.129 C 
ATOM     21  C   UNL     1       8.604  -3.079   1.587  0.00  0.00    +0.129 C 
ENDBRANCH  16  19
ENDBRANCH   1  13
BRANCH   1  22
ATOM     22  C   UNL     1       4.664   2.764   2.677  0.00  0.00    +0.095 C 
BRANCH  22  23
ATOM     23  N   UNL     1       3.500   1.891   2.844  0.00  0.00    -0.191 NA
ATOM     24  H   UNL     1       3.623   0.887   3.277  0.00  0.00    +0.148 HD
BRANCH  23  25
ATOM     25  S   UNL     1       2.049   2.306   2.163  0.00  0.00    +0.059 S 
ATOM     26  O   UNL     1       1.822   3.670   2.491  0.00  0.00    -0.153 OA
ATOM     27  O   UNL     1       1.131   1.277   2.505  0.00  0.00    -0.153 OA
BRANCH  25  34
ATOM     28  C   UNL     1       2.705  -0.217   0.628  0.00  0.00    +0.046 C 
ATOM     29  C   UNL     1       2.555   1.034  -0.199  0.00  0.00    -0.024 A 
ATOM     30  C   UNL     1       2.716   0.979  -1.571  0.00  0.00    +0.007 A 
ATOM     31  C   UNL     1       2.584   2.128  -2.329  0.00  0.00    +0.033 A 
ATOM     32  C   UNL     1       2.279   3.329  -1.716  0.00  0.00    +0.128 A 
ATOM     33  C   UNL     1       2.117   3.384  -0.344  0.00  0.00    +0.061 A 
ATOM     34  C   UNL     1       2.255   2.236   0.414  0.00  0.00    +0.110 A 
BRANCH  32  35
ATOM     35  N   UNL     1       2.131   4.558  -2.528  0.00  0.00    +0.056 N 
ATOM     36  O   UNL     1       1.867   5.617  -1.988  0.00  0.00    -0.126 OA
ATOM     37  O   UNL     1       2.274   4.509  -3.736  0.00  0.00    -0.126 OA
ENDBRANCH  32  35
ENDBRANCH  25  34
ENDBRANCH  23  25
ENDBRANCH  22  23
ENDBRANCH   1  22
TORSDOF 8
