REMARK  Name = ZINC34683778
REMARK  8 active torsions:
REMARK  status: ('A' for Active; 'I' for Inactive)
REMARK    1  A    between atoms: C_1  and  C_2
REMARK    2  A    between atoms: C_5  and  N_8
REMARK    3  A    between atoms: N_8  and  C_9
REMARK    4  A    between atoms: N_8  and  S_26
REMARK    5  A    between atoms: N_12  and  C_15
REMARK    6  A    between atoms: C_15  and  C_16
REMARK    7  A    between atoms: S_26  and  C_29
REMARK    8  A    between atoms: C_32  and  C_35
REMARK                            x       y       z     vdW  Elec       q    Type
REMARK                         _______ _______ _______ _____ _____    ______ ____
ROOT
ATOM      1  N   UNL     1       0.054  -4.154  -0.027  0.00  0.00    -0.200 N 
ENDROOT
BRANCH   1   6
ATOM      2  C   UNL     1      -0.937   1.411   0.415  0.00  0.00    +0.044 C 
ATOM      3  C   UNL     1      -0.674  -0.068   0.298  0.00  0.00    -0.050 A 
ATOM      4  C   UNL     1       0.615  -0.525   0.095  0.00  0.00    +0.005 A 
ATOM      5  C   UNL     1       0.860  -1.880  -0.013  0.00  0.00    +0.025 A 
ATOM      6  C   UNL     1      -0.190  -2.784   0.082  0.00  0.00    +0.052 A 
ATOM      7  C   UNL     1      -1.484  -2.321   0.286  0.00  0.00    +0.025 A 
ATOM      8  C   UNL     1      -1.721  -0.965   0.399  0.00  0.00    +0.005 A 
ENDBRANCH   1   6
BRANCH   1   9
ATOM      9  C   UNL     1       0.731  -4.867   1.059  0.00  0.00    +0.095 C 
ATOM     10  C   UNL     1      -0.011  -4.618   2.376  0.00  0.00    +0.006 C 
ATOM     11  C   UNL     1       0.746  -5.299   3.518  0.00  0.00    -0.077 C 
ATOM     12  N   UNL     1       2.103  -4.747   3.608  0.00  0.00    +0.382 N 
ATOM     13  C   UNL     1       2.845  -5.045   2.376  0.00  0.00    -0.077 C 
ATOM     14  C   UNL     1       2.168  -4.354   1.190  0.00  0.00    +0.006 C 
ATOM     15  H   UNL     1       2.051  -3.748   3.734  0.00  0.00    -0.081 HD
BRANCH  12  16
ATOM     16  C   UNL     1       2.800  -5.348   4.753  0.00  0.00    -0.043 C 
BRANCH  16  17
ATOM     17  C   UNL     1       4.147  -4.694   4.921  0.00  0.00    -0.060 A 
ATOM     18  C   UNL     1       5.251  -5.210   4.268  0.00  0.00    +0.005 A 
ATOM     19  C   UNL     1       6.488  -4.614   4.420  0.00  0.00    +0.049 A 
ATOM     20  C   UNL     1       6.626  -3.496   5.229  0.00  0.00    +0.162 A 
ATOM     21  C   UNL     1       5.516  -2.975   5.884  0.00  0.00    +0.162 A 
ATOM     22  C   UNL     1       4.277  -3.576   5.723  0.00  0.00    +0.051 A 
ATOM     23  O   UNL     1       5.628  -1.874   6.676  0.00  0.00    -0.485 OA
ATOM     24  C   UNL     1       6.948  -1.520   7.103  0.00  0.00    +0.270 C 
ATOM     25  C   UNL     1       7.881  -1.587   5.887  0.00  0.00    +0.270 C 
ATOM     26  O   UNL     1       7.852  -2.922   5.372  0.00  0.00    -0.485 OA
ENDBRANCH  16  17
ENDBRANCH  12  16
ENDBRANCH   1   9
BRANCH   1  27
ATOM     27  S   UNL     1      -0.422  -4.975  -1.385  0.00  0.00    +0.075 S 
ATOM     28  O   UNL     1      -0.709  -6.305  -0.976  0.00  0.00    -0.150 OA
ATOM     29  O   UNL     1      -1.382  -4.155  -2.038  0.00  0.00    -0.150 OA
BRANCH  27  30
ATOM     30  C   UNL     1       0.975  -5.066  -2.455  0.00  0.00    +0.109 A 
ATOM     31  C   UNL     1       1.152  -4.116  -3.443  0.00  0.00    +0.029 A 
ATOM     32  C   UNL     1       2.248  -4.188  -4.282  0.00  0.00    +0.005 A 
ATOM     33  C   UNL     1       3.166  -5.210  -4.134  0.00  0.00    -0.050 A 
ATOM     34  C   UNL     1       2.989  -6.160  -3.145  0.00  0.00    +0.005 A 
ATOM     35  C   UNL     1       1.896  -6.086  -2.303  0.00  0.00    +0.029 A 
ATOM     36  C   UNL     1       4.360  -5.289  -5.050  0.00  0.00    +0.044 C 
ENDBRANCH  27  30
ENDBRANCH   1  27
TORSDOF 6
