REMARK  Name = ZINC12126531
REMARK  5 active torsions:
REMARK  status: ('A' for Active; 'I' for Inactive)
REMARK    1  A    between atoms: C_1  and  C_2
REMARK    2  A    between atoms: C_2  and  C_3
REMARK    3  A    between atoms: N_10  and  C_11
REMARK    4  A    between atoms: C_14  and  N_17
REMARK    5  A    between atoms: C_21  and  C_23
REMARK                            x       y       z     vdW  Elec       q    Type
REMARK                         _______ _______ _______ _____ _____    ______ ____
ROOT
ATOM      1  C   UNL     1      -1.213   1.755  -0.009  0.00  0.00    -0.047 A 
ATOM      2  C   UNL     1      -1.232   3.141   0.007  0.00  0.00    +0.007 A 
ATOM      3  C   UNL     1      -0.055   3.861   0.013  0.00  0.00    +0.047 A 
ATOM      4  C   UNL     1       1.163   3.196   0.007  0.00  0.00    +0.138 A 
ATOM      5  C   UNL     1       1.181   1.793  -0.005  0.00  0.00    +0.041 A 
ATOM      6  C   UNL     1      -0.012   1.077  -0.010  0.00  0.00    +0.017 A 
ATOM      7  C   UNL     1       2.491   1.106  -0.011  0.00  0.00    +0.054 A 
ATOM      8  N   UNL     1       2.575  -0.215  -0.022  0.00  0.00    -0.354 N 
ATOM      9  C   UNL     1       3.655   1.921  -0.003  0.00  0.00    +0.073 A 
ATOM     10  C   UNL     1       3.524   3.271   0.008  0.00  0.00    +0.138 A 
ATOM     11  O   UNL     1       2.327   3.882   0.013  0.00  0.00    -0.455 OA
ATOM     12  H   UNL     1       1.664  -0.826   0.064  0.00  0.00    +0.166 HD
ENDROOT
BRANCH   8  13
ATOM     13  C   UNL     1       3.792  -0.820  -0.139  0.00  0.00    +0.040 A 
ATOM     14  C   UNL     1       4.348  -1.044  -1.403  0.00  0.00    +0.028 A 
ATOM     15  C   UNL     1       5.581  -1.651  -1.512  0.00  0.00    +0.035 A 
ATOM     16  C   UNL     1       6.264  -2.049  -0.376  0.00  0.00    +0.126 A 
ATOM     17  C   UNL     1       5.718  -1.836   0.878  0.00  0.00    +0.035 A 
ATOM     18  C   UNL     1       4.489  -1.225   1.005  0.00  0.00    +0.028 A 
BRANCH  16  19
ATOM     19  N   UNL     1       7.590  -2.708  -0.503  0.00  0.00    +0.056 N 
ATOM     20  O   UNL     1       8.194  -3.059   0.494  0.00  0.00    -0.126 OA
ATOM     21  O   UNL     1       8.073  -2.897  -1.606  0.00  0.00    -0.126 OA
ENDBRANCH  16  19
ENDBRANCH   8  13
BRANCH  10  22
ATOM     22  C   UNL     1       4.745   4.102   0.015  0.00  0.00    +0.017 A 
ATOM     23  C   UNL     1       6.004   3.498   0.016  0.00  0.00    +0.011 A 
ATOM     24  C   UNL     1       7.140   4.280   0.016  0.00  0.00    +0.001 A 
ATOM     25  C   UNL     1       7.034   5.660   0.028  0.00  0.00    +0.000 A 
ATOM     26  C   UNL     1       5.789   6.265   0.033  0.00  0.00    +0.001 A 
ATOM     27  C   UNL     1       4.645   5.495   0.026  0.00  0.00    +0.011 A 
ENDBRANCH  10  22
BRANCH   1  29
ATOM     28  C   UNL     1      -2.953   0.714   1.419  0.00  0.00    +0.009 C 
ATOM     29  C   UNL     1      -2.509   0.986  -0.020  0.00  0.00    +0.032 C 
ENDBRANCH   1  29
TORSDOF 4
