REMARK  Name = ZINC01892942
REMARK  12 active torsions:
REMARK  status: ('A' for Active; 'I' for Inactive)
REMARK    1  A    between atoms: C_1  and  C_2
REMARK    2  A    between atoms: C_2  and  O_3
REMARK    3  A    between atoms: O_3  and  C_4
REMARK    4  A    between atoms: C_4  and  C_6
REMARK    5  A    between atoms: C_10  and  N_11
REMARK    6  A    between atoms: C_12  and  C_14
REMARK    7  A    between atoms: C_18  and  C_27
REMARK    8  A    between atoms: C_20  and  C_23
REMARK    9  A    between atoms: C_33  and  C_37
REMARK   10  A    between atoms: C_37  and  C_38
REMARK   11  A    between atoms: C_37  and  C_39
REMARK   12  A    between atoms: C_37  and  C_40
REMARK                            x       y       z     vdW  Elec       q    Type
REMARK                         _______ _______ _______ _____ _____    ______ ____
ROOT
ATOM      1  N   UNL     1       1.494  11.967   0.046  0.00  0.00    -0.274 N 
ATOM      2  C   UNL     1       0.478  11.082   0.052  0.00  0.00    +0.269 C 
ATOM      3  O   UNL     1      -0.672  11.476   0.065  0.00  0.00    -0.268 OA
ATOM      4  H   UNL     1       2.411  11.652   0.035  0.00  0.00    +0.156 HD
ENDROOT
BRANCH   1   9
ATOM      5  C   UNL     1       2.131  14.382   0.057  0.00  0.00    +0.091 A 
ATOM      6  C   UNL     1       1.587  15.730   0.063  0.00  0.00    -0.021 A 
ATOM      7  C   UNL     1       0.238  15.806   0.076  0.00  0.00    -0.004 A 
ATOM      8  S   UNL     1      -0.310  14.122   0.075  0.00  0.00    -0.077 S 
ATOM      9  C   UNL     1       1.228  13.326   0.055  0.00  0.00    +0.087 A 
ATOM     10  C   UNL     1      -0.596  17.049   0.089  0.00  0.00    +0.046 C 
ATOM     11  C   UNL     1       0.299  18.236  -0.294  0.00  0.00    -0.000 C 
ATOM     12  C   UNL     1       1.589  18.168   0.529  0.00  0.00    +0.009 C 
ATOM     13  C   UNL     1       2.444  16.989   0.060  0.00  0.00    +0.037 C 
BRANCH  11  14
ATOM     14  C   UNL     1      -0.431  19.547   0.005  0.00  0.00    -0.035 C 
ATOM     15  C   UNL     1       0.470  20.728  -0.362  0.00  0.00    +0.011 C 
ATOM     16  C   UNL     1      -1.719  19.613  -0.819  0.00  0.00    +0.011 C 
ATOM     17  C   UNL     1      -0.775  19.611   1.494  0.00  0.00    +0.011 C 
ENDBRANCH  11  14
BRANCH   5  18
ATOM     18  C   UNL     1       3.576  14.146   0.049  0.00  0.00    +0.342 C 
ATOM     19  O   UNL     1       4.172  14.055  -1.008  0.00  0.00    -0.245 OA
BRANCH  18  20
ATOM     20  O   UNL     1       4.247  14.031   1.214  0.00  0.00    -0.461 OA
BRANCH  20  22
ATOM     21  C   UNL     1       6.261  13.695   2.541  0.00  0.00    +0.048 C 
ATOM     22  C   UNL     1       5.677  13.798   1.130  0.00  0.00    +0.229 C 
ENDBRANCH  20  22
ENDBRANCH  18  20
ENDBRANCH   5  18
ENDBRANCH   1   9
BRANCH   2  23
ATOM     23  C   UNL     1       0.761   9.631   0.042  0.00  0.00    +0.150 A 
ATOM     24  C   UNL     1      -0.198   8.611   0.047  0.00  0.00    +0.083 A 
ATOM     25  C   UNL     1       0.478   7.401   0.035  0.00  0.00    +0.157 A 
ATOM     26  N   UNL     1       0.051   6.131   0.028  0.00  0.00    -0.227 NA
ATOM     27  C   UNL     1       0.913   5.128   0.020  0.00  0.00    +0.082 A 
ATOM     28  C   UNL     1       2.305   5.390   0.008  0.00  0.00    +0.061 A 
ATOM     29  C   UNL     1       2.737   6.669   0.010  0.00  0.00    +0.149 A 
ATOM     30  N   UNL     1       1.821   7.687   0.023  0.00  0.00    -0.209 N 
ATOM     31  N   UNL     1       1.964   9.079   0.028  0.00  0.00    -0.160 NA
BRANCH  27  32
ATOM     32  C   UNL     1       0.425   3.737   0.018  0.00  0.00    +0.038 A 
ATOM     33  C   UNL     1      -0.867   3.274   0.028  0.00  0.00    +0.017 A 
ATOM     34  C   UNL     1      -1.082   1.916   0.017  0.00  0.00    +0.008 A 
ATOM     35  C   UNL     1      -0.013   1.076   0.008  0.00  0.00    +0.046 A 
ATOM     36  S   UNL     1       1.361   2.217   0.001  0.00  0.00    -0.095 S 
ENDBRANCH  27  32
BRANCH  29  37
ATOM     37  C   UNL     1       4.213   6.973  -0.003  0.00  0.00    +0.434 C 
ATOM     38  F   UNL     1       4.934   5.781  -0.130  0.00  0.00    -0.164 F 
ATOM     39  F   UNL     1       4.507   7.813  -1.082  0.00  0.00    -0.164 F 
ATOM     40  F   UNL     1       4.568   7.608   1.192  0.00  0.00    -0.164 F 
ENDBRANCH  29  37
ENDBRANCH   2  23
TORSDOF 8
