REMARK  Name = ZINC13513844
REMARK  12 active torsions:
REMARK  status: ('A' for Active; 'I' for Inactive)
REMARK    1  A    between atoms: C_1  and  C_2
REMARK    2  A    between atoms: C_2  and  O_3
REMARK    3  A    between atoms: O_3  and  C_4
REMARK    4  A    between atoms: C_4  and  C_6
REMARK    5  A    between atoms: C_7  and  C_28
REMARK    6  A    between atoms: C_8  and  C_27
REMARK    7  A    between atoms: C_10  and  N_11
REMARK    8  A    between atoms: C_12  and  C_14
REMARK    9  A    between atoms: C_14  and  S_15
REMARK   10  A    between atoms: S_15  and  C_16
REMARK   11  A    between atoms: C_21  and  N_26
REMARK   12  A    between atoms: C_23  and  O_25
REMARK                            x       y       z     vdW  Elec       q    Type
REMARK                         _______ _______ _______ _____ _____    ______ ____
ROOT
ATOM      1  N   UNL     1      -1.280  -2.340  -2.485  0.00  0.00    -0.279 N 
ATOM      2  C   UNL     1      -1.323  -3.201  -3.521  0.00  0.00    +0.228 C 
ATOM      3  O   UNL     1      -1.368  -4.395  -3.315  0.00  0.00    -0.275 OA
ATOM      4  H   UNL     1      -1.244  -1.385  -2.650  0.00  0.00    +0.155 HD
ENDROOT
BRANCH   1   9
ATOM      5  C   UNL     1      -1.248  -2.096   0.003  0.00  0.00    +0.091 A 
ATOM      6  C   UNL     1      -1.260  -2.860   1.228  0.00  0.00    -0.025 A 
ATOM      7  C   UNL     1      -1.319  -4.199   1.116  0.00  0.00    -0.008 A 
ATOM      8  S   UNL     1      -1.346  -4.463  -0.645  0.00  0.00    -0.078 S 
ATOM      9  C   UNL     1      -1.287  -2.819  -1.185  0.00  0.00    +0.086 A 
ATOM     10  C   UNL     1      -1.350  -5.228   2.216  0.00  0.00    +0.052 C 
ATOM     11  C   UNL     1      -1.215  -2.185   2.575  0.00  0.00    +0.045 C 
BRANCH   5  12
ATOM     12  C   UNL     1      -1.191  -0.633   0.010  0.00  0.00    +0.342 C 
ATOM     13  O   UNL     1      -2.220   0.016   0.023  0.00  0.00    -0.245 OA
BRANCH  12  14
ATOM     14  O   UNL     1       0.002  -0.004   0.002  0.00  0.00    -0.461 OA
BRANCH  14  16
ATOM     15  C   UNL     1       1.418   1.977  -0.001  0.00  0.00    +0.048 C 
ATOM     16  C   UNL     1      -0.018   1.448   0.010  0.00  0.00    +0.229 C 
ENDBRANCH  14  16
ENDBRANCH  12  14
ENDBRANCH   5  12
ENDBRANCH   1   9
BRANCH   2  17
ATOM     17  C   UNL     1      -1.316  -2.680  -4.935  0.00  0.00    +0.173 C 
BRANCH  17  18
ATOM     18  S   UNL     1      -1.381  -4.074  -6.094  0.00  0.00    -0.076 S 
BRANCH  18  19
ATOM     19  C   UNL     1      -1.366  -3.310  -7.681  0.00  0.00    +0.199 A 
ATOM     20  N   UNL     1      -1.323  -2.022  -7.926  0.00  0.00    -0.120 NA
ATOM     21  N   UNL     1      -1.321  -1.807  -9.193  0.00  0.00    -0.107 NA
ATOM     22  C   UNL     1      -1.371  -2.954  -9.844  0.00  0.00    +0.261 A 
ATOM     23  N   UNL     1      -1.402  -3.949  -8.891  0.00  0.00    -0.242 N 
ATOM     24  C   UNL     1      -1.456  -5.265  -9.270  0.00  0.00    +0.110 A 
ATOM     25  C   UNL     1      -1.480  -5.567 -10.602  0.00  0.00    +0.109 A 
ATOM     26  C   UNL     1      -1.448  -4.527 -11.543  0.00  0.00    +0.219 A 
ATOM     27  N   UNL     1      -1.396  -3.268 -11.149  0.00  0.00    -0.175 NA
BRANCH  24  28
ATOM     28  N   UNL     1      -1.486  -6.266  -8.325  0.00  0.00    -0.344 N 
ATOM     29  H   UNL     1      -1.469  -6.042  -7.381  0.00  0.00    +0.144 HD
ATOM     30  H   UNL     1      -1.525  -7.194  -8.603  0.00  0.00    +0.144 HD
ENDBRANCH  24  28
BRANCH  26  31
ATOM     31  O   UNL     1      -1.472  -4.816 -12.866  0.00  0.00    -0.492 OA
ATOM     32  H   UNL     1      -0.597  -4.934 -13.258  0.00  0.00    +0.294 HD
ENDBRANCH  26  31
ENDBRANCH  18  19
ENDBRANCH  17  18
ENDBRANCH   2  17
TORSDOF 9
