REMARK  Name = ZINC12528694
REMARK  7 active torsions:
REMARK  status: ('A' for Active; 'I' for Inactive)
REMARK    1  A    between atoms: C_3  and  C_6
REMARK    2  A    between atoms: C_9  and  C_28
REMARK    3  A    between atoms: C_12  and  C_14
REMARK    4  A    between atoms: C_14  and  S_15
REMARK    5  A    between atoms: S_15  and  C_16
REMARK    6  A    between atoms: N_20  and  C_21
REMARK    7  A    between atoms: C_24  and  O_27
REMARK                            x       y       z     vdW  Elec       q    Type
REMARK                         _______ _______ _______ _____ _____    ______ ____
ROOT
ATOM      1  C   UNL     1      -0.013   1.086   0.008  0.00  0.00    +0.173 C 
ATOM      2  C   UNL     1      -0.814   1.624  -1.194  0.00  0.00    +0.090 C 
ATOM      3  C   UNL     1      -1.955   2.389  -0.553  0.00  0.00    +0.069 C 
ATOM      4  N   UNL     1      -1.852   2.323   0.729  0.00  0.00    -0.181 NA
ATOM      5  N   UNL     1      -0.756   1.587   1.175  0.00  0.00    -0.181 N 
ATOM      6  C   UNL     1      -0.429   1.371   2.465  0.00  0.00    +0.246 C 
ATOM      7  O   UNL     1       0.552   0.712   2.739  0.00  0.00    -0.273 OA
ENDROOT
BRANCH   3   8
ATOM      8  C   UNL     1      -3.018   3.102  -1.286  0.00  0.00    -0.002 A 
ATOM      9  C   UNL     1      -3.024   3.109  -2.683  0.00  0.00    +0.011 A 
ATOM     10  C   UNL     1      -4.024   3.772  -3.361  0.00  0.00    +0.020 A 
ATOM     11  C   UNL     1      -5.016   4.439  -2.661  0.00  0.00    +0.041 A 
ATOM     12  C   UNL     1      -5.013   4.441  -1.276  0.00  0.00    +0.020 A 
ATOM     13  C   UNL     1      -4.021   3.777  -0.586  0.00  0.00    +0.011 A 
ATOM     14 CL   UNL     1      -6.268   5.278  -3.524  0.00  0.00    -0.084 Cl
ENDBRANCH   3   8
BRANCH   1  17
ATOM     15  C   UNL     1       3.582   1.856  -0.246  0.00  0.00    +0.041 A 
ATOM     16  C   UNL     1       2.491   0.971  -0.402  0.00  0.00    +0.046 A 
ATOM     17  C   UNL     1       1.391   1.634  -0.003  0.00  0.00    +0.128 A 
ATOM     18  O   UNL     1       1.755   2.869   0.380  0.00  0.00    -0.466 OA
ATOM     19  C   UNL     1       3.084   3.007   0.241  0.00  0.00    +0.195 A 
ENDBRANCH   1  17
BRANCH   6  20
ATOM     20  C   UNL     1      -1.283   1.946   3.565  0.00  0.00    +0.175 C 
BRANCH  20  21
ATOM     21  S   UNL     1      -0.589   1.483   5.171  0.00  0.00    -0.075 S 
BRANCH  21  22
ATOM     22  C   UNL     1      -1.749   2.265   6.243  0.00  0.00    +0.214 A 
ATOM     23  N   UNL     1      -2.799   2.969   5.878  0.00  0.00    -0.101 NA
ATOM     24  N   UNL     1      -3.434   3.398   6.909  0.00  0.00    -0.022 NA
ATOM     25  N   UNL     1      -2.850   3.008   7.990  0.00  0.00    -0.038 NA
ATOM     26  N   UNL     1      -1.732   2.250   7.599  0.00  0.00    -0.187 N 
BRANCH  26  27
ATOM     27  C   UNL     1      -0.798   1.616   8.433  0.00  0.00    +0.070 A 
ATOM     28  C   UNL     1      -0.241   0.402   8.054  0.00  0.00    +0.031 A 
ATOM     29  C   UNL     1       0.682  -0.219   8.873  0.00  0.00    +0.047 A 
ATOM     30  C   UNL     1       1.044   0.365  10.078  0.00  0.00    +0.117 A 
ATOM     31  C   UNL     1       0.483   1.575  10.459  0.00  0.00    +0.047 A 
ATOM     32  C   UNL     1      -0.435   2.200   9.639  0.00  0.00    +0.031 A 
BRANCH  30  33
ATOM     33  O   UNL     1       1.948  -0.249  10.886  0.00  0.00    -0.507 OA
ATOM     34  H   UNL     1       1.554  -0.859  11.525  0.00  0.00    +0.292 HD
ENDBRANCH  30  33
ENDBRANCH  26  27
ENDBRANCH  21  22
ENDBRANCH  20  21
ENDBRANCH   6  20
TORSDOF 7
