REMARK  Name = ZINC22473243
REMARK  10 active torsions:
REMARK  status: ('A' for Active; 'I' for Inactive)
REMARK    1  A    between atoms: C_1  and  C_2
REMARK    2  A    between atoms: C_5  and  S_8
REMARK    3  A    between atoms: S_8  and  N_11
REMARK    4  A    between atoms: N_11  and  C_12
REMARK    5  A    between atoms: N_11  and  C_27
REMARK    6  A    between atoms: C_12  and  C_13
REMARK    7  A    between atoms: C_13  and  C_14
REMARK    8  A    between atoms: C_14  and  N_15
REMARK    9  A    between atoms: C_18  and  O_19
REMARK   10  A    between atoms: C_27  and  C_28
REMARK                            x       y       z     vdW  Elec       q    Type
REMARK                         _______ _______ _______ _____ _____    ______ ____
ROOT
ATOM      1  N   UNL     1      -6.074   2.530   0.045  0.00  0.00    -0.172 NA
ENDROOT
BRANCH   1   2
ATOM      2  S   UNL     1      -6.790   2.984  -1.378  0.00  0.00    +0.061 S 
ATOM      3  O   UNL     1      -7.386   4.253  -1.146  0.00  0.00    -0.153 OA
ATOM      4  O   UNL     1      -5.829   2.769  -2.402  0.00  0.00    -0.153 OA
BRANCH   2   9
ATOM      5  C   UNL     1     -11.309  -0.878  -2.415  0.00  0.00    +0.044 C 
ATOM      6  C   UNL     1     -10.180   0.087  -2.156  0.00  0.00    -0.050 A 
ATOM      7  C   UNL     1     -10.410   1.242  -1.433  0.00  0.00    +0.005 A 
ATOM      8  C   UNL     1      -9.375   2.127  -1.195  0.00  0.00    +0.029 A 
ATOM      9  C   UNL     1      -8.109   1.856  -1.681  0.00  0.00    +0.106 A 
ATOM     10  C   UNL     1      -7.880   0.703  -2.408  0.00  0.00    +0.029 A 
ATOM     11  C   UNL     1      -8.914  -0.184  -2.641  0.00  0.00    +0.005 A 
ENDBRANCH   2   9
ENDBRANCH   1   2
BRANCH   1  12
ATOM     12  C   UNL     1      -4.965   1.574   0.034  0.00  0.00    +0.111 C 
BRANCH  12  13
ATOM     13  C   UNL     1      -3.637   2.333   0.032  0.00  0.00    +0.038 C 
BRANCH  13  14
ATOM     14  C   UNL     1      -2.478   1.334   0.021  0.00  0.00    +0.114 C 
BRANCH  14  15
ATOM     15  N   UNL     1      -1.206   2.061   0.019  0.00  0.00    -0.384 N 
ATOM     16  C   UNL     1      -0.017   1.367   0.010  0.00  0.00    +0.053 A 
ATOM     17  C   UNL     1       0.002  -0.004   0.002  0.00  0.00    +0.113 A 
ATOM     18  C   UNL     1       1.228  -0.681  -0.013  0.00  0.00    +0.286 A 
ATOM     19  O   UNL     1       2.400  -0.026  -0.021  0.00  0.00    -0.425 OA
ATOM     20  C   UNL     1       2.460   1.323  -0.014  0.00  0.00    +0.141 A 
ATOM     21  C   UNL     1       1.275   2.075   0.001  0.00  0.00    +0.041 A 
ATOM     22  C   UNL     1       1.332   3.469   0.007  0.00  0.00    +0.013 A 
ATOM     23  C   UNL     1       2.556   4.101  -0.001  0.00  0.00    +0.001 A 
ATOM     24  C   UNL     1       3.727   3.357  -0.017  0.00  0.00    +0.004 A 
ATOM     25  C   UNL     1       3.684   1.979  -0.022  0.00  0.00    +0.047 A 
ATOM     26  H   UNL     1      -1.202   3.161   0.025  0.00  0.00    +0.160 HD
BRANCH  18  27
ATOM     27  O   UNL     1       1.231  -1.900  -0.020  0.00  0.00    -0.480 OA
ATOM     28  H   UNL     1       2.185  -2.448  -0.032  0.00  0.00    +0.295 HD
ENDBRANCH  18  27
ENDBRANCH  14  15
ENDBRANCH  13  14
ENDBRANCH  12  13
ENDBRANCH   1  12
BRANCH   1  29
ATOM     29  C   UNL     1      -6.551   3.086   1.314  0.00  0.00    +0.144 C 
BRANCH  29  30
ATOM     30  C   UNL     1      -5.709   4.278   1.688  0.00  0.00    -0.032 A 
ATOM     31  C   UNL     1      -4.575   4.109   2.460  0.00  0.00    +0.005 A 
ATOM     32  C   UNL     1      -3.800   5.202   2.799  0.00  0.00    +0.000 A 
ATOM     33  C   UNL     1      -4.165   6.466   2.375  0.00  0.00    +0.000 A 
ATOM     34  C   UNL     1      -5.302   6.636   1.608  0.00  0.00    +0.000 A 
ATOM     35  C   UNL     1      -6.074   5.542   1.264  0.00  0.00    +0.005 A 
ENDBRANCH  29  30
ENDBRANCH   1  29
TORSDOF 9
