REMARK  Name = ZINC20179269
REMARK  7 active torsions:
REMARK  status: ('A' for Active; 'I' for Inactive)
REMARK    1  A    between atoms: C_1  and  C_2
REMARK    2  A    between atoms: C_7  and  N_12
REMARK    3  A    between atoms: C_9  and  C_11
REMARK    4  A    between atoms: C_13  and  C_15
REMARK    5  A    between atoms: C_18  and  C_21
REMARK    6  A    between atoms: N_25  and  C_33
REMARK    7  A    between atoms: C_33  and  C_34
REMARK                            x       y       z     vdW  Elec       q    Type
REMARK                         _______ _______ _______ _____ _____    ______ ____
ROOT
ATOM      1  C   UNL     1       3.280   5.610  -1.292  0.00  0.00    +0.059 C 
ATOM      2  C   UNL     1       2.157   5.074  -0.763  0.00  0.00    +0.191 C 
ATOM      3  C   UNL     1       1.035   5.924  -0.306  0.00  0.00    +0.287 C 
ATOM      4  O   UNL     1       1.217   7.076   0.042  0.00  0.00    -0.266 OA
ATOM      5  N   UNL     1      -0.202   5.372  -0.290  0.00  0.00    -0.257 N 
ATOM      6  C   UNL     1      -0.354   4.046  -0.715  0.00  0.00    +0.079 A 
ATOM      7  C   UNL     1      -1.620   3.541  -0.974  0.00  0.00    +0.027 A 
ATOM      8  C   UNL     1      -1.768   2.236  -1.402  0.00  0.00    +0.002 A 
ATOM      9  C   UNL     1      -0.658   1.426  -1.563  0.00  0.00    +0.004 A 
ATOM     10  C   UNL     1       0.607   1.921  -1.307  0.00  0.00    +0.048 A 
ATOM     11  C   UNL     1       0.764   3.230  -0.882  0.00  0.00    +0.150 A 
ATOM     12  O   UNL     1       2.008   3.722  -0.626  0.00  0.00    -0.449 OA
ENDROOT
BRANCH   1  16
ATOM     13  C   UNL     1       6.763   3.238  -1.719  0.00  0.00    +0.037 A 
ATOM     14  C   UNL     1       6.721   4.523  -2.269  0.00  0.00    +0.013 A 
ATOM     15  C   UNL     1       5.598   5.288  -2.132  0.00  0.00    +0.009 A 
ATOM     16  C   UNL     1       4.489   4.787  -1.440  0.00  0.00    -0.021 A 
ATOM     17  C   UNL     1       4.534   3.502  -0.885  0.00  0.00    +0.009 A 
ATOM     18  C   UNL     1       5.656   2.736  -1.028  0.00  0.00    +0.013 A 
BRANCH  13  20
ATOM     19  N   UNL     1       8.018   1.172  -1.338  0.00  0.00    -0.308 N 
ATOM     20  C   UNL     1       7.977   2.411  -1.868  0.00  0.00    +0.244 C 
ATOM     21  O   UNL     1       8.940   2.847  -2.469  0.00  0.00    -0.270 OA
ATOM     22  H   UNL     1       7.147   0.778  -0.794  0.00  0.00    +0.149 HD
BRANCH  19  28
ATOM     23  C   UNL     1      10.610  -2.546   0.637  0.00  0.00    +0.008 C 
ATOM     24  C   UNL     1      10.545  -1.526  -0.502  0.00  0.00    -0.009 C 
ATOM     25  C   UNL     1      10.501  -2.260  -1.843  0.00  0.00    +0.003 C 
ATOM     26  C   UNL     1      10.436  -1.240  -2.981  0.00  0.00    +0.002 C 
ATOM     27  C   UNL     1       9.178  -0.383  -2.827  0.00  0.00    +0.022 C 
ATOM     28  C   UNL     1       9.222   0.352  -1.486  0.00  0.00    +0.076 C 
ATOM     29  C   UNL     1       9.287  -0.669  -0.347  0.00  0.00    +0.009 C 
ATOM     30  C   UNL     1       9.332   0.066   0.994  0.00  0.00    +0.009 C 
ENDBRANCH  19  28
ENDBRANCH  13  20
ENDBRANCH   1  16
BRANCH   5  31
ATOM     31  C   UNL     1      -1.359   6.147   0.165  0.00  0.00    +0.152 C 
BRANCH  31  32
ATOM     32  C   UNL     1      -1.536   5.961   1.649  0.00  0.00    +0.005 A 
ATOM     33  C   UNL     1      -2.486   5.078   2.127  0.00  0.00    +0.008 A 
ATOM     34  C   UNL     1      -2.645   4.902   3.489  0.00  0.00    +0.000 A 
ATOM     35  C   UNL     1      -1.862   5.619   4.375  0.00  0.00    +0.003 A 
ATOM     36  C   UNL     1      -0.915   6.506   3.900  0.00  0.00    +0.038 A 
ATOM     37  C   UNL     1      -0.751   6.678   2.536  0.00  0.00    +0.128 A 
ATOM     38  F   UNL     1       0.174   7.546   2.070  0.00  0.00    -0.205 F 
ENDBRANCH  31  32
ENDBRANCH   5  31
TORSDOF 5
