REMARK  Name = ZINC38984367
REMARK  7 active torsions:
REMARK  status: ('A' for Active; 'I' for Inactive)
REMARK    1  A    between atoms: C_1  and  C_2
REMARK    2  A    between atoms: C_4  and  C_35
REMARK    3  A    between atoms: C_6  and  N_8
REMARK    4  A    between atoms: N_8  and  C_9
REMARK    5  A    between atoms: C_11  and  C_21
REMARK    6  A    between atoms: C_26  and  O_33
REMARK    7  A    between atoms: O_33  and  C_34
REMARK                            x       y       z     vdW  Elec       q    Type
REMARK                         _______ _______ _______ _____ _____    ______ ____
ROOT
ATOM      1  C   UNL     1       0.159  -2.076   3.662  0.00  0.00    +0.188 C 
ATOM      2  C   UNL     1       1.235  -2.716   4.558  0.00  0.00    +0.135 C 
ATOM      3  N   UNL     1       0.496  -3.154   5.746  0.00  0.00    -0.366 N 
ATOM      4  C   UNL     1      -0.781  -2.855   5.627  0.00  0.00    +0.101 C 
ATOM      5  N   UNL     1      -1.080  -2.221   4.446  0.00  0.00    -0.271 N 
ATOM      6  C   UNL     1      -2.358  -1.837   4.156  0.00  0.00    +0.098 C 
ATOM      7  C   UNL     1      -3.365  -2.068   5.025  0.00  0.00    +0.055 C 
ATOM      8  C   UNL     1      -3.105  -2.713   6.247  0.00  0.00    +0.024 C 
ATOM      9  C   UNL     1      -1.835  -3.107   6.552  0.00  0.00    +0.043 C 
ATOM     10 CL   UNL     1      -4.980  -1.569   4.633  0.00  0.00    -0.082 Cl
ATOM     11  H   UNL     1       0.891  -3.601   6.510  0.00  0.00    +0.161 HD
ENDROOT
BRANCH   2  12
ATOM     12  C   UNL     1       2.300  -1.684   4.936  0.00  0.00    +0.124 C 
ATOM     13  C   UNL     1       3.433  -2.418   5.625  0.00  0.00    -0.002 C 
ATOM     14  C   UNL     1       3.756  -2.023   6.890  0.00  0.00    -0.003 A 
ATOM     15  C   UNL     1       4.837  -2.678   7.627  0.00  0.00    +0.055 A 
ATOM     16  C   UNL     1       5.123  -2.251   8.888  0.00  0.00    +0.121 A 
ATOM     17  C   UNL     1       4.407  -1.206   9.482  0.00  0.00    +0.047 A 
ATOM     18  C   UNL     1       3.394  -0.560   8.848  0.00  0.00    +0.027 A 
ATOM     19  C   UNL     1       3.019  -0.926   7.541  0.00  0.00    +0.041 A 
ATOM     20  N   UNL     1       2.023  -0.284   6.931  0.00  0.00    -0.284 N 
ATOM     21  C   UNL     1       1.619  -0.576   5.707  0.00  0.00    +0.226 C 
ATOM     22  O   UNL     1       0.703   0.046   5.202  0.00  0.00    -0.275 OA
ATOM     23  H   UNL     1       1.574   0.431   7.408  0.00  0.00    +0.155 HD
BRANCH  16  24
ATOM     24  O   UNL     1       6.125  -2.852   9.583  0.00  0.00    -0.495 OA
ATOM     25  C   UNL     1       6.383  -2.364  10.901  0.00  0.00    +0.277 C 
ENDBRANCH  16  24
ENDBRANCH   2  12
BRANCH   1  26
ATOM     26  N   UNL     1       0.051  -2.796   2.390  0.00  0.00    -0.324 N 
ATOM     27  H   UNL     1       0.131  -3.763   2.373  0.00  0.00    +0.148 HD
BRANCH  26  33
ATOM     28  C   UNL     1      -0.920   1.447   0.109  0.00  0.00    +0.044 C 
ATOM     29  C   UNL     1      -0.638  -0.033   0.068  0.00  0.00    -0.048 A 
ATOM     30  C   UNL     1      -0.594  -0.695  -1.145  0.00  0.00    +0.006 A 
ATOM     31  C   UNL     1      -0.336  -2.053  -1.187  0.00  0.00    -0.048 A 
ATOM     32  C   UNL     1      -0.122  -2.753  -0.017  0.00  0.00    +0.026 A 
ATOM     33  C   UNL     1      -0.165  -2.091   1.204  0.00  0.00    +0.029 A 
ATOM     34  C   UNL     1      -0.419  -0.726   1.242  0.00  0.00    +0.026 A 
ATOM     35  C   UNL     1      -0.290  -2.769  -2.512  0.00  0.00    +0.044 C 
ENDBRANCH  26  33
ENDBRANCH   1  26
TORSDOF 4
