REMARK  Name = ZINC62993076
REMARK  9 active torsions:
REMARK  status: ('A' for Active; 'I' for Inactive)
REMARK    1  A    between atoms: C_1  and  C_2
REMARK    2  A    between atoms: C_2  and  N_3
REMARK    3  A    between atoms: N_3  and  C_4
REMARK    4  A    between atoms: N_3  and  C_6
REMARK    5  A    between atoms: C_4  and  C_5
REMARK    6  A    between atoms: C_9  and  C_12
REMARK    7  A    between atoms: C_17  and  C_35
REMARK    8  A    between atoms: N_24  and  C_27
REMARK    9  A    between atoms: C_27  and  C_28
REMARK                            x       y       z     vdW  Elec       q    Type
REMARK                         _______ _______ _______ _____ _____    ______ ____
ROOT
ATOM      1  C   UNL     1      -1.185  -6.316   0.148  0.00  0.00    +0.058 C 
ATOM      2  C   UNL     1      -1.894  -7.023   1.064  0.00  0.00    +0.176 C 
ATOM      3  C   UNL     1      -1.843  -8.480   1.268  0.00  0.00    +0.232 C 
ATOM      4  O   UNL     1      -1.170  -9.295   0.663  0.00  0.00    -0.283 OA
ATOM      5  C   UNL     1      -2.791  -8.731   2.369  0.00  0.00    +0.071 A 
ATOM      6  C   UNL     1      -3.200  -9.888   3.032  0.00  0.00    -0.033 A 
ATOM      7  C   UNL     1      -4.117  -9.806   4.040  0.00  0.00    +0.050 A 
ATOM      8  C   UNL     1      -4.648  -8.571   4.411  0.00  0.00    +0.131 A 
ATOM      9  C   UNL     1      -4.249  -7.415   3.762  0.00  0.00    +0.051 A 
ATOM     10  C   UNL     1      -3.316  -7.481   2.733  0.00  0.00    +0.148 A 
ATOM     11  O   UNL     1      -2.773  -6.515   1.960  0.00  0.00    -0.451 OA
ATOM     12  C   UNL     1      -4.809  -6.073   4.159  0.00  0.00    +0.130 C 
ATOM     13  N   UNL     1      -6.037  -6.264   4.944  0.00  0.00    -0.262 NA
ATOM     14  C   UNL     1      -5.807  -7.248   6.014  0.00  0.00    +0.319 C 
ATOM     15  O   UNL     1      -5.562  -8.523   5.415  0.00  0.00    -0.476 OA
ATOM     16  C   UNL     1      -2.630 -11.226   2.636  0.00  0.00    +0.045 C 
ENDROOT
BRANCH   1  20
ATOM     17  C   UNL     1      -1.276  -2.078   0.207  0.00  0.00    +0.013 A 
ATOM     18  C   UNL     1      -1.890  -2.793   1.220  0.00  0.00    +0.022 A 
ATOM     19  C   UNL     1      -1.865  -4.172   1.208  0.00  0.00    +0.010 A 
ATOM     20  C   UNL     1      -1.217  -4.847   0.169  0.00  0.00    -0.021 A 
ATOM     21  C   UNL     1      -0.598  -4.116  -0.852  0.00  0.00    +0.010 A 
ATOM     22  C   UNL     1      -0.637  -2.738  -0.828  0.00  0.00    +0.022 A 
BRANCH  17  23
ATOM     23  N   UNL     1      -1.306  -0.680   0.226  0.00  0.00    -0.394 NA
ATOM     24  H   UNL     1      -0.818  -0.322  -0.581  0.00  0.00    +0.126 HD
BRANCH  23  26
ATOM     25  C   UNL     1      -3.343  -0.613  -1.131  0.00  0.00    +0.022 C 
ATOM     26  C   UNL     1      -2.700  -0.220   0.201  0.00  0.00    +0.081 C 
ENDBRANCH  23  26
BRANCH  23  27
ATOM     27  C   UNL     1      -0.651  -0.193   1.448  0.00  0.00    +0.081 C 
ATOM     28  C   UNL     1       0.831  -0.572   1.419  0.00  0.00    +0.022 C 
ENDBRANCH  23  27
ENDBRANCH  17  23
ENDBRANCH   1  20
BRANCH  13  29
ATOM     29  C   UNL     1      -6.513  -4.988   5.495  0.00  0.00    +0.123 C 
BRANCH  29  30
ATOM     30  C   UNL     1      -7.889  -5.176   6.080  0.00  0.00    -0.033 A 
ATOM     31  C   UNL     1      -9.007  -4.992   5.288  0.00  0.00    +0.006 A 
ATOM     32  C   UNL     1     -10.270  -5.164   5.823  0.00  0.00    +0.020 A 
ATOM     33  C   UNL     1     -10.415  -5.521   7.152  0.00  0.00    +0.041 A 
ATOM     34  C   UNL     1      -9.295  -5.705   7.944  0.00  0.00    +0.020 A 
ATOM     35  C   UNL     1      -8.033  -5.538   7.406  0.00  0.00    +0.006 A 
ATOM     36 CL   UNL     1     -12.000  -5.737   7.826  0.00  0.00    -0.084 Cl
ENDBRANCH  29  30
ENDBRANCH  13  29
TORSDOF 6
