REMARK  Name = ZINC13503634
REMARK  9 active torsions:
REMARK  status: ('A' for Active; 'I' for Inactive)
REMARK    1  A    between atoms: C_1  and  C_2
REMARK    2  A    between atoms: C_2  and  C_3
REMARK    3  A    between atoms: C_12  and  S_13
REMARK    4  A    between atoms: S_13  and  C_14
REMARK    5  A    between atoms: C_14  and  C_15
REMARK    6  A    between atoms: N_17  and  C_18
REMARK    7  A    between atoms: C_21  and  N_26
REMARK    8  A    between atoms: C_23  and  O_24
REMARK    9  A    between atoms: O_24  and  C_25
REMARK                            x       y       z     vdW  Elec       q    Type
REMARK                         _______ _______ _______ _____ _____    ______ ____
ROOT
ATOM      1  S   UNL     1      -5.064   0.941  -0.304  0.00  0.00    -0.096 S 
ENDROOT
BRANCH   1  11
ATOM      2  C   UNL     1      -7.726   1.530  -0.520  0.00  0.00    -0.015 A 
ATOM      3  C   UNL     1      -8.792   2.376  -0.603  0.00  0.00    +0.016 A 
ATOM      4  C   UNL     1      -8.548   3.763  -0.574  0.00  0.00    +0.004 A 
ATOM      5  C   UNL     1      -9.600   4.689  -0.655  0.00  0.00    +0.059 A 
ATOM      6  C   UNL     1      -9.332   6.028  -0.625  0.00  0.00    +0.163 A 
ATOM      7  C   UNL     1      -8.013   6.490  -0.511  0.00  0.00    +0.164 A 
ATOM      8  C   UNL     1      -6.970   5.609  -0.432  0.00  0.00    +0.077 A 
ATOM      9  C   UNL     1      -7.214   4.227  -0.461  0.00  0.00    +0.076 A 
ATOM     10  N   UNL     1      -6.207   3.349  -0.378  0.00  0.00    -0.240 NA
ATOM     11  C   UNL     1      -6.429   2.050  -0.410  0.00  0.00    +0.101 A 
ATOM     12  O   UNL     1      -7.748   7.825  -0.475  0.00  0.00    -0.485 OA
ATOM     13  C   UNL     1      -8.784   8.700  -0.935  0.00  0.00    +0.270 C 
ATOM     14  C   UNL     1     -10.108   8.254  -0.301  0.00  0.00    +0.270 C 
ATOM     15  O   UNL     1     -10.370   6.908  -0.710  0.00  0.00    -0.485 OA
BRANCH   2  17
ATOM     16  C   UNL     1      -8.010  -0.493   0.886  0.00  0.00    +0.009 C 
ATOM     17  C   UNL     1      -7.942   0.039  -0.547  0.00  0.00    +0.034 C 
ENDBRANCH   2  17
ENDBRANCH   1  11
BRANCH   1  18
ATOM     18  C   UNL     1      -3.703   2.128  -0.184  0.00  0.00    +0.171 C 
BRANCH  18  19
ATOM     19  C   UNL     1      -2.396   1.385  -0.081  0.00  0.00    +0.228 C 
ATOM     20  O   UNL     1      -2.385   0.173  -0.088  0.00  0.00    -0.275 OA
ATOM     21  N   UNL     1      -1.239   2.069   0.019  0.00  0.00    -0.282 N 
ATOM     22  H   UNL     1      -1.252   3.035   0.105  0.00  0.00    +0.155 HD
BRANCH  21  23
ATOM     23  C   UNL     1      -0.016   1.384  -0.002  0.00  0.00    +0.076 A 
ATOM     24  C   UNL     1       0.075   0.144  -0.616  0.00  0.00    +0.029 A 
ATOM     25  C   UNL     1       1.283  -0.527  -0.640  0.00  0.00    +0.035 A 
ATOM     26  C   UNL     1       2.402   0.034  -0.053  0.00  0.00    +0.130 A 
ATOM     27  C   UNL     1       2.318   1.270   0.561  0.00  0.00    +0.080 A 
ATOM     28  C   UNL     1       1.111   1.949   0.590  0.00  0.00    +0.143 A 
BRANCH  26  29
ATOM     29  N   UNL     1       3.693  -0.689  -0.083  0.00  0.00    +0.057 N 
ATOM     30  O   UNL     1       3.769  -1.778  -0.624  0.00  0.00    -0.126 OA
ATOM     31  O   UNL     1       4.680  -0.196   0.434  0.00  0.00    -0.126 OA
ENDBRANCH  26  29
BRANCH  28  32
ATOM     32  O   UNL     1       1.027   3.165   1.193  0.00  0.00    -0.493 OA
ATOM     33  C   UNL     1       2.224   3.683   1.778  0.00  0.00    +0.277 C 
ENDBRANCH  28  32
ENDBRANCH  21  23
ENDBRANCH  18  19
ENDBRANCH   1  18
TORSDOF 7
