REMARK  Name = ZINC63375900
REMARK  8 active torsions:
REMARK  status: ('A' for Active; 'I' for Inactive)
REMARK    1  A    between atoms: C_1  and  C_2
REMARK    2  A    between atoms: C_5  and  C_8
REMARK    3  A    between atoms: N_26  and  C_29
REMARK    4  A    between atoms: C_32  and  C_35
REMARK    5  A    between atoms: N_37  and  C_38
REMARK    6  A    between atoms: C_38  and  C_39
REMARK    7  A    between atoms: C_39  and  O_40
REMARK    8  A    between atoms: O_40  and  C_41
REMARK                            x       y       z     vdW  Elec       q    Type
REMARK                         _______ _______ _______ _____ _____    ______ ____
ROOT
ATOM      1  C   UNL     1       0.041  -4.299  -0.017  0.00  0.00    +0.135 C 
ATOM      2  C   UNL     1      -1.332  -4.837   0.413  0.00  0.00    +0.131 C 
ATOM      3  C   UNL     1      -1.456  -4.595   1.911  0.00  0.00    -0.034 C 
ATOM      4  C   UNL     1      -2.557  -3.870   2.082  0.00  0.00    -0.001 A 
ATOM      5  C   UNL     1      -3.227  -3.381   3.297  0.00  0.00    +0.010 A 
ATOM      6  C   UNL     1      -4.353  -2.644   3.106  0.00  0.00    +0.001 A 
ATOM      7  C   UNL     1      -4.873  -2.348   1.842  0.00  0.00    +0.002 A 
ATOM      8  C   UNL     1      -4.325  -2.761   0.671  0.00  0.00    +0.026 A 
ATOM      9  C   UNL     1      -3.138  -3.546   0.744  0.00  0.00    +0.043 A 
ATOM     10  N   UNL     1      -2.420  -4.091  -0.222  0.00  0.00    -0.375 N 
ATOM     11  C   UNL     1      -0.432  -5.069   2.915  0.00  0.00    +0.065 C 
ATOM     12  C   UNL     1       0.932  -4.549   2.427  0.00  0.00    +0.169 C 
ATOM     13  N   UNL     1       1.018  -4.782   0.969  0.00  0.00    -0.264 N 
ATOM     14  C   UNL     1       2.117  -5.516   0.755  0.00  0.00    +0.317 C 
ATOM     15  O   UNL     1       2.547  -5.787  -0.349  0.00  0.00    -0.252 OA
ATOM     16  N   UNL     1       2.688  -5.916   1.899  0.00  0.00    -0.193 N 
ATOM     17  C   UNL     1       2.043  -5.402   3.000  0.00  0.00    +0.248 C 
ATOM     18  O   UNL     1       2.295  -5.587   4.171  0.00  0.00    -0.273 OA
ATOM     19  H   UNL     1      -2.573  -4.013  -1.177  0.00  0.00    +0.160 HD
ENDROOT
BRANCH   1  24
ATOM     20  C   UNL     1      -0.025   1.479  -0.064  0.00  0.00    +0.044 C 
ATOM     21  C   UNL     1      -0.008  -0.028  -0.051  0.00  0.00    -0.050 A 
ATOM     22  C   UNL     1      -0.136  -0.711   1.143  0.00  0.00    +0.004 A 
ATOM     23  C   UNL     1      -0.121  -2.094   1.155  0.00  0.00    +0.006 A 
ATOM     24  C   UNL     1       0.023  -2.793  -0.029  0.00  0.00    -0.025 A 
ATOM     25  C   UNL     1       0.151  -2.110  -1.224  0.00  0.00    +0.006 A 
ATOM     26  C   UNL     1       0.131  -0.727  -1.236  0.00  0.00    +0.004 A 
ENDBRANCH   1  24
BRANCH  16  27
ATOM     27  C   UNL     1       3.809  -6.748   1.968  0.00  0.00    +0.045 A 
ATOM     28  C   UNL     1       4.252  -7.214   3.201  0.00  0.00    +0.025 A 
ATOM     29  C   UNL     1       5.356  -8.034   3.273  0.00  0.00    +0.015 A 
ATOM     30  C   UNL     1       6.032  -8.396   2.105  0.00  0.00    +0.037 A 
ATOM     31  C   UNL     1       5.585  -7.926   0.868  0.00  0.00    +0.015 A 
ATOM     32  C   UNL     1       4.476  -7.111   0.803  0.00  0.00    +0.025 A 
BRANCH  30  33
ATOM     33  C   UNL     1       7.217  -9.274   2.178  0.00  0.00    +0.244 C 
ATOM     34  O   UNL     1       7.606  -9.683   3.256  0.00  0.00    -0.270 OA
ATOM     35  N   UNL     1       7.868  -9.623   1.051  0.00  0.00    -0.309 N 
ATOM     36  H   UNL     1       7.558  -9.297   0.191  0.00  0.00    +0.149 HD
BRANCH  35  37
ATOM     37  C   UNL     1       9.043 -10.494   1.123  0.00  0.00    +0.132 C 
BRANCH  37  38
ATOM     38  C   UNL     1       9.588 -10.733  -0.286  0.00  0.00    +0.178 C 
BRANCH  38  39
ATOM     39  O   UNL     1      10.065  -9.500  -0.828  0.00  0.00    -0.381 OA
ATOM     40  C   UNL     1      10.598  -9.613  -2.149  0.00  0.00    +0.194 C 
ENDBRANCH  38  39
ENDBRANCH  37  38
ENDBRANCH  35  37
ENDBRANCH  30  33
ENDBRANCH  16  27
TORSDOF 6
