REMARK  Name = ZINC21468889
REMARK  5 active torsions:
REMARK  status: ('A' for Active; 'I' for Inactive)
REMARK    1  A    between atoms: C_1  and  C_2
REMARK    2  A    between atoms: C_2  and  C_28
REMARK    3  A    between atoms: N_5  and  C_9
REMARK    4  A    between atoms: C_9  and  C_10
REMARK    5  A    between atoms: C_16  and  C_18
REMARK                            x       y       z     vdW  Elec       q    Type
REMARK                         _______ _______ _______ _____ _____    ______ ____
ROOT
ATOM      1  C   UNL     1       6.061  -0.411  -2.898  0.00  0.00    +0.213 C 
ENDROOT
BRANCH   1   6
ATOM      2  C   UNL     1       4.210  -0.946   1.389  0.00  0.00    +0.047 C 
ATOM      3  C   UNL     1       3.711  -0.707  -0.038  0.00  0.00    +0.135 C 
ATOM      4  C   UNL     1       4.741   0.059  -0.845  0.00  0.00    +0.251 C 
ATOM      5  O   UNL     1       5.166   1.172  -0.622  0.00  0.00    -0.272 OA
ATOM      6  N   UNL     1       5.084  -0.755  -1.863  0.00  0.00    -0.215 N 
ATOM      7  C   UNL     1       4.421  -1.916  -1.811  0.00  0.00    +0.310 C 
ATOM      8  O   UNL     1       4.562  -2.811  -2.622  0.00  0.00    -0.252 OA
ATOM      9  N   UNL     1       3.582  -1.983  -0.762  0.00  0.00    -0.281 N 
ATOM     10  H   UNL     1       2.888  -2.755  -0.398  0.00  0.00    +0.152 HD
BRANCH   3  11
ATOM     11  C   UNL     1       2.396   0.029  -0.021  0.00  0.00    -0.015 A 
ATOM     12  C   UNL     1       1.208  -0.678  -0.013  0.00  0.00    +0.007 A 
ATOM     13  C   UNL     1       0.002  -0.004   0.002  0.00  0.00    +0.020 A 
ATOM     14  C   UNL     1      -0.017   1.379   0.010  0.00  0.00    +0.041 A 
ATOM     15  C   UNL     1       1.172   2.087   0.002  0.00  0.00    +0.020 A 
ATOM     16  C   UNL     1       2.378   1.411  -0.013  0.00  0.00    +0.007 A 
ATOM     17 CL   UNL     1      -1.532   2.227   0.021  0.00  0.00    -0.084 Cl
ENDBRANCH   3  11
ENDBRANCH   1   6
BRANCH   1  18
ATOM     18  C   UNL     1       5.359   0.264  -4.048  0.00  0.00    +0.234 C 
ATOM     19  O   UNL     1       4.159   0.440  -4.006  0.00  0.00    -0.274 OA
ATOM     20  N   UNL     1       6.063   0.672  -5.122  0.00  0.00    -0.293 N 
ATOM     21  C   UNL     1       7.518   0.522  -5.303  0.00  0.00    +0.108 C 
ATOM     22  C   UNL     1       7.910   1.635  -6.308  0.00  0.00    +0.021 C 
ATOM     23  C   UNL     1       6.684   1.641  -7.259  0.00  0.00    +0.029 C 
ATOM     24  C   UNL     1       5.506   1.335  -6.310  0.00  0.00    +0.106 C 
BRANCH  24  25
ATOM     25  C   UNL     1       4.519   0.422  -6.992  0.00  0.00    -0.023 A 
ATOM     26  C   UNL     1       4.788  -0.930  -7.095  0.00  0.00    +0.009 A 
ATOM     27  C   UNL     1       3.886  -1.771  -7.719  0.00  0.00    +0.050 A 
ATOM     28  C   UNL     1       2.708  -1.260  -8.244  0.00  0.00    +0.162 A 
ATOM     29  C   UNL     1       2.438   0.100  -8.139  0.00  0.00    +0.162 A 
ATOM     30  C   UNL     1       3.345   0.937  -7.507  0.00  0.00    +0.055 A 
ATOM     31  O   UNL     1       1.286   0.621  -8.644  0.00  0.00    -0.485 OA
ATOM     32  C   UNL     1       0.577  -0.183  -9.592  0.00  0.00    +0.270 C 
ATOM     33  C   UNL     1       0.497  -1.614  -9.044  0.00  0.00    +0.270 C 
ATOM     34  O   UNL     1       1.832  -2.099  -8.860  0.00  0.00    -0.485 OA
ENDBRANCH  24  25
ENDBRANCH   1  18
TORSDOF 4
