REMARK  Name = ZINC29597793
REMARK  6 active torsions:
REMARK  status: ('A' for Active; 'I' for Inactive)
REMARK    1  A    between atoms: C_3  and  C_6
REMARK    2  A    between atoms: C_6  and  N_7
REMARK    3  A    between atoms: C_8  and  N_12
REMARK    4  A    between atoms: C_13  and  C_15
REMARK    5  A    between atoms: C_15  and  N_16
REMARK    6  A    between atoms: C_20  and  C_22
REMARK                            x       y       z     vdW  Elec       q    Type
REMARK                         _______ _______ _______ _____ _____    ______ ____
ROOT
ATOM      1  C   UNL     1       2.837   6.654   2.169  0.00  0.00    +0.020 C 
ENDROOT
BRANCH   1   2
ATOM      2  N   UNL     1       2.910   7.614   3.278  0.00  0.00    +0.390 N 
ATOM      3  C   UNL     1       4.322   7.963   3.542  0.00  0.00    -0.077 C 
ATOM      4  C   UNL     1       4.560   9.275   2.752  0.00  0.00    -0.020 C 
ATOM      5  C   UNL     1       3.202  10.002   2.937  0.00  0.00    -0.013 C 
ATOM      6  C   UNL     1       2.182   8.845   2.918  0.00  0.00    -0.037 C 
ATOM      7  H   UNL     1       2.502   7.209   4.107  0.00  0.00    -0.080 HD
BRANCH   6   8
ATOM      8  C   UNL     1       1.089   9.107   3.922  0.00  0.00    -0.057 A 
ATOM      9  C   UNL     1       1.323   8.890   5.268  0.00  0.00    +0.006 A 
ATOM     10  C   UNL     1       0.323   9.128   6.191  0.00  0.00    +0.049 A 
ATOM     11  C   UNL     1      -0.917   9.585   5.771  0.00  0.00    +0.162 A 
ATOM     12  C   UNL     1      -1.151   9.805   4.419  0.00  0.00    +0.162 A 
ATOM     13  C   UNL     1      -0.142   9.568   3.497  0.00  0.00    +0.051 A 
ATOM     14  O   UNL     1      -2.358  10.261   3.986  0.00  0.00    -0.485 OA
ATOM     15  C   UNL     1      -3.457  10.137   4.896  0.00  0.00    +0.270 C 
ATOM     16  C   UNL     1      -2.996  10.624   6.276  0.00  0.00    +0.270 C 
ATOM     17  O   UNL     1      -1.893   9.811   6.693  0.00  0.00    -0.485 OA
ENDBRANCH   6   8
ENDBRANCH   1   2
BRANCH   1  19
ATOM     18  N   UNL     1       3.525   4.319   1.725  0.00  0.00    -0.272 N 
ATOM     19  C   UNL     1       3.476   5.354   2.587  0.00  0.00    +0.202 C 
ATOM     20  O   UNL     1       3.946   5.240   3.700  0.00  0.00    -0.278 OA
ATOM     21  H   UNL     1       3.149   4.411   0.836  0.00  0.00    +0.156 HD
BRANCH  18  23
ATOM     22  N   UNL     1       4.234   2.004   1.353  0.00  0.00    -0.246 N 
ATOM     23  C   UNL     1       4.116   3.117   2.112  0.00  0.00    +0.123 A 
ATOM     24  C   UNL     1       4.680   2.851   3.322  0.00  0.00    +0.065 A 
ATOM     25  C   UNL     1       5.153   1.536   3.294  0.00  0.00    +0.136 A 
ATOM     26  N   UNL     1       4.882   1.027   2.119  0.00  0.00    -0.178 NA
BRANCH  22  27
ATOM     27  C   UNL     1       3.761   1.845  -0.024  0.00  0.00    +0.187 C 
BRANCH  27  30
ATOM     28  C   UNL     1      -0.016   1.351   0.009  0.00  0.00    +0.008 A 
ATOM     29  C   UNL     1       1.183   2.038   0.002  0.00  0.00    +0.013 A 
ATOM     30  C   UNL     1       2.343   1.336  -0.013  0.00  0.00    +0.011 A 
ATOM     31  S   UNL     1       1.754  -0.349  -0.017  0.00  0.00    -0.100 S 
ATOM     32  C   UNL     1       0.002  -0.004   0.002  0.00  0.00    +0.045 A 
ENDBRANCH  27  30
ENDBRANCH  22  27
ENDBRANCH  18  23
ENDBRANCH   1  19
TORSDOF 6
