REMARK  Name = ZINC16035864
REMARK  14 active torsions:
REMARK  status: ('A' for Active; 'I' for Inactive)
REMARK    1  A    between atoms: C_1  and  C_2
REMARK    2  A    between atoms: C_3  and  C_34
REMARK    3  A    between atoms: C_9  and  C_33
REMARK    4  A    between atoms: C_22  and  C_32
REMARK    5  A    between atoms: C_25  and  O_28
REMARK    6  A    between atoms: O_28  and  C_29
REMARK    7  A    between atoms: C_29  and  C_31
REMARK    8  A    between atoms: C_34  and  C_35
REMARK    9  A    between atoms: C_35  and  C_36
REMARK   10  A    between atoms: C_36  and  C_38
REMARK   11  A    between atoms: C_36  and  C_39
REMARK   12  A    between atoms: C_39  and  N_40
REMARK   13  A    between atoms: C_41  and  C_43
REMARK   14  A    between atoms: C_44  and  C_46
REMARK                            x       y       z     vdW  Elec       q    Type
REMARK                         _______ _______ _______ _____ _____    ______ ____
ROOT
ATOM      1  C   UNL     1      -4.333   5.572  -2.780  0.00  0.00    +0.043 C 
ATOM      2  C   UNL     1      -3.249   5.160  -1.814  0.00  0.00    -0.028 C 
ATOM      3  C   UNL     1      -2.421   5.973  -1.126  0.00  0.00    +0.098 C 
ATOM      4  O   UNL     1      -1.516   5.247  -0.369  0.00  0.00    -0.493 OA
ATOM      5  C   UNL     1      -2.253   4.119   0.004  0.00  0.00    +0.181 C 
ATOM      6  C   UNL     1      -2.832   3.797  -1.433  0.00  0.00    +0.065 C 
ATOM      7  C   UNL     1      -3.695   2.587  -1.168  0.00  0.00    -0.019 C 
ATOM      8  C   UNL     1      -3.863   1.780  -2.428  0.00  0.00    +0.008 C 
ATOM      9  C   UNL     1      -3.612   0.298  -2.386  0.00  0.00    +0.005 C 
ATOM     10  C   UNL     1      -2.540  -0.169  -1.417  0.00  0.00    +0.003 C 
ATOM     11  C   UNL     1      -2.759   0.434  -0.049  0.00  0.00    +0.000 C 
ATOM     12  C   UNL     1      -2.995   1.892   0.000  0.00  0.00    +0.003 C 
ATOM     13  C   UNL     1      -1.752   2.743   0.381  0.00  0.00    +0.049 C 
ATOM     14  C   UNL     1      -1.717  -0.050   0.956  0.00  0.00    +0.031 C 
ATOM     15  C   UNL     1      -0.337   0.084   0.386  0.00  0.00    -0.027 C 
ATOM     16  C   UNL     1      -0.086   0.053  -0.885  0.00  0.00    -0.064 C 
ATOM     17  C   UNL     1      -1.135  -0.069  -1.956  0.00  0.00    -0.008 C 
ATOM     18  C   UNL     1      -0.815  -1.328  -2.779  0.00  0.00    +0.015 C 
ATOM     19  C   UNL     1       0.616  -1.287  -3.300  0.00  0.00    +0.046 C 
ATOM     20  C   UNL     1       1.628  -1.166  -2.165  0.00  0.00    +0.180 C 
ATOM     21  C   UNL     1       1.362   0.102  -1.344  0.00  0.00    +0.075 C 
ATOM     22  C   UNL     1      -0.991   1.134  -2.884  0.00  0.00    +0.016 C 
ATOM     23  C   UNL     1      -5.078   3.042  -0.685  0.00  0.00    +0.012 C 
ENDROOT
BRANCH  20  24
ATOM     24  O   UNL     1       1.536  -2.327  -1.297  0.00  0.00    -0.461 OA
BRANCH  24  25
ATOM     25  C   UNL     1       2.666  -2.725  -0.691  0.00  0.00    +0.304 C 
ATOM     26  O   UNL     1       3.697  -2.124  -0.880  0.00  0.00    -0.251 OA
ATOM     27  C   UNL     1       2.648  -3.922   0.225  0.00  0.00    +0.136 C 
ENDBRANCH  24  25
ENDBRANCH  20  24
BRANCH   3  28
ATOM     28  C   UNL     1      -2.463   7.478  -1.183  0.00  0.00    +0.074 C 
BRANCH  28  29
ATOM     29  C   UNL     1      -3.309   8.009  -0.024  0.00  0.00    +0.012 C 
BRANCH  29  30
ATOM     30  C   UNL     1      -3.352   9.537  -0.082  0.00  0.00    +0.004 C 
ATOM     31  C   UNL     1      -1.947  10.096   0.153  0.00  0.00    +0.009 C 
BRANCH  30  32
ATOM     32  C   UNL     1      -4.298  10.062   1.000  0.00  0.00    +0.119 C 
BRANCH  32  33
ATOM     33  N   UNL     1      -4.431  11.515   0.868  0.00  0.00    -0.242 N 
ATOM     34  C   UNL     1      -5.333  12.034   0.011  0.00  0.00    +0.219 C 
ATOM     35  O   UNL     1      -6.041  11.298  -0.643  0.00  0.00    -0.275 OA
ATOM     36  C   UNL     1      -5.462  13.528  -0.134  0.00  0.00    +0.110 C 
ATOM     37  C   UNL     1      -3.653  12.333   1.603  0.00  0.00    +0.219 C 
ATOM     38  O   UNL     1      -3.703  13.533   1.433  0.00  0.00    -0.275 OA
ATOM     39  C   UNL     1      -2.720  11.757   2.637  0.00  0.00    +0.110 C 
ENDBRANCH  32  33
ENDBRANCH  30  32
ENDBRANCH  29  30
ENDBRANCH  28  29
ENDBRANCH   3  28
TORSDOF 7
