REMARK  Name = ZINC22307201
REMARK  12 active torsions:
REMARK  status: ('A' for Active; 'I' for Inactive)
REMARK    1  A    between atoms: C_1  and  C_2
REMARK    2  A    between atoms: C_3  and  C_25
REMARK    3  A    between atoms: C_4  and  C_24
REMARK    4  A    between atoms: C_7  and  C_8
REMARK    5  A    between atoms: C_8  and  O_10
REMARK    6  A    between atoms: O_10  and  C_11
REMARK    7  A    between atoms: C_11  and  C_12
REMARK    8  A    between atoms: N_14  and  C_15
REMARK    9  A    between atoms: C_25  and  O_27
REMARK   10  A    between atoms: O_27  and  C_28
REMARK   11  A    between atoms: C_28  and  C_29
REMARK   12  A    between atoms: C_28  and  C_30
REMARK                            x       y       z     vdW  Elec       q    Type
REMARK                         _______ _______ _______ _____ _____    ______ ____
ROOT
ATOM      1  C   UNL     1       4.499   8.084  -1.098  0.00  0.00    +0.356 C 
ATOM      2  O   UNL     1       5.615   7.656  -0.874  0.00  0.00    -0.243 OA
ENDROOT
BRANCH   1   9
ATOM      3  C   UNL     1       6.792  10.155  -1.525  0.00  0.00    +0.047 C 
ATOM      4  C   UNL     1       5.316  10.385  -1.726  0.00  0.00    -0.005 A 
ATOM      5  C   UNL     1       4.702  11.585  -2.148  0.00  0.00    +0.083 A 
ATOM      6  C   UNL     1       3.339  11.350  -2.191  0.00  0.00    +0.028 A 
ATOM      7  N   UNL     1       3.116  10.079  -1.823  0.00  0.00    -0.352 N 
ATOM      8  H   UNL     1       2.089   9.688  -1.790  0.00  0.00    +0.166 HD
ATOM      9  C   UNL     1       4.320   9.472  -1.537  0.00  0.00    +0.128 A 
ATOM     10  C   UNL     1       2.284  12.352  -2.584  0.00  0.00    +0.064 C 
BRANCH   5  11
ATOM     11  C   UNL     1       5.383  12.848  -2.476  0.00  0.00    +0.341 C 
ATOM     12  O   UNL     1       5.579  13.676  -1.607  0.00  0.00    -0.245 OA
BRANCH  11  13
ATOM     13  O   UNL     1       5.789  13.088  -3.739  0.00  0.00    -0.458 OA
BRANCH  13  14
ATOM     14  C   UNL     1       6.454  14.354  -3.989  0.00  0.00    +0.171 C 
ATOM     15  C   UNL     1       7.961  14.188  -3.783  0.00  0.00    +0.052 C 
ATOM     16  C   UNL     1       6.181  14.798  -5.427  0.00  0.00    +0.052 C 
ENDBRANCH  13  14
ENDBRANCH  11  13
ENDBRANCH   5  11
ENDBRANCH   1   9
BRANCH   1  17
ATOM     17  O   UNL     1       3.425   7.282  -0.944  0.00  0.00    -0.451 OA
BRANCH  17  18
ATOM     18  C   UNL     1       3.677   5.920  -0.507  0.00  0.00    +0.328 C 
BRANCH  18  19
ATOM     19  C   UNL     1       2.370   5.180  -0.392  0.00  0.00    +0.255 C 
ATOM     20  O   UNL     1       1.328   5.744  -0.651  0.00  0.00    -0.272 OA
ATOM     21  N   UNL     1       2.358   3.890   0.001  0.00  0.00    -0.280 N 
ATOM     22  H   UNL     1       3.292   3.403   0.315  0.00  0.00    +0.155 HD
BRANCH  21  23
ATOM     23  C   UNL     1       1.156   3.172   0.008  0.00  0.00    +0.071 A 
ATOM     24  C   UNL     1       0.748   2.486  -1.129  0.00  0.00    +0.065 A 
ATOM     25  C   UNL     1      -0.439   1.777  -1.118  0.00  0.00    +0.042 A 
ATOM     26  C   UNL     1      -1.223   1.755   0.021  0.00  0.00    +0.044 A 
ATOM     27  C   UNL     1      -0.817   2.433   1.157  0.00  0.00    +0.042 A 
ATOM     28  C   UNL     1       0.369   3.143   1.153  0.00  0.00    +0.065 A 
ATOM     29 CL   UNL     1       0.875   3.999   2.576  0.00  0.00    -0.082 Cl
ATOM     30 CL   UNL     1      -2.716   0.870   0.028  0.00  0.00    -0.083 Cl
ATOM     31 CL   UNL     1       1.728   2.518  -2.561  0.00  0.00    -0.082 Cl
ENDBRANCH  21  23
ENDBRANCH  18  19
ENDBRANCH  17  18
ENDBRANCH   1  17
TORSDOF 8
