REMARK  Name = ZINC34757219
REMARK  8 active torsions:
REMARK  status: ('A' for Active; 'I' for Inactive)
REMARK    1  A    between atoms: C_1  and  C_2
REMARK    2  A    between atoms: C_5  and  C_32
REMARK    3  A    between atoms: C_6  and  C_8
REMARK    4  A    between atoms: C_8  and  N_9
REMARK    5  A    between atoms: C_22  and  S_24
REMARK    6  A    between atoms: S_24  and  C_25
REMARK    7  A    between atoms: C_25  and  C_26
REMARK    8  A    between atoms: C_26  and  C_28
REMARK                            x       y       z     vdW  Elec       q    Type
REMARK                         _______ _______ _______ _____ _____    ______ ____
ROOT
ATOM      1  N   UNL     1       1.485  -3.164   2.716  0.00  0.00    +0.384 N 
ATOM      2  C   UNL     1       2.468  -2.078   2.831  0.00  0.00    -0.059 C 
ATOM      3  C   UNL     1       3.855  -2.672   3.098  0.00  0.00    +0.088 C 
ATOM      4  N   UNL     1       3.769  -3.541   4.282  0.00  0.00    -0.318 N 
ATOM      5  C   UNL     1       2.704  -4.555   4.322  0.00  0.00    +0.088 C 
ATOM      6  C   UNL     1       1.371  -3.872   3.997  0.00  0.00    -0.059 C 
ATOM      7  C   UNL     1       4.666  -3.410   5.327  0.00  0.00    +0.134 A 
ATOM      8  C   UNL     1       5.917  -4.085   5.292  0.00  0.00    +0.051 A 
ATOM      9  C   UNL     1       6.450  -4.968   4.241  0.00  0.00    -0.025 A 
ATOM     10  C   UNL     1       7.670  -5.489   4.447  0.00  0.00    -0.004 A 
ATOM     11  S   UNL     1       8.187  -4.850   6.023  0.00  0.00    -0.073 S 
ATOM     12  C   UNL     1       6.752  -3.881   6.405  0.00  0.00    +0.115 A 
ATOM     13  N   UNL     1       6.386  -3.110   7.412  0.00  0.00    -0.215 NA
ATOM     14  C   UNL     1       5.207  -2.504   7.392  0.00  0.00    +0.191 A 
ATOM     15  N   UNL     1       4.373  -2.650   6.369  0.00  0.00    -0.206 NA
ATOM     16  C   UNL     1       8.107  -6.378   3.313  0.00  0.00    +0.043 C 
ATOM     17  C   UNL     1       6.806  -6.693   2.543  0.00  0.00    +0.010 C 
ATOM     18  C   UNL     1       5.934  -5.471   2.889  0.00  0.00    +0.037 C 
ATOM     19  H   UNL     1       1.784  -3.810   2.001  0.00  0.00    -0.081 HD
ENDROOT
BRANCH   1  20
ATOM     20  C   UNL     1       0.178  -2.602   2.351  0.00  0.00    -0.043 C 
BRANCH  20  26
ATOM     21  C   UNL     1       0.641   1.450  -0.549  0.00  0.00    +0.044 C 
ATOM     22  C   UNL     1       0.484  -0.042  -0.406  0.00  0.00    -0.050 A 
ATOM     23  C   UNL     1       0.417  -0.841  -1.533  0.00  0.00    +0.003 A 
ATOM     24  C   UNL     1       0.273  -2.209  -1.402  0.00  0.00    +0.004 A 
ATOM     25  C   UNL     1       0.195  -2.779  -0.145  0.00  0.00    -0.049 A 
ATOM     26  C   UNL     1       0.263  -1.980   0.981  0.00  0.00    -0.061 A 
ATOM     27  C   UNL     1       0.412  -0.612   0.851  0.00  0.00    +0.005 A 
ATOM     28  C   UNL     1       0.037  -4.271  -0.003  0.00  0.00    +0.044 C 
ENDBRANCH  20  26
ENDBRANCH   1  20
BRANCH  14  29
ATOM     29  S   UNL     1       4.740  -1.480   8.748  0.00  0.00    -0.082 S 
BRANCH  29  30
ATOM     30  C   UNL     1       6.157  -1.573   9.877  0.00  0.00    +0.107 C 
BRANCH  30  31
ATOM     31  C   UNL     1       5.884  -0.729  11.095  0.00  0.00    -0.069 C 
ATOM     32  C   UNL     1       5.575  -1.302  12.232  0.00  0.00    +0.008 C 
ATOM     33  C   UNL     1       5.968   0.773  11.006  0.00  0.00    +0.039 C 
ENDBRANCH  30  31
ENDBRANCH  29  30
ENDBRANCH  14  29
TORSDOF 5
