REMARK  Name = ZINC40815616
REMARK  8 active torsions:
REMARK  status: ('A' for Active; 'I' for Inactive)
REMARK    1  A    between atoms: C_1  and  C_2
REMARK    2  A    between atoms: C_6  and  C_7
REMARK    3  A    between atoms: C_7  and  O_9
REMARK    4  A    between atoms: O_9  and  C_10
REMARK    5  A    between atoms: N_21  and  N_22
REMARK    6  A    between atoms: C_23  and  C_25
REMARK    7  A    between atoms: C_25  and  C_26
REMARK    8  A    between atoms: C_25  and  C_32
REMARK                            x       y       z     vdW  Elec       q    Type
REMARK                         _______ _______ _______ _____ _____    ______ ____
ROOT
ATOM      1  C   UNL     1      -0.103   0.071  -0.337  0.00  0.00    +0.048 C 
ATOM      2  C   UNL     1       0.005  -1.396  -0.665  0.00  0.00    +0.011 A 
ATOM      3  C   UNL     1       0.142  -1.964  -1.937  0.00  0.00    +0.042 A 
ATOM      4  C   UNL     1       0.201  -3.329  -1.776  0.00  0.00    +0.115 A 
ATOM      5  O   UNL     1       0.110  -3.594  -0.474  0.00  0.00    -0.452 OA
ATOM      6  C   UNL     1      -0.006  -2.439   0.220  0.00  0.00    +0.215 A 
ATOM      7  C   UNL     1       0.344  -4.286  -2.931  0.00  0.00    +0.075 C 
ATOM      8  C   UNL     1      -0.102  -3.595  -4.223  0.00  0.00    +0.014 C 
ATOM      9  C   UNL     1       0.634  -2.263  -4.404  0.00  0.00    +0.058 C 
ATOM     10  C   UNL     1       0.221  -1.333  -3.273  0.00  0.00    +0.070 C 
ATOM     11  N   UNL     1      -0.042  -0.077  -3.465  0.00  0.00    -0.184 NA
ENDROOT
BRANCH  11  12
ATOM     12  N   UNL     1       0.049   0.469  -4.753  0.00  0.00    -0.206 N 
ATOM     13  C   UNL     1      -0.224   1.773  -4.953  0.00  0.00    +0.244 C 
ATOM     14  O   UNL     1      -0.550   2.475  -4.018  0.00  0.00    -0.273 OA
ATOM     15  H   UNL     1       0.309  -0.092  -5.500  0.00  0.00    +0.177 HD
BRANCH  13  16
ATOM     16  C   UNL     1      -0.126   2.360  -6.337  0.00  0.00    +0.136 C 
BRANCH  16  17
ATOM     17  C   UNL     1      -1.081   1.643  -7.256  0.00  0.00    -0.031 A 
ATOM     18  C   UNL     1      -2.393   1.440  -6.868  0.00  0.00    +0.005 A 
ATOM     19  C   UNL     1      -3.269   0.782  -7.711  0.00  0.00    +0.000 A 
ATOM     20  C   UNL     1      -2.834   0.327  -8.941  0.00  0.00    +0.000 A 
ATOM     21  C   UNL     1      -1.523   0.530  -9.329  0.00  0.00    +0.000 A 
ATOM     22  C   UNL     1      -0.648   1.192  -8.489  0.00  0.00    +0.005 A 
ENDBRANCH  16  17
BRANCH  16  23
ATOM     23  C   UNL     1      -0.480   3.824  -6.289  0.00  0.00    -0.031 A 
ATOM     24  C   UNL     1      -1.681   4.227  -5.736  0.00  0.00    +0.005 A 
ATOM     25  C   UNL     1      -2.005   5.570  -5.691  0.00  0.00    +0.000 A 
ATOM     26  C   UNL     1      -1.128   6.510  -6.199  0.00  0.00    +0.000 A 
ATOM     27  C   UNL     1       0.073   6.107  -6.751  0.00  0.00    +0.000 A 
ATOM     28  C   UNL     1       0.400   4.765  -6.792  0.00  0.00    +0.005 A 
ENDBRANCH  16  23
ENDBRANCH  13  16
ENDBRANCH  11  12
BRANCH   6  29
ATOM     29  C   UNL     1      -0.126  -2.324   1.676  0.00  0.00    +0.380 C 
ATOM     30  O   UNL     1      -0.228  -1.228   2.194  0.00  0.00    -0.241 OA
BRANCH  29  31
ATOM     31  O   UNL     1      -0.124  -3.434   2.443  0.00  0.00    -0.420 OA
BRANCH  31  32
ATOM     32  C   UNL     1      -0.135  -3.278   3.793  0.00  0.00    +0.132 A 
ATOM     33  C   UNL     1      -1.317  -2.958   4.445  0.00  0.00    +0.049 A 
ATOM     34  C   UNL     1      -1.328  -2.799   5.817  0.00  0.00    +0.042 A 
ATOM     35  C   UNL     1      -0.159  -2.959   6.542  0.00  0.00    +0.124 A 
ATOM     36  C   UNL     1       1.022  -3.279   5.893  0.00  0.00    +0.042 A 
ATOM     37  C   UNL     1       1.034  -3.443   4.521  0.00  0.00    +0.049 A 
ATOM     38  F   UNL     1      -0.170  -2.803   7.884  0.00  0.00    -0.205 F 
ENDBRANCH  31  32
ENDBRANCH  29  31
ENDBRANCH   6  29
TORSDOF 7
