REMARK  Name = ZINC40144224
REMARK  7 active torsions:
REMARK  status: ('A' for Active; 'I' for Inactive)
REMARK    1  A    between atoms: C_1  and  C_2
REMARK    2  A    between atoms: C_5  and  C_8
REMARK    3  A    between atoms: C_8  and  C_10
REMARK    4  A    between atoms: C_8  and  N_23
REMARK    5  A    between atoms: C_10  and  C_12
REMARK    6  A    between atoms: C_10  and  C_14
REMARK    7  A    between atoms: C_24  and  N_25
REMARK                            x       y       z     vdW  Elec       q    Type
REMARK                         _______ _______ _______ _____ _____    ______ ____
ROOT
ATOM      1  C   UNL     1       0.059  -4.275  -0.021  0.00  0.00    +0.160 C 
ENDROOT
BRANCH   1   6
ATOM      2  C   UNL     1       0.070   1.503  -0.073  0.00  0.00    +0.044 C 
ATOM      3  C   UNL     1       0.067  -0.004  -0.060  0.00  0.00    -0.050 A 
ATOM      4  C   UNL     1       0.027  -0.684   1.143  0.00  0.00    +0.004 A 
ATOM      5  C   UNL     1       0.024  -2.067   1.155  0.00  0.00    +0.006 A 
ATOM      6  C   UNL     1       0.061  -2.768  -0.035  0.00  0.00    -0.021 A 
ATOM      7  C   UNL     1       0.101  -2.088  -1.238  0.00  0.00    +0.006 A 
ATOM      8  C   UNL     1       0.100  -0.706  -1.250  0.00  0.00    +0.004 A 
ENDBRANCH   1   6
BRANCH   1   9
ATOM      9  N   UNL     1       1.048  -4.756   0.947  0.00  0.00    -0.261 N 
ATOM     10  C   UNL     1       2.196  -5.446   0.653  0.00  0.00    +0.117 A 
ATOM     11  C   UNL     1       2.842  -5.710   1.827  0.00  0.00    +0.114 A 
ATOM     12  C   UNL     1       2.078  -5.173   2.873  0.00  0.00    +0.266 A 
ATOM     13  O   UNL     1       2.354  -5.223   4.060  0.00  0.00    -0.266 OA
ATOM     14  N   UNL     1       0.989  -4.587   2.337  0.00  0.00    -0.261 N 
ATOM     15  H   UNL     1       0.287  -4.131   2.827  0.00  0.00    +0.190 HD
BRANCH  10  16
ATOM     16  N   UNL     1       2.621  -5.806  -0.600  0.00  0.00    -0.343 N 
ATOM     17  H   UNL     1       2.091  -5.572  -1.378  0.00  0.00    +0.144 HD
ATOM     18  H   UNL     1       3.451  -6.295  -0.708  0.00  0.00    +0.144 HD
ENDBRANCH  10  16
ENDBRANCH   1   9
BRANCH   1  19
ATOM     19  C   UNL     1      -1.330  -4.780   0.374  0.00  0.00    +0.176 C 
BRANCH  19  20
ATOM     20  C   UNL     1      -1.332  -6.287   0.387  0.00  0.00    +0.099 A 
ATOM     21  N   UNL     1      -1.074  -7.094  -0.600  0.00  0.00    -0.243 NA
ATOM     22  C   UNL     1      -1.108  -8.435  -0.461  0.00  0.00    +0.079 A 
ATOM     23  C   UNL     1      -0.860  -9.450  -1.408  0.00  0.00    +0.029 A 
ATOM     24  C   UNL     1      -0.951 -10.762  -1.056  0.00  0.00    +0.002 A 
ATOM     25  C   UNL     1      -1.286 -11.148   0.235  0.00  0.00    +0.001 A 
ATOM     26  C   UNL     1      -1.536 -10.181   1.191  0.00  0.00    +0.017 A 
ATOM     27  C   UNL     1      -1.447  -8.854   0.846  0.00  0.00    +0.039 A 
ATOM     28  S   UNL     1      -1.661  -7.307   1.685  0.00  0.00    -0.071 S 
ENDBRANCH  19  20
BRANCH  19  29
ATOM     29  C   UNL     1      -2.323  -4.297  -0.599  0.00  0.00    +0.075 C 
ATOM     30  N   UNL     1      -3.089  -3.924  -1.350  0.00  0.00    -0.196 NA
ENDBRANCH  19  29
ENDBRANCH   1  19
TORSDOF 6
