REMARK  Name = ZINC20558679
REMARK  7 active torsions:
REMARK  status: ('A' for Active; 'I' for Inactive)
REMARK    1  A    between atoms: C_1  and  C_2
REMARK    2  A    between atoms: C_7  and  C_8
REMARK    3  A    between atoms: C_8  and  N_9
REMARK    4  A    between atoms: C_21  and  C_29
REMARK    5  A    between atoms: C_23  and  C_27
REMARK    6  A    between atoms: C_24  and  N_26
REMARK    7  A    between atoms: C_32  and  O_35
REMARK                            x       y       z     vdW  Elec       q    Type
REMARK                         _______ _______ _______ _____ _____    ______ ____
ROOT
ATOM      1  N   UNL     1      -3.386   1.687   3.969  0.00  0.00    -0.198 N 
ATOM      2  C   UNL     1      -4.578   2.379   3.720  0.00  0.00    +0.062 A 
ATOM      3  C   UNL     1      -5.316   2.846   4.800  0.00  0.00    +0.025 A 
ATOM      4  C   UNL     1      -6.505   3.516   4.589  0.00  0.00    +0.002 A 
ATOM      5  C   UNL     1      -6.965   3.724   3.299  0.00  0.00    +0.001 A 
ATOM      6  C   UNL     1      -6.239   3.269   2.220  0.00  0.00    +0.013 A 
ATOM      7  C   UNL     1      -5.030   2.591   2.417  0.00  0.00    +0.042 A 
ATOM      8  C   UNL     1      -4.290   2.133   1.217  0.00  0.00    +0.162 C 
ATOM      9  C   UNL     1      -3.339   1.207   1.293  0.00  0.00    +0.141 C 
ATOM     10  S   UNL     1      -2.950   0.512   2.873  0.00  0.00    +0.076 S 
ATOM     11  O   UNL     1      -1.536   0.389   2.937  0.00  0.00    -0.150 OA
ATOM     12  O   UNL     1      -3.828  -0.588   3.072  0.00  0.00    -0.150 OA
ATOM     13  C   UNL     1      -2.590   0.739   0.077  0.00  0.00    +0.118 C 
ATOM     14  C   UNL     1      -3.340   1.114  -1.171  0.00  0.00    +0.099 C 
ATOM     15  C   UNL     1      -4.307   2.066  -1.127  0.00  0.00    +0.199 C 
ATOM     16  O   UNL     1      -4.615   2.692   0.020  0.00  0.00    -0.439 OA
ENDROOT
BRANCH  13  17
ATOM     17  C   UNL     1      -1.227   1.380   0.053  0.00  0.00    -0.033 A 
ATOM     18  C   UNL     1      -0.092   0.591   0.090  0.00  0.00    +0.008 A 
ATOM     19  C   UNL     1       1.159   1.177   0.062  0.00  0.00    +0.046 A 
ATOM     20  C   UNL     1       1.276   2.558   0.002  0.00  0.00    +0.117 A 
ATOM     21  C   UNL     1       0.136   3.348  -0.030  0.00  0.00    +0.046 A 
ATOM     22  C   UNL     1      -1.113   2.757  -0.001  0.00  0.00    +0.008 A 
BRANCH  20  23
ATOM     23  O   UNL     1       2.506   3.136  -0.027  0.00  0.00    -0.507 OA
ATOM     24  H   UNL     1       2.597   4.231  -0.074  0.00  0.00    +0.292 HD
ENDBRANCH  20  23
ENDBRANCH  13  17
BRANCH  15  25
ATOM     25  N   UNL     1      -4.983   2.393  -2.276  0.00  0.00    -0.328 N 
ATOM     26  H   UNL     1      -5.769   3.162  -2.251  0.00  0.00    +0.145 HD
ATOM     27  H   UNL     1      -4.740   1.886  -3.221  0.00  0.00    +0.145 HD
ENDBRANCH  15  25
BRANCH  14  28
ATOM     28  C   UNL     1      -3.033   0.466  -2.411  0.00  0.00    +0.101 C 
ATOM     29  N   UNL     1      -2.790  -0.048  -3.394  0.00  0.00    -0.191 NA
ENDBRANCH  14  28
BRANCH   1  30
ATOM     30  C   UNL     1      -2.561   1.984   5.143  0.00  0.00    +0.167 C 
BRANCH  30  37
ATOM     31  C   UNL     1      -1.427   2.421   7.764  0.00  0.00    +0.044 C 
ATOM     32  C   UNL     1      -2.515   1.395   7.575  0.00  0.00    -0.046 A 
ATOM     33  C   UNL     1      -2.971   0.664   8.656  0.00  0.00    +0.003 A 
ATOM     34  C   UNL     1      -3.970  -0.276   8.483  0.00  0.00    +0.000 A 
ATOM     35  C   UNL     1      -4.512  -0.485   7.228  0.00  0.00    +0.000 A 
ATOM     36  C   UNL     1      -4.060   0.249   6.149  0.00  0.00    +0.005 A 
ATOM     37  C   UNL     1      -3.058   1.186   6.321  0.00  0.00    -0.025 A 
ENDBRANCH  30  37
ENDBRANCH   1  30
TORSDOF 6
