REMARK  Name = ZINC03841354
REMARK  5 active torsions:
REMARK  status: ('A' for Active; 'I' for Inactive)
REMARK    1  A    between atoms: C_4  and  S_7
REMARK    2  A    between atoms: S_7  and  N_10
REMARK    3  A    between atoms: N_10  and  C_11
REMARK    4  A    between atoms: C_26  and  C_27
REMARK    5  A    between atoms: C_26  and  N_62
REMARK                            x       y       z     vdW  Elec       q    Type
REMARK                         _______ _______ _______ _____ _____    ______ ____
ROOT
ATOM      1  C   UNL     1      -1.074   1.391  -0.848  0.00  0.00    +0.112 A 
ATOM      2  C   UNL     1      -0.827   2.498  -1.613  0.00  0.00    +0.031 A 
ATOM      3  C   UNL     1       0.432   3.107  -1.536  0.00  0.00    +0.023 A 
ATOM      4  C   UNL     1       1.395   2.599  -0.726  0.00  0.00    +0.023 A 
ATOM      5  N   UNL     1       1.183   1.453  -0.033  0.00  0.00    -0.310 N 
ATOM      6  C   UNL     1      -0.051   0.891  -0.018  0.00  0.00    +0.274 A 
ATOM      7  O   UNL     1      -0.276  -0.057   0.717  0.00  0.00    -0.266 OA
ATOM      8  C   UNL     1       2.248   0.739   0.673  0.00  0.00    +0.127 C 
ATOM      9  C   UNL     1       3.430   1.639   0.993  0.00  0.00    -0.007 C 
ATOM     10  C   UNL     1       3.826   2.425  -0.260  0.00  0.00    +0.011 C 
ATOM     11  C   UNL     1       2.679   3.387  -0.587  0.00  0.00    +0.020 C 
ATOM     12  C   UNL     1       2.507   4.346   0.602  0.00  0.00    -0.069 C 
ATOM     13  C   UNL     1       3.124   2.584   2.146  0.00  0.00    -0.074 C 
ATOM     14  N   UNL     1       2.066   3.542   1.764  0.00  0.00    +0.381 N 
ATOM     15  H   UNL     1       1.221   3.019   1.505  0.00  0.00    -0.082 HD
ENDROOT
BRANCH   1  16
ATOM     16  N   UNL     1      -2.327   0.767  -0.884  0.00  0.00    -0.211 N 
ATOM     17  H   UNL     1      -2.474  -0.055  -0.391  0.00  0.00    +0.174 HD
BRANCH  16  18
ATOM     18  S   UNL     1      -3.558   1.433  -1.769  0.00  0.00    +0.072 S 
ATOM     19  O   UNL     1      -3.009   1.778  -3.034  0.00  0.00    -0.150 OA
ATOM     20  O   UNL     1      -4.673   0.562  -1.634  0.00  0.00    -0.150 OA
BRANCH  18  24
ATOM     21  C   UNL     1      -4.704   5.322   0.246  0.00  0.00    +0.000 A 
ATOM     22  C   UNL     1      -3.810   5.327  -0.809  0.00  0.00    +0.002 A 
ATOM     23  C   UNL     1      -3.460   4.139  -1.424  0.00  0.00    +0.029 A 
ATOM     24  C   UNL     1      -4.004   2.947  -0.985  0.00  0.00    +0.108 A 
ATOM     25  C   UNL     1      -4.902   2.942   0.066  0.00  0.00    +0.029 A 
ATOM     26  C   UNL     1      -5.247   4.129   0.685  0.00  0.00    +0.002 A 
ENDBRANCH  18  24
ENDBRANCH  16  18
ENDBRANCH   1  16
BRANCH  14  27
ATOM     27  C   UNL     1       1.752   4.427   2.902  0.00  0.00    -0.075 C 
BRANCH  27  28
ATOM     28  C   UNL     1       3.007   5.168   3.370  0.00  0.00    -0.028 C 
ATOM     29  C   UNL     1       2.933   5.391   4.882  0.00  0.00    +0.002 C 
ATOM     30  C   UNL     1       4.188   6.131   5.350  0.00  0.00    +0.000 C 
ATOM     31  C   UNL     1       4.277   7.483   4.639  0.00  0.00    +0.000 C 
ATOM     32  C   UNL     1       4.351   7.259   3.127  0.00  0.00    +0.000 C 
ATOM     33  C   UNL     1       3.096   6.519   2.659  0.00  0.00    +0.002 C 
ENDBRANCH  27  28
ENDBRANCH  14  27
TORSDOF 5
