REMARK  Name = ZINC15946035
REMARK  12 active torsions:
REMARK  status: ('A' for Active; 'I' for Inactive)
REMARK    1  A    between atoms: C_1  and  C_2
REMARK    2  A    between atoms: C_2  and  C_3
REMARK    3  A    between atoms: C_2  and  C_4
REMARK    4  A    between atoms: C_2  and  C_5
REMARK    5  A    between atoms: C_12  and  N_27
REMARK    6  A    between atoms: C_13  and  C_14
REMARK    7  A    between atoms: N_16  and  C_17
REMARK    8  A    between atoms: C_22  and  C_23
REMARK    9  A    between atoms: C_23  and  O_25
REMARK   10  A    between atoms: O_25  and  C_26
REMARK   11  A    between atoms: C_28  and  C_30
REMARK   12  A    between atoms: C_30  and  N_73
REMARK                            x       y       z     vdW  Elec       q    Type
REMARK                         _______ _______ _______ _____ _____    ______ ____
ROOT
ATOM      1  C   UNL     1      -1.708   4.930  10.039  0.00  0.00    -0.000 C 
ATOM      2  C   UNL     1      -1.456   3.534  10.617  0.00  0.00    +0.009 C 
ATOM      3  C   UNL     1      -0.353   2.834   9.821  0.00  0.00    +0.037 C 
ATOM      4  C   UNL     1      -0.709   2.885   8.340  0.00  0.00    -0.023 A 
ATOM      5  C   UNL     1      -1.617   3.768   7.873  0.00  0.00    -0.004 A 
ATOM      6  S   UNL     1      -1.696   3.459   6.132  0.00  0.00    -0.077 S 
ATOM      7  C   UNL     1      -0.539   2.174   6.024  0.00  0.00    +0.084 A 
ATOM      8  C   UNL     1      -0.124   2.011   7.338  0.00  0.00    +0.069 A 
ATOM      9  C   UNL     1      -2.381   4.783   8.667  0.00  0.00    +0.046 C 
ENDROOT
BRANCH   1  11
ATOM     10  C   UNL     1      -1.960   5.845  12.351  0.00  0.00    +0.011 C 
ATOM     11  C   UNL     1      -2.626   5.716  10.979  0.00  0.00    -0.035 C 
ATOM     12  C   UNL     1      -2.876   7.109  10.399  0.00  0.00    +0.011 C 
ATOM     13  C   UNL     1      -3.958   4.978  11.126  0.00  0.00    +0.011 C 
ENDBRANCH   1  11
BRANCH   8  14
ATOM     14  C   UNL     1       0.872   0.997   7.701  0.00  0.00    +0.251 C 
ATOM     15  O   UNL     1       2.056   1.278   7.695  0.00  0.00    -0.270 OA
ATOM     16  N   UNL     1       0.475  -0.245   8.040  0.00  0.00    -0.281 N 
ATOM     17  H   UNL     1      -0.460  -0.493   7.968  0.00  0.00    +0.155 HD
BRANCH  16  18
ATOM     18  C   UNL     1       1.408  -1.173   8.494  0.00  0.00    +0.048 A 
ATOM     19  C   UNL     1       2.583  -0.744   9.097  0.00  0.00    +0.024 A 
ATOM     20  C   UNL     1       3.504  -1.667   9.551  0.00  0.00    +0.002 A 
ATOM     21  C   UNL     1       3.271  -3.024   9.399  0.00  0.00    +0.001 A 
ATOM     22  C   UNL     1       2.113  -3.469   8.799  0.00  0.00    +0.017 A 
ATOM     23  C   UNL     1       1.168  -2.547   8.339  0.00  0.00    +0.080 A 
BRANCH  23  24
ATOM     24  C   UNL     1      -0.072  -3.016   7.696  0.00  0.00    +0.341 C 
ATOM     25  O   UNL     1      -0.842  -2.214   7.205  0.00  0.00    -0.245 OA
BRANCH  24  26
ATOM     26  O   UNL     1      -0.352  -4.333   7.651  0.00  0.00    -0.464 OA
ATOM     27  C   UNL     1      -1.591  -4.722   7.002  0.00  0.00    +0.280 C 
ENDBRANCH  24  26
ENDBRANCH  23  24
ENDBRANCH  16  18
ENDBRANCH   8  14
BRANCH   7  28
ATOM     28  N   UNL     1      -0.131   1.474   4.898  0.00  0.00    -0.281 N 
ATOM     29  C   UNL     1      -0.655   1.772   3.693  0.00  0.00    +0.201 C 
ATOM     30  O   UNL     1      -1.484   2.652   3.593  0.00  0.00    -0.278 OA
ATOM     31  H   UNL     1       0.531   0.770   4.978  0.00  0.00    +0.155 HD
BRANCH  29  32
ATOM     32  C   UNL     1      -0.212   1.012   2.470  0.00  0.00    +0.019 C 
BRANCH  32  38
ATOM     33  C   UNL     1      -2.302   1.352   1.296  0.00  0.00    -0.078 C 
ATOM     34  C   UNL     1      -2.952   2.085   0.120  0.00  0.00    -0.019 C 
ATOM     35  C   UNL     1      -2.350   1.572  -1.191  0.00  0.00    -0.004 C 
ATOM     36  C   UNL     1      -0.834   1.782  -1.163  0.00  0.00    -0.019 C 
ATOM     37  C   UNL     1      -0.245   1.058   0.049  0.00  0.00    -0.078 C 
ATOM     38  N   UNL     1      -0.847   1.615   1.279  0.00  0.00    +0.385 N 
ATOM     39  H   UNL     1      -0.692   2.629   1.296  0.00  0.00    -0.081 HD
ENDBRANCH  32  38
ENDBRANCH  29  32
ENDBRANCH   7  28
TORSDOF 8
