REMARK  Name = ZINC03227646
REMARK  5 active torsions:
REMARK  status: ('A' for Active; 'I' for Inactive)
REMARK    1  A    between atoms: C_1  and  O_2
REMARK    2  A    between atoms: O_2  and  C_3
REMARK    3  A    between atoms: N_5  and  N_6
REMARK    4  A    between atoms: N_6  and  C_7
REMARK    5  A    between atoms: C_7  and  C_9
REMARK                            x       y       z     vdW  Elec       q    Type
REMARK                         _______ _______ _______ _____ _____    ______ ____
ROOT
ATOM      1  C   UNL     1      -4.241   6.715   1.383  0.00  0.00    -0.001 A 
ATOM      2  C   UNL     1      -3.215   7.658   1.429  0.00  0.00    +0.011 A 
ATOM      3  C   UNL     1      -1.945   7.310   1.016  0.00  0.00    +0.017 A 
ATOM      4  C   UNL     1      -1.685   6.026   0.554  0.00  0.00    +0.034 A 
ATOM      5  C   UNL     1      -2.705   5.078   0.499  0.00  0.00    +0.046 A 
ATOM      6  C   UNL     1      -3.982   5.427   0.917  0.00  0.00    +0.034 A 
ATOM      7  N   UNL     1      -2.484   3.783   0.035  0.00  0.00    -0.313 N 
ATOM      8  C   UNL     1      -1.250   3.139   0.029  0.00  0.00    +0.045 A 
ATOM      9  C   UNL     1      -1.220   1.748   0.017  0.00  0.00    +0.024 A 
ATOM     10  C   UNL     1      -0.013   1.076   0.008  0.00  0.00    +0.002 A 
ATOM     11  C   UNL     1       1.176   1.781   0.000  0.00  0.00    +0.001 A 
ATOM     12  C   UNL     1       1.158   3.163   0.008  0.00  0.00    +0.017 A 
ATOM     13  C   UNL     1      -0.050   3.845   0.024  0.00  0.00    +0.034 A 
ATOM     14  S   UNL     1      -0.052   5.606   0.041  0.00  0.00    -0.086 S 
ATOM     15  H   UNL     1      -3.247   3.294  -0.309  0.00  0.00    +0.152 HD
ENDROOT
BRANCH   1  16
ATOM     16  C   UNL     1      -5.604   7.082   1.828  0.00  0.00    +0.045 C 
ATOM     17  C   UNL     1      -6.586   6.180   1.784  0.00  0.00    +0.035 C 
BRANCH  16  18
ATOM     18  N   UNL     1      -5.863   8.372   2.295  0.00  0.00    -0.262 N 
ATOM     19  H   UNL     1      -5.149   9.028   2.327  0.00  0.00    +0.170 HD
BRANCH  18  22
ATOM     20  C   UNL     1      -7.402   9.964   3.167  0.00  0.00    +0.416 C 
ATOM     21  O   UNL     1      -8.521  10.266   3.532  0.00  0.00    -0.225 OA
ATOM     22  N   UNL     1      -7.153   8.719   2.716  0.00  0.00    -0.202 N 
ATOM     23  H   UNL     1      -7.867   8.063   2.684  0.00  0.00    +0.176 HD
BRANCH  20  25
ATOM     24  C   UNL     1      -6.752  12.196   3.708  0.00  0.00    +0.282 C 
ATOM     25  O   UNL     1      -6.411  10.875   3.212  0.00  0.00    -0.453 OA
ENDBRANCH  20  25
ENDBRANCH  18  22
ENDBRANCH  16  18
ENDBRANCH   1  16
TORSDOF 4
