REMARK  Name = ZINC04200854
REMARK  10 active torsions:
REMARK  status: ('A' for Active; 'I' for Inactive)
REMARK    1  A    between atoms: C_1  and  S_2
REMARK    2  A    between atoms: S_2  and  C_3
REMARK    3  A    between atoms: C_7  and  N_9
REMARK    4  A    between atoms: N_12  and  C_13
REMARK    5  A    between atoms: C_16  and  C_25
REMARK    6  A    between atoms: C_20  and  C_22
REMARK    7  A    between atoms: N_27  and  C_28
REMARK    8  A    between atoms: C_28  and  C_30
REMARK    9  A    between atoms: C_28  and  C_36
REMARK   10  A    between atoms: C_30  and  C_31
REMARK                            x       y       z     vdW  Elec       q    Type
REMARK                         _______ _______ _______ _____ _____    ______ ____
ROOT
ATOM      1  C   UNL     1      -4.203   3.007   3.663  0.00  0.00    +0.094 C 
ATOM      2  C   UNL     1      -5.107   1.749   3.574  0.00  0.00    +0.055 C 
ATOM      3  C   UNL     1      -4.187   0.707   2.904  0.00  0.00    +0.164 C 
ATOM      4  N   UNL     1      -3.136   1.447   2.190  0.00  0.00    -0.288 N 
ATOM      5  C   UNL     1      -3.380   2.892   2.356  0.00  0.00    +0.131 C 
ATOM      6  C   UNL     1      -2.122   0.897   1.494  0.00  0.00    +0.219 C 
ATOM      7  O   UNL     1      -2.019  -0.310   1.423  0.00  0.00    -0.275 OA
ENDROOT
BRANCH   1  11
ATOM      8  N   UNL     1      -5.212   6.514   4.118  0.00  0.00    -0.269 N 
ATOM      9  C   UNL     1      -4.472   5.387   4.111  0.00  0.00    +0.304 C 
ATOM     10  O   UNL     1      -3.321   5.413   4.504  0.00  0.00    -0.253 OA
ATOM     11  N   UNL     1      -5.008   4.232   3.670  0.00  0.00    -0.295 N 
ATOM     12  H   UNL     1      -6.107   6.508   3.744  0.00  0.00    +0.156 HD
ATOM     13  H   UNL     1      -5.925   4.211   3.357  0.00  0.00    +0.151 HD
BRANCH   8  18
ATOM     14  C   UNL     1      -2.824   9.145   5.081  0.00  0.00    +0.009 A 
ATOM     15  C   UNL     1      -3.664  10.025   5.753  0.00  0.00    +0.015 A 
ATOM     16  C   UNL     1      -5.009   9.737   5.880  0.00  0.00    +0.003 A 
ATOM     17  C   UNL     1      -5.524   8.577   5.334  0.00  0.00    +0.023 A 
ATOM     18  C   UNL     1      -4.689   7.691   4.665  0.00  0.00    +0.036 A 
ATOM     19  C   UNL     1      -3.338   7.976   4.536  0.00  0.00    +0.038 A 
BRANCH  14  21
ATOM     20  C   UNL     1      -0.918  11.104   5.770  0.00  0.00    +0.090 C 
ATOM     21  S   UNL     1      -1.108   9.513   4.920  0.00  0.00    -0.129 S 
ENDBRANCH  14  21
ENDBRANCH   8  18
ENDBRANCH   1  11
BRANCH   3  22
ATOM     22  C   UNL     1      -4.977  -0.128   1.930  0.00  0.00    +0.234 C 
ATOM     23  O   UNL     1      -4.697  -0.112   0.750  0.00  0.00    -0.274 OA
ATOM     24  N   UNL     1      -5.996  -0.893   2.370  0.00  0.00    -0.302 N 
ATOM     25  H   UNL     1      -6.221  -0.905   3.314  0.00  0.00    +0.150 HD
BRANCH  24  26
ATOM     26  C   UNL     1      -6.765  -1.705   1.424  0.00  0.00    +0.163 C 
BRANCH  26  27
ATOM     27  C   UNL     1      -7.853  -0.863   0.808  0.00  0.00    +0.231 C 
ATOM     28  O   UNL     1      -7.974   0.300   1.128  0.00  0.00    -0.274 OA
ATOM     29  N   UNL     1      -8.691  -1.403  -0.099  0.00  0.00    -0.328 N 
ATOM     30  H   UNL     1      -8.594  -2.334  -0.355  0.00  0.00    +0.145 HD
ATOM     31  H   UNL     1      -9.392  -0.861  -0.495  0.00  0.00    +0.145 HD
ENDBRANCH  26  27
BRANCH  26  32
ATOM     32  C   UNL     1      -7.392  -2.890   2.160  0.00  0.00    +0.074 C 
BRANCH  32  33
ATOM     33  C   UNL     1      -6.303  -3.797   2.671  0.00  0.00    -0.008 A 
ATOM     34  C   UNL     1      -5.655  -3.768   3.861  0.00  0.00    +0.011 A 
ATOM     35  C   UNL     1      -4.679  -4.712   4.117  0.00  0.00    +0.008 A 
ATOM     36  C   UNL     1      -4.398  -5.640   3.170  0.00  0.00    +0.045 A 
ATOM     37  S   UNL     1      -5.536  -5.196   1.868  0.00  0.00    -0.102 S 
ENDBRANCH  32  33
ENDBRANCH  26  32
ENDBRANCH  24  26
ENDBRANCH   3  22
BRANCH   6  38
ATOM     38  C   UNL     1      -1.115   1.780   0.802  0.00  0.00    +0.075 C 
ATOM     39  C   UNL     1       0.012   1.095   0.028  0.00  0.00    +0.013 C 
ATOM     40  C   UNL     1      -1.119   1.793  -0.728  0.00  0.00    +0.013 C 
ENDBRANCH   6  38
TORSDOF 9
