REMARK  Name = ZINC11582509
REMARK  16 active torsions:
REMARK  status: ('A' for Active; 'I' for Inactive)
REMARK    1  A    between atoms: C_1  and  C_2
REMARK    2  A    between atoms: C_6  and  C_41
REMARK    3  A    between atoms: C_8  and  O_11
REMARK    4  A    between atoms: O_11  and  C_12
REMARK    5  A    between atoms: C_12  and  C_14
REMARK    6  A    between atoms: C_14  and  N_15
REMARK    7  A    between atoms: N_17  and  C_24
REMARK    8  A    between atoms: C_24  and  C_25
REMARK    9  A    between atoms: C_25  and  O_27
REMARK   10  A    between atoms: O_27  and  C_28
REMARK   11  A    between atoms: C_31  and  C_40
REMARK   12  A    between atoms: C_35  and  C_37
REMARK   13  A    between atoms: C_37  and  C_38
REMARK   14  A    between atoms: C_37  and  C_39
REMARK   15  A    between atoms: C_41  and  C_42
REMARK   16  A    between atoms: C_41  and  C_43
REMARK                            x       y       z     vdW  Elec       q    Type
REMARK                         _______ _______ _______ _____ _____    ______ ____
ROOT
ATOM      1  N   UNL     1      -2.078   1.643  -2.886  0.00  0.00    -0.321 N 
ATOM      2  C   UNL     1      -1.618   0.901  -1.843  0.00  0.00    +0.178 A 
ATOM      3  N   UNL     1      -0.721   1.571  -1.179  0.00  0.00    -0.321 N 
ATOM      4  C   UNL     1      -0.538   2.786  -1.757  0.00  0.00    +0.067 A 
ATOM      5  C   UNL     1      -1.406   2.849  -2.860  0.00  0.00    +0.067 A 
ATOM      6  C   UNL     1      -1.437   3.990  -3.651  0.00  0.00    +0.028 A 
ATOM      7  C   UNL     1      -0.613   5.053  -3.347  0.00  0.00    +0.002 A 
ATOM      8  C   UNL     1       0.244   4.990  -2.258  0.00  0.00    +0.002 A 
ATOM      9  C   UNL     1       0.287   3.876  -1.469  0.00  0.00    +0.028 A 
ENDROOT
BRANCH   1  10
ATOM     10  C   UNL     1      -3.094   1.236  -3.860  0.00  0.00    +0.243 C 
BRANCH  10  11
ATOM     11  C   UNL     1      -2.420   0.659  -5.078  0.00  0.00    +0.327 C 
ATOM     12  O   UNL     1      -1.214   0.595  -5.128  0.00  0.00    -0.249 OA
BRANCH  11  13
ATOM     13  O   UNL     1      -3.159   0.217  -6.107  0.00  0.00    -0.460 OA
BRANCH  13  19
ATOM     14  C   UNL     1      -3.389  -4.022  -6.733  0.00  0.00    +0.007 C 
ATOM     15  C   UNL     1      -3.595  -2.519  -6.929  0.00  0.00    -0.011 C 
ATOM     16  C   UNL     1      -4.407  -2.277  -8.203  0.00  0.00    +0.004 C 
ATOM     17  C   UNL     1      -4.614  -0.774  -8.399  0.00  0.00    +0.007 C 
ATOM     18  C   UNL     1      -3.254  -0.084  -8.522  0.00  0.00    +0.032 C 
ATOM     19  C   UNL     1      -2.442  -0.326  -7.248  0.00  0.00    +0.180 C 
ATOM     20  C   UNL     1      -2.236  -1.829  -7.052  0.00  0.00    +0.048 C 
BRANCH  18  21
ATOM     21  C   UNL     1      -3.460   1.419  -8.718  0.00  0.00    -0.011 C 
ATOM     22  C   UNL     1      -2.100   2.109  -8.841  0.00  0.00    +0.007 C 
ATOM     23  C   UNL     1      -4.272   1.661  -9.992  0.00  0.00    +0.007 C 
ENDBRANCH  18  21
ENDBRANCH  13  19
ENDBRANCH  11  13
ENDBRANCH  10  11
ENDBRANCH   1  10
BRANCH   3  24
ATOM     24  C   UNL     1      -0.013   1.086   0.008  0.00  0.00    +0.243 C 
BRANCH  24  25
ATOM     25  C   UNL     1      -0.718   1.572   1.248  0.00  0.00    +0.327 C 
ATOM     26  O   UNL     1      -1.711   2.254   1.150  0.00  0.00    -0.249 OA
BRANCH  25  27
ATOM     27  O   UNL     1      -0.243   1.247   2.461  0.00  0.00    -0.460 OA
BRANCH  27  28
ATOM     28  C   UNL     1      -0.974   1.750   3.611  0.00  0.00    +0.180 C 
ATOM     29  C   UNL     1      -0.413   3.116   4.013  0.00  0.00    +0.048 C 
ATOM     30  C   UNL     1       1.067   2.974   4.371  0.00  0.00    -0.011 C 
ATOM     31  C   UNL     1       1.218   1.997   5.539  0.00  0.00    +0.004 C 
ATOM     32  C   UNL     1       0.658   0.631   5.136  0.00  0.00    +0.007 C 
ATOM     33  C   UNL     1      -0.823   0.773   4.778  0.00  0.00    +0.032 C 
ATOM     34  C   UNL     1       1.627   4.340   4.774  0.00  0.00    +0.007 C 
BRANCH  33  35
ATOM     35  C   UNL     1      -1.383  -0.593   4.376  0.00  0.00    -0.011 C 
ATOM     36  C   UNL     1      -1.232  -1.570   5.543  0.00  0.00    +0.007 C 
ATOM     37  C   UNL     1      -2.864  -0.451   4.017  0.00  0.00    +0.007 C 
ENDBRANCH  33  35
ENDBRANCH  27  28
ENDBRANCH  25  27
ENDBRANCH  24  25
ENDBRANCH   3  24
TORSDOF 10
