REMARK  Name = ZINC12980777
REMARK  8 active torsions:
REMARK  status: ('A' for Active; 'I' for Inactive)
REMARK    1  A    between atoms: C_1  and  C_2
REMARK    2  A    between atoms: C_2  and  C_4
REMARK    3  A    between atoms: C_2  and  N_11
REMARK    4  A    between atoms: C_12  and  C_14
REMARK    5  A    between atoms: C_14  and  C_16
REMARK    6  A    between atoms: C_14  and  S_17
REMARK    7  A    between atoms: S_17  and  C_18
REMARK    8  A    between atoms: C_24  and  C_28
REMARK                            x       y       z     vdW  Elec       q    Type
REMARK                         _______ _______ _______ _____ _____    ______ ____
ROOT
ATOM      1  C   UNL     1       6.074  -1.842  -0.065  0.00  0.00    +0.137 C 
ATOM      2  C   UNL     1       6.529  -1.190   1.242  0.00  0.00    +0.029 C 
ENDROOT
BRANCH   1   4
ATOM      3  N   UNL     1       7.992  -3.296  -0.636  0.00  0.00    -0.308 N 
ATOM      4  C   UNL     1       6.719  -3.196  -0.202  0.00  0.00    +0.227 C 
ATOM      5  O   UNL     1       6.094  -4.197   0.077  0.00  0.00    -0.275 OA
ATOM      6  H   UNL     1       8.492  -2.495  -0.859  0.00  0.00    +0.149 HD
BRANCH   3   8
ATOM      7  C   UNL     1       9.201  -5.040   0.580  0.00  0.00    +0.033 C 
ATOM      8  C   UNL     1       8.620  -4.612  -0.769  0.00  0.00    +0.100 C 
BRANCH   8   9
ATOM      9  C   UNL     1       9.724  -4.541  -1.792  0.00  0.00    -0.027 A 
ATOM     10  C   UNL     1      10.549  -3.433  -1.841  0.00  0.00    +0.008 A 
ATOM     11  C   UNL     1      11.566  -3.368  -2.775  0.00  0.00    +0.038 A 
ATOM     12  C   UNL     1      11.751  -4.409  -3.669  0.00  0.00    +0.123 A 
ATOM     13  C   UNL     1      10.920  -5.516  -3.623  0.00  0.00    +0.038 A 
ATOM     14  C   UNL     1       9.908  -5.581  -2.684  0.00  0.00    +0.008 A 
ATOM     15  F   UNL     1      12.741  -4.345  -4.586  0.00  0.00    -0.205 F 
ENDBRANCH   8   9
ENDBRANCH   3   8
ENDBRANCH   1   4
BRANCH   1  16
ATOM     16  S   UNL     1       4.269  -2.031  -0.050  0.00  0.00    -0.073 S 
BRANCH  16  17
ATOM     17  C   UNL     1       3.668  -0.375  -0.035  0.00  0.00    +0.197 A 
ATOM     18  N   UNL     1       4.396   0.719  -0.035  0.00  0.00    -0.122 NA
ATOM     19  N   UNL     1       3.640   1.759  -0.023  0.00  0.00    -0.127 NA
ATOM     20  C   UNL     1       2.373   1.388  -0.013  0.00  0.00    +0.180 A 
ATOM     21  N   UNL     1       2.359   0.009  -0.020  0.00  0.00    -0.276 N 
ATOM     22  C   UNL     1       1.173  -0.671  -0.013  0.00  0.00    +0.107 A 
ATOM     23  C   UNL     1       0.002  -0.004   0.002  0.00  0.00    +0.073 A 
ATOM     24  C   UNL     1      -0.017   1.403   0.010  0.00  0.00    +0.037 A 
ATOM     25  C   UNL     1       1.153   2.096   0.002  0.00  0.00    +0.086 A 
ATOM     26 CL   UNL     1       1.146   3.832   0.011  0.00  0.00    -0.080 Cl
BRANCH  23  27
ATOM     27  C   UNL     1      -1.296  -0.770   0.010  0.00  0.00    +0.419 C 
ATOM     28  F   UNL     1      -2.368   0.129   0.025  0.00  0.00    -0.166 F 
ATOM     29  F   UNL     1      -1.373  -1.569  -1.136  0.00  0.00    -0.166 F 
ATOM     30  F   UNL     1      -1.351  -1.581   1.148  0.00  0.00    -0.166 F 
ENDBRANCH  23  27
ENDBRANCH  16  17
ENDBRANCH   1  16
TORSDOF 6
