REMARK  Name = ZINC01243860
REMARK  10 active torsions:
REMARK  status: ('A' for Active; 'I' for Inactive)
REMARK    1  A    between atoms: C_1  and  C_2
REMARK    2  A    between atoms: C_2  and  O_3
REMARK    3  A    between atoms: O_3  and  C_4
REMARK    4  A    between atoms: C_4  and  C_6
REMARK    5  A    between atoms: C_10  and  N_11
REMARK    6  A    between atoms: C_12  and  C_14
REMARK    7  A    between atoms: C_14  and  C_28
REMARK    8  A    between atoms: C_15  and  C_16
REMARK    9  A    between atoms: C_19  and  C_21
REMARK   10  A    between atoms: C_31  and  C_35
REMARK                            x       y       z     vdW  Elec       q    Type
REMARK                         _______ _______ _______ _____ _____    ______ ____
ROOT
ATOM      1  N   UNL     1      -1.118   2.574   0.022  0.00  0.00    -0.275 N 
ATOM      2  C   UNL     1      -2.364   2.061   0.026  0.00  0.00    +0.259 C 
ATOM      3  O   UNL     1      -2.526   0.855   0.020  0.00  0.00    -0.269 OA
ATOM      4  H   UNL     1      -0.989   3.535   0.026  0.00  0.00    +0.156 HD
ENDROOT
BRANCH   1   9
ATOM      5  C   UNL     1       1.327   2.063   0.001  0.00  0.00    +0.091 A 
ATOM      6  C   UNL     1       2.288   0.973  -0.015  0.00  0.00    -0.021 A 
ATOM      7  C   UNL     1       1.753  -0.267  -0.016  0.00  0.00    -0.004 A 
ATOM      8  S   UNL     1       0.002  -0.004   0.002  0.00  0.00    -0.077 S 
ATOM      9  C   UNL     1      -0.021   1.728   0.011  0.00  0.00    +0.087 A 
ATOM     10  C   UNL     1       2.491  -1.570  -0.028  0.00  0.00    +0.046 C 
ATOM     11  C   UNL     1       3.957  -1.298   0.339  0.00  0.00    -0.009 C 
ATOM     12  C   UNL     1       4.465  -0.119  -0.497  0.00  0.00    +0.008 C 
ATOM     13  C   UNL     1       3.799   1.175  -0.029  0.00  0.00    +0.037 C 
ATOM     14  C   UNL     1       4.800  -2.540   0.038  0.00  0.00    +0.008 C 
BRANCH   5  15
ATOM     15  C   UNL     1       1.763   3.461   0.003  0.00  0.00    +0.342 C 
ATOM     16  O   UNL     1       1.954   4.036   1.058  0.00  0.00    -0.245 OA
BRANCH  15  17
ATOM     17  O   UNL     1       1.952   4.110  -1.163  0.00  0.00    -0.461 OA
BRANCH  17  19
ATOM     18  C   UNL     1       2.545   6.060  -2.497  0.00  0.00    +0.048 C 
ATOM     19  C   UNL     1       2.385   5.494  -1.085  0.00  0.00    +0.229 C 
ENDBRANCH  17  19
ENDBRANCH  15  17
ENDBRANCH   5  15
ENDBRANCH   1   9
BRANCH   2  20
ATOM     20  C   UNL     1      -3.526   2.957   0.036  0.00  0.00    +0.117 C 
ATOM     21  C   UNL     1      -4.810   2.429   0.040  0.00  0.00    +0.070 C 
BRANCH  21  22
ATOM     22  C   UNL     1      -5.921   3.286   0.051  0.00  0.00    +0.130 A 
ATOM     23  C   UNL     1      -7.253   2.893   0.056  0.00  0.00    +0.050 A 
ATOM     24  C   UNL     1      -8.016   4.059   0.066  0.00  0.00    +0.050 A 
ATOM     25  C   UNL     1      -7.135   5.120   0.067  0.00  0.00    +0.136 A 
ATOM     26  O   UNL     1      -5.881   4.636   0.063  0.00  0.00    -0.455 OA
BRANCH  25  27
ATOM     27  C   UNL     1      -7.506   6.547   0.077  0.00  0.00    +0.017 A 
ATOM     28  C   UNL     1      -8.853   6.922   0.081  0.00  0.00    +0.014 A 
ATOM     29  C   UNL     1      -9.193   8.258   0.094  0.00  0.00    +0.039 A 
ATOM     30  C   UNL     1      -8.204   9.229   0.094  0.00  0.00    +0.123 A 
ATOM     31  C   UNL     1      -6.866   8.863   0.086  0.00  0.00    +0.039 A 
ATOM     32  C   UNL     1      -6.513   7.531   0.077  0.00  0.00    +0.014 A 
ATOM     33  F   UNL     1      -8.544  10.536   0.102  0.00  0.00    -0.205 F 
ENDBRANCH  25  27
ENDBRANCH  21  22
BRANCH  20  34
ATOM     34  C   UNL     1      -3.335   4.376   0.043  0.00  0.00    +0.104 C 
ATOM     35  N   UNL     1      -3.184   5.502   0.048  0.00  0.00    -0.191 NA
ENDBRANCH  20  34
ENDBRANCH   2  20
TORSDOF 8
