REMARK  Name = ZINC02918761
REMARK  9 active torsions:
REMARK  status: ('A' for Active; 'I' for Inactive)
REMARK    1  A    between atoms: C_1  and  C_2
REMARK    2  A    between atoms: C_2  and  C_3
REMARK    3  A    between atoms: C_3  and  C_4
REMARK    4  A    between atoms: C_4  and  S_5
REMARK    5  A    between atoms: S_5  and  C_6
REMARK    6  A    between atoms: C_19  and  C_22
REMARK    7  A    between atoms: C_25  and  O_30
REMARK    8  A    between atoms: C_26  and  O_28
REMARK    9  A    between atoms: O_28  and  C_29
REMARK                            x       y       z     vdW  Elec       q    Type
REMARK                         _______ _______ _______ _____ _____    ______ ____
ROOT
ATOM      1  C   UNL     1      -2.351   5.676   4.088  0.00  0.00    +0.212 A 
ATOM      2  N   UNL     1      -2.580   6.927   4.480  0.00  0.00    -0.184 NA
ATOM      3  C   UNL     1      -3.238   7.142   5.606  0.00  0.00    +0.248 A 
ATOM      4  C   UNL     1      -3.684   6.029   6.355  0.00  0.00    +0.156 A 
ATOM      5  N   UNL     1      -3.421   4.810   5.911  0.00  0.00    -0.141 NA
ATOM      6  N   UNL     1      -2.778   4.645   4.807  0.00  0.00    -0.122 NA
ATOM      7  C   UNL     1      -4.434   6.248   7.609  0.00  0.00    +0.028 A 
ATOM      8  C   UNL     1      -4.111   5.569   8.778  0.00  0.00    +0.012 A 
ATOM      9  C   UNL     1      -4.845   5.792   9.927  0.00  0.00    +0.001 A 
ATOM     10  C   UNL     1      -5.901   6.687   9.920  0.00  0.00    +0.002 A 
ATOM     11  C   UNL     1      -6.230   7.373   8.766  0.00  0.00    +0.024 A 
ATOM     12  C   UNL     1      -5.500   7.166   7.610  0.00  0.00    +0.039 A 
ATOM     13  N   UNL     1      -5.783   7.869   6.434  0.00  0.00    -0.305 N 
ATOM     14  C   UNL     1      -4.827   8.867   5.966  0.00  0.00    +0.294 C 
ATOM     15  O   UNL     1      -3.487   8.397   6.050  0.00  0.00    -0.449 OA
ATOM     16  H   UNL     1      -6.599   7.695   5.939  0.00  0.00    +0.150 HD
ENDROOT
BRANCH  14  17
ATOM     17  C   UNL     1      -4.964  10.111   6.806  0.00  0.00    +0.015 A 
ATOM     18  C   UNL     1      -6.217  10.538   7.206  0.00  0.00    +0.013 A 
ATOM     19  C   UNL     1      -6.348  11.677   7.978  0.00  0.00    +0.049 A 
ATOM     20  C   UNL     1      -5.223  12.394   8.352  0.00  0.00    +0.158 A 
ATOM     21  C   UNL     1      -3.962  11.964   7.949  0.00  0.00    +0.162 A 
ATOM     22  C   UNL     1      -3.837  10.818   7.180  0.00  0.00    +0.058 A 
BRANCH  21  23
ATOM     23  O   UNL     1      -2.854  12.665   8.313  0.00  0.00    -0.491 OA
ATOM     24  C   UNL     1      -1.594  12.165   7.864  0.00  0.00    +0.277 C 
ENDBRANCH  21  23
BRANCH  20  25
ATOM     25  O   UNL     1      -5.350  13.515   9.111  0.00  0.00    -0.503 OA
ATOM     26  H   UNL     1      -5.319  13.351  10.064  0.00  0.00    +0.292 HD
ENDBRANCH  20  25
ENDBRANCH  14  17
BRANCH   1  27
ATOM     27  S   UNL     1      -1.474   5.384   2.588  0.00  0.00    -0.084 S 
BRANCH  27  28
ATOM     28  C   UNL     1      -1.468   3.574   2.576  0.00  0.00    +0.077 C 
BRANCH  28  29
ATOM     29  C   UNL     1      -0.738   3.075   1.327  0.00  0.00    +0.011 C 
BRANCH  29  31
ATOM     30  C   UNL     1      -0.003   1.047   0.068  0.00  0.00    +0.004 C 
ATOM     31  C   UNL     1      -0.733   1.545   1.316  0.00  0.00    -0.003 C 
ENDBRANCH  29  31
ENDBRANCH  28  29
ENDBRANCH  27  28
ENDBRANCH   1  27
TORSDOF 7
