REMARK  Name = ZINC09169363
REMARK  12 active torsions:
REMARK  status: ('A' for Active; 'I' for Inactive)
REMARK    1  A    between atoms: C_1  and  C_2
REMARK    2  A    between atoms: C_2  and  C_3
REMARK    3  A    between atoms: C_2  and  C_4
REMARK    4  A    between atoms: C_4  and  N_5
REMARK    5  A    between atoms: N_5  and  C_6
REMARK    6  A    between atoms: N_5  and  S_10
REMARK    7  A    between atoms: C_6  and  C_7
REMARK    8  A    between atoms: C_7  and  C_8
REMARK    9  A    between atoms: C_7  and  C_9
REMARK   10  A    between atoms: S_10  and  C_13
REMARK   11  A    between atoms: C_16  and  C_19
REMARK   12  A    between atoms: C_25  and  C_27
REMARK                            x       y       z     vdW  Elec       q    Type
REMARK                         _______ _______ _______ _____ _____    ______ ____
ROOT
ATOM      1  C   UNL     1       0.502 -10.142   0.959  0.00  0.00    +0.106 A 
ATOM      2  C   UNL     1       1.842  -9.852   1.147  0.00  0.00    +0.029 A 
ATOM      3  C   UNL     1       2.221  -8.623   1.646  0.00  0.00    +0.015 A 
ATOM      4  C   UNL     1       1.250  -7.671   1.961  0.00  0.00    +0.037 A 
ATOM      5  C   UNL     1      -0.101  -7.973   1.775  0.00  0.00    +0.015 A 
ATOM      6  C   UNL     1      -0.466  -9.203   1.269  0.00  0.00    +0.029 A 
ENDROOT
BRANCH   4   7
ATOM      7  C   UNL     1       1.649  -6.352   2.495  0.00  0.00    +0.252 C 
ATOM      8  O   UNL     1       2.825  -6.094   2.661  0.00  0.00    -0.270 OA
ATOM      9  N   UNL     1       0.708  -5.436   2.799  0.00  0.00    -0.234 N 
ATOM     10  C   UNL     1       1.082  -4.200   3.299  0.00  0.00    +0.315 A 
ATOM     11  N   UNL     1       2.308  -3.794   3.526  0.00  0.00    -0.092 NA
ATOM     12  N   UNL     1       2.284  -2.594   3.991  0.00  0.00    -0.103 NA
ATOM     13  C   UNL     1       1.038  -2.187   4.079  0.00  0.00    +0.285 A 
ATOM     14  O   UNL     1       0.252  -3.199   3.648  0.00  0.00    -0.402 OA
ATOM     15  H   UNL     1      -0.230  -5.641   2.667  0.00  0.00    +0.160 HD
BRANCH  13  16
ATOM     16  C   UNL     1       0.583  -0.876   4.564  0.00  0.00    +0.192 A 
ATOM     17  C   UNL     1       1.395   0.122   4.997  0.00  0.00    +0.063 A 
ATOM     18  C   UNL     1       0.513   1.226   5.378  0.00  0.00    +0.021 A 
ATOM     19  C   UNL     1       0.723   2.508   5.890  0.00  0.00    +0.011 A 
ATOM     20  C   UNL     1      -0.346   3.320   6.146  0.00  0.00    +0.001 A 
ATOM     21  C   UNL     1      -1.639   2.877   5.902  0.00  0.00    +0.004 A 
ATOM     22  C   UNL     1      -1.867   1.612   5.402  0.00  0.00    +0.047 A 
ATOM     23  C   UNL     1      -0.795   0.772   5.129  0.00  0.00    +0.136 A 
ATOM     24  O   UNL     1      -0.705  -0.483   4.645  0.00  0.00    -0.450 OA
ENDBRANCH  13  16
ENDBRANCH   4   7
BRANCH   1  25
ATOM     25  S   UNL     1       0.027 -11.714   0.322  0.00  0.00    +0.061 S 
ATOM     26  O   UNL     1      -1.251 -11.541  -0.275  0.00  0.00    -0.153 OA
ATOM     27  O   UNL     1       1.144 -12.214  -0.402  0.00  0.00    -0.153 OA
BRANCH  25  28
ATOM     28  N   UNL     1      -0.188 -12.723   1.617  0.00  0.00    -0.176 NA
BRANCH  28  29
ATOM     29  C   UNL     1      -1.503 -12.827   2.255  0.00  0.00    +0.112 C 
BRANCH  29  31
ATOM     30  C   UNL     1      -3.476 -14.316   2.618  0.00  0.00    +0.008 C 
ATOM     31  C   UNL     1      -2.160 -14.150   1.856  0.00  0.00    -0.001 C 
ATOM     32  C   UNL     1      -2.439 -14.148   0.352  0.00  0.00    +0.008 C 
ENDBRANCH  29  31
ENDBRANCH  28  29
BRANCH  28  33
ATOM     33  C   UNL     1       0.937 -13.513   2.125  0.00  0.00    +0.112 C 
BRANCH  33  34
ATOM     34  C   UNL     1       1.637 -12.741   3.246  0.00  0.00    -0.001 C 
ATOM     35  C   UNL     1       0.663 -12.535   4.408  0.00  0.00    +0.008 C 
ATOM     36  C   UNL     1       2.850 -13.535   3.732  0.00  0.00    +0.008 C 
ENDBRANCH  33  34
ENDBRANCH  28  33
ENDBRANCH  25  28
ENDBRANCH   1  25
TORSDOF 8
