REMARK  Name = ZINC07880173
REMARK  8 active torsions:
REMARK  status: ('A' for Active; 'I' for Inactive)
REMARK    1  A    between atoms: C_1  and  C_2
REMARK    2  A    between atoms: C_2  and  C_3
REMARK    3  A    between atoms: C_3  and  N_4
REMARK    4  A    between atoms: C_5  and  N_28
REMARK    5  A    between atoms: C_6  and  C_13
REMARK    6  A    between atoms: C_13  and  C_15
REMARK    7  A    between atoms: C_15  and  N_51
REMARK    8  A    between atoms: C_23  and  C_25
REMARK                            x       y       z     vdW  Elec       q    Type
REMARK                         _______ _______ _______ _____ _____    ______ ____
ROOT
ATOM      1  C   UNL     1      -3.420  -1.232   1.192  0.00  0.00    +0.155 C 
ATOM      2  O   UNL     1      -4.409  -0.753   0.674  0.00  0.00    -0.294 OA
ENDROOT
BRANCH   1   5
ATOM      3  N   UNL     1      -4.705  -4.451   2.447  0.00  0.00    -0.281 N 
ATOM      4  C   UNL     1      -4.697  -3.211   1.875  0.00  0.00    +0.116 A 
ATOM      5  C   UNL     1      -3.480  -2.514   1.778  0.00  0.00    +0.118 A 
ATOM      6  C   UNL     1      -2.275  -3.161   2.313  0.00  0.00    +0.266 A 
ATOM      7  O   UNL     1      -1.195  -2.602   2.260  0.00  0.00    -0.267 OA
ATOM      8  N   UNL     1      -2.390  -4.387   2.864  0.00  0.00    -0.274 N 
ATOM      9  H   UNL     1      -1.578  -4.841   3.232  0.00  0.00    +0.173 HD
ATOM     10  C   UNL     1      -3.580  -5.006   2.924  0.00  0.00    +0.331 A 
ATOM     11  O   UNL     1      -3.641  -6.110   3.429  0.00  0.00    -0.246 OA
BRANCH   4  12
ATOM     12  N   UNL     1      -5.848  -2.660   1.403  0.00  0.00    -0.344 N 
ATOM     13  H   UNL     1      -5.829  -2.099   0.612  0.00  0.00    +0.144 HD
ATOM     14  H   UNL     1      -6.689  -2.829   1.857  0.00  0.00    +0.144 HD
ENDBRANCH   4  12
BRANCH   3  15
ATOM     15  C   UNL     1      -5.968  -5.188   2.547  0.00  0.00    +0.128 C 
BRANCH  15  17
ATOM     16  C   UNL     1      -7.974  -5.612   3.974  0.00  0.00    +0.005 C 
ATOM     17  C   UNL     1      -6.656  -4.842   3.869  0.00  0.00    +0.018 C 
ENDBRANCH  15  17
ENDBRANCH   3  15
ENDBRANCH   1   5
BRANCH   1  18
ATOM     18  C   UNL     1      -2.127  -0.457   1.206  0.00  0.00    +0.003 C 
BRANCH  18  27
ATOM     19  C   UNL     1      -3.457   1.554   1.430  0.00  0.00    -0.072 C 
ATOM     20  C   UNL     1      -3.939   2.770   0.620  0.00  0.00    +0.024 C 
ATOM     21  C   UNL     1      -2.732   3.531   0.180  0.00  0.00    -0.010 A 
ATOM     22  C   UNL     1      -1.438   3.097   0.208  0.00  0.00    -0.051 A 
ATOM     23  C   UNL     1      -0.475   3.986  -0.256  0.00  0.00    +0.010 A 
ATOM     24  C   UNL     1      -0.840   5.212  -0.700  0.00  0.00    +0.045 A 
ATOM     25  S   UNL     1      -2.614   5.169  -0.482  0.00  0.00    -0.101 S 
ATOM     26  C   UNL     1      -1.129   1.694   0.722  0.00  0.00    -0.033 C 
ATOM     27  N   UNL     1      -2.374   0.892   0.663  0.00  0.00    +0.390 N 
ATOM     28  H   UNL     1      -2.668   0.808  -0.317  0.00  0.00    -0.080 HD
BRANCH  26  29
ATOM     29  C   UNL     1      -0.078   1.038  -0.176  0.00  0.00    -0.020 C 
ATOM     30  C   UNL     1       1.353   0.951   0.359  0.00  0.00    +0.002 C 
ATOM     31  C   UNL     1       0.490  -0.310   0.272  0.00  0.00    +0.002 C 
ENDBRANCH  26  29
ENDBRANCH  18  27
ENDBRANCH   1  18
TORSDOF 7
