REMARK  Name = ZINC39499946
REMARK  13 active torsions:
REMARK  status: ('A' for Active; 'I' for Inactive)
REMARK    1  A    between atoms: C_1  and  C_2
REMARK    2  A    between atoms: C_4  and  C_9
REMARK    3  A    between atoms: C_5  and  C_8
REMARK    4  A    between atoms: C_9  and  C_11
REMARK    5  A    between atoms: C_9  and  N_12
REMARK    6  A    between atoms: N_12  and  C_13
REMARK    7  A    between atoms: N_12  and  C_14
REMARK    8  A    between atoms: C_14  and  C_15
REMARK    9  A    between atoms: C_22  and  C_35
REMARK   10  A    between atoms: C_24  and  N_26
REMARK   11  A    between atoms: C_27  and  C_29
REMARK   12  A    between atoms: C_35  and  O_37
REMARK   13  A    between atoms: O_37  and  C_38
REMARK                            x       y       z     vdW  Elec       q    Type
REMARK                         _______ _______ _______ _____ _____    ______ ____
ROOT
ATOM      1  C   UNL     1      -3.436  -1.255  -3.984  0.00  0.00    +0.057 A 
ATOM      2  C   UNL     1      -3.941  -2.441  -3.491  0.00  0.00    +0.025 A 
ATOM      3  C   UNL     1      -4.239  -3.477  -4.357  0.00  0.00    +0.010 A 
ATOM      4  C   UNL     1      -4.020  -3.311  -5.728  0.00  0.00    +0.006 A 
ATOM      5  C   UNL     1      -3.493  -2.086  -6.133  0.00  0.00    +0.103 A 
ATOM      6  N   UNL     1      -3.235  -1.113  -5.281  0.00  0.00    -0.244 NA
ATOM      7  S   UNL     1      -3.279  -2.191  -7.898  0.00  0.00    -0.089 S 
ATOM      8  C   UNL     1      -3.497  -4.008  -8.100  0.00  0.00    +0.186 C 
ATOM      9  C   UNL     1      -4.303  -4.314  -6.817  0.00  0.00    +0.130 C 
ENDROOT
BRANCH   9  10
ATOM     10  N   UNL     1      -5.733  -4.287  -7.133  0.00  0.00    -0.303 N 
ATOM     11  C   UNL     1      -6.576  -5.137  -6.514  0.00  0.00    +0.245 C 
ATOM     12  O   UNL     1      -6.150  -5.926  -5.694  0.00  0.00    -0.270 OA
ATOM     13  H   UNL     1      -6.073  -3.657  -7.788  0.00  0.00    +0.150 HD
BRANCH  11  14
ATOM     14  C   UNL     1      -8.020  -5.109  -6.833  0.00  0.00    +0.037 A 
ATOM     15  C   UNL     1      -8.511  -4.208  -7.779  0.00  0.00    +0.013 A 
ATOM     16  C   UNL     1      -9.859  -4.187  -8.072  0.00  0.00    +0.001 A 
ATOM     17  C   UNL     1     -10.723  -5.057  -7.431  0.00  0.00    +0.000 A 
ATOM     18  C   UNL     1     -10.242  -5.953  -6.492  0.00  0.00    +0.001 A 
ATOM     19  C   UNL     1      -8.896  -5.988  -6.194  0.00  0.00    +0.013 A 
ENDBRANCH  11  14
ENDBRANCH   9  10
BRANCH   8  20
ATOM     20  C   UNL     1      -4.290  -4.331  -9.339  0.00  0.00    +0.322 C 
ATOM     21  O   UNL     1      -4.101  -5.372  -9.923  0.00  0.00    -0.250 OA
BRANCH  20  22
ATOM     22  O   UNL     1      -5.208  -3.464  -9.794  0.00  0.00    -0.467 OA
ATOM     23  C   UNL     1      -5.923  -3.836 -10.974  0.00  0.00    +0.280 C 
ENDBRANCH  20  22
ENDBRANCH   8  20
BRANCH   1  24
ATOM     24  C   UNL     1      -3.120  -0.121  -3.043  0.00  0.00    +0.140 C 
BRANCH  24  25
ATOM     25  N   UNL     1      -1.696  -0.164  -2.684  0.00  0.00    -0.293 NA
ATOM     26  C   UNL     1      -0.849   0.106  -3.854  0.00  0.00    +0.105 C 
BRANCH  25  27
ATOM     27  C   UNL     1      -1.399   0.772  -1.593  0.00  0.00    +0.084 C 
ATOM     28  C   UNL     1      -1.303   2.193  -2.151  0.00  0.00    +0.029 C 
BRANCH  27  31
ATOM     29  C   UNL     1      -0.100   1.371   1.361  0.00  0.00    +0.039 C 
ATOM     30  C   UNL     1       0.709   1.180   0.076  0.00  0.00    +0.154 C 
ATOM     31  C   UNL     1      -0.089   0.396  -0.949  0.00  0.00    -0.005 C 
ATOM     32  C   UNL     1       0.638  -0.706  -1.149  0.00  0.00    +0.063 C 
ATOM     33  N   UNL     1       1.755  -0.688  -0.388  0.00  0.00    -0.159 NA
ATOM     34  N   UNL     1       1.879   0.319   0.321  0.00  0.00    -0.180 NA
ATOM     35  C   UNL     1       0.265  -1.818  -2.095  0.00  0.00    +0.067 C 
ENDBRANCH  27  31
ENDBRANCH  25  27
ENDBRANCH  24  25
ENDBRANCH   1  24
TORSDOF 8
