REMARK  Name = ZINC04927498
REMARK  8 active torsions:
REMARK  status: ('A' for Active; 'I' for Inactive)
REMARK    1  A    between atoms: C_1  and  C_2
REMARK    2  A    between atoms: C_5  and  C_9
REMARK    3  A    between atoms: C_7  and  C_8
REMARK    4  A    between atoms: C_11  and  C_23
REMARK    5  A    between atoms: N_12  and  C_14
REMARK    6  A    between atoms: C_18  and  N_20
REMARK    7  A    between atoms: N_25  and  C_26
REMARK    8  A    between atoms: C_26  and  C_27
REMARK                            x       y       z     vdW  Elec       q    Type
REMARK                         _______ _______ _______ _____ _____    ______ ____
ROOT
ATOM      1  C   UNL     1       0.461   7.258   0.511  0.00  0.00    +0.094 A 
ATOM      2  C   UNL     1      -0.651   7.330  -0.348  0.00  0.00    +0.063 A 
ATOM      3  C   UNL     1      -0.937   6.020  -0.686  0.00  0.00    +0.130 A 
ATOM      4  N   UNL     1      -0.015   5.243  -0.037  0.00  0.00    -0.227 N 
ATOM      5  N   UNL     1       0.775   5.986   0.650  0.00  0.00    -0.166 NA
ENDROOT
BRANCH   1  10
ATOM      6  C   UNL     1       3.140  11.714   2.989  0.00  0.00    +0.044 C 
ATOM      7  C   UNL     1       2.439  10.548   2.341  0.00  0.00    -0.047 A 
ATOM      8  C   UNL     1       1.291  10.760   1.598  0.00  0.00    +0.004 A 
ATOM      9  C   UNL     1       0.645   9.696   1.002  0.00  0.00    +0.010 A 
ATOM     10  C   UNL     1       1.152   8.406   1.149  0.00  0.00    +0.002 A 
ATOM     11  C   UNL     1       2.305   8.198   1.902  0.00  0.00    +0.013 A 
ATOM     12  C   UNL     1       2.946   9.270   2.490  0.00  0.00    -0.047 A 
ATOM     13  C   UNL     1       4.197   9.047   3.299  0.00  0.00    +0.044 C 
ENDBRANCH   1  10
BRANCH   4  14
ATOM     14  C   UNL     1       0.052   3.847  -0.107  0.00  0.00    +0.068 A 
ATOM     15  C   UNL     1       0.108   3.214  -1.343  0.00  0.00    +0.028 A 
ATOM     16  C   UNL     1       0.179   1.837  -1.409  0.00  0.00    +0.004 A 
ATOM     17  C   UNL     1       0.184   1.087  -0.247  0.00  0.00    +0.033 A 
ATOM     18  C   UNL     1       0.129   1.713   0.984  0.00  0.00    +0.128 A 
ATOM     19  C   UNL     1       0.063   3.091   1.057  0.00  0.00    +0.060 A 
BRANCH  18  20
ATOM     20  N   UNL     1       0.141   0.907   2.225  0.00  0.00    +0.056 N 
ATOM     21  O   UNL     1       0.198  -0.308   2.162  0.00  0.00    -0.126 OA
ATOM     22  O   UNL     1       0.092   1.458   3.310  0.00  0.00    -0.126 OA
ENDBRANCH  18  20
ENDBRANCH   4  14
BRANCH   3  23
ATOM     23  C   UNL     1      -2.018   5.554  -1.568  0.00  0.00    +0.263 C 
ATOM     24  O   UNL     1      -2.675   6.358  -2.201  0.00  0.00    -0.269 OA
ATOM     25  N   UNL     1      -2.279   4.236  -1.675  0.00  0.00    -0.303 N 
ATOM     26  H   UNL     1      -1.810   3.602  -1.110  0.00  0.00    +0.150 HD
BRANCH  25  27
ATOM     27  C   UNL     1      -3.272   3.762  -2.643  0.00  0.00    +0.179 C 
BRANCH  27  28
ATOM     28  C   UNL     1      -3.375   2.261  -2.562  0.00  0.00    +0.122 A 
ATOM     29  C   UNL     1      -4.210   1.571  -1.765  0.00  0.00    +0.046 A 
ATOM     30  C   UNL     1      -3.973   0.200  -2.011  0.00  0.00    +0.041 A 
ATOM     31  C   UNL     1      -3.006   0.133  -2.945  0.00  0.00    +0.195 A 
ATOM     32  O   UNL     1      -2.652   1.385  -3.279  0.00  0.00    -0.466 OA
ENDBRANCH  27  28
ENDBRANCH  25  27
ENDBRANCH   3  23
TORSDOF 6
