REMARK  Name = ZINC00832348
REMARK  6 active torsions:
REMARK  status: ('A' for Active; 'I' for Inactive)
REMARK    1  A    between atoms: C_1  and  C_2
REMARK    2  A    between atoms: C_5  and  O_8
REMARK    3  A    between atoms: O_8  and  C_9
REMARK    4  A    between atoms: C_9  and  C_11
REMARK    5  A    between atoms: C_12  and  C_27
REMARK    6  A    between atoms: C_17  and  C_19
REMARK                            x       y       z     vdW  Elec       q    Type
REMARK                         _______ _______ _______ _____ _____    ______ ____
ROOT
ATOM      1  C   UNL     1      -3.204  -2.132   4.138  0.00  0.00    +0.078 C 
ATOM      2  C   UNL     1      -4.198  -2.732   4.828  0.00  0.00    +0.021 C 
ATOM      3  N   UNL     1      -4.744  -2.143   5.933  0.00  0.00    -0.273 N 
ATOM      4  C   UNL     1      -4.358  -0.952   6.406  0.00  0.00    +0.304 C 
ATOM      5  O   UNL     1      -4.908  -0.506   7.395  0.00  0.00    -0.252 OA
ATOM      6  N   UNL     1      -3.381  -0.230   5.823  0.00  0.00    -0.288 N 
ATOM      7  C   UNL     1      -2.723  -0.780   4.626  0.00  0.00    +0.144 C 
ATOM      8  C   UNL     1      -4.710  -4.074   4.374  0.00  0.00    +0.061 C 
ATOM      9  H   UNL     1      -5.454  -2.613   6.399  0.00  0.00    +0.156 HD
ATOM     10  H   UNL     1      -3.118   0.631   6.183  0.00  0.00    +0.151 HD
ENDROOT
BRANCH   7  11
ATOM     11  C   UNL     1      -2.901   0.208   3.502  0.00  0.00    -0.021 A 
ATOM     12  C   UNL     1      -4.167   0.651   3.166  0.00  0.00    +0.007 A 
ATOM     13  C   UNL     1      -4.331   1.562   2.139  0.00  0.00    +0.022 A 
ATOM     14  C   UNL     1      -3.229   2.022   1.440  0.00  0.00    +0.059 A 
ATOM     15  C   UNL     1      -1.962   1.574   1.774  0.00  0.00    +0.060 A 
ATOM     16  C   UNL     1      -1.799   0.667   2.805  0.00  0.00    +0.027 A 
ATOM     17 CL   UNL     1      -0.579   2.150   0.897  0.00  0.00    -0.082 Cl
ATOM     18 CL   UNL     1      -3.435   3.160   0.145  0.00  0.00    -0.082 Cl
ENDBRANCH   7  11
BRANCH   1  19
ATOM     19  C   UNL     1      -2.634  -2.743   2.997  0.00  0.00    +0.339 C 
ATOM     20  O   UNL     1      -1.571  -3.328   3.086  0.00  0.00    -0.245 OA
BRANCH  19  21
ATOM     21  O   UNL     1      -3.270  -2.677   1.808  0.00  0.00    -0.458 OA
BRANCH  21  26
ATOM     22  C   UNL     1      -6.570  -4.088  -1.000  0.00  0.00    +0.007 C 
ATOM     23  C   UNL     1      -5.051  -4.087  -0.823  0.00  0.00    -0.014 C 
ATOM     24  C   UNL     1      -4.689  -4.801   0.481  0.00  0.00    +0.007 C 
ATOM     25  C   UNL     1      -3.169  -4.800   0.658  0.00  0.00    +0.045 C 
ATOM     26  C   UNL     1      -2.662  -3.357   0.709  0.00  0.00    +0.177 C 
ATOM     27  C   UNL     1      -3.024  -2.644  -0.596  0.00  0.00    +0.045 C 
ATOM     28  C   UNL     1      -4.543  -2.644  -0.773  0.00  0.00    +0.007 C 
ENDBRANCH  21  26
ENDBRANCH  19  21
ENDBRANCH   1  19
TORSDOF 4
