REMARK  Name = ZINC12991111
REMARK  6 active torsions:
REMARK  status: ('A' for Active; 'I' for Inactive)
REMARK    1  A    between atoms: C_4  and  C_7
REMARK    2  A    between atoms: C_12  and  C_19
REMARK    3  A    between atoms: N_21  and  C_22
REMARK    4  A    between atoms: C_22  and  C_23
REMARK    5  A    between atoms: C_23  and  C_25
REMARK    6  A    between atoms: C_23  and  N_58
REMARK                            x       y       z     vdW  Elec       q    Type
REMARK                         _______ _______ _______ _____ _____    ______ ____
ROOT
ATOM      1  C   UNL     1      -2.714   3.013  -2.495  0.00  0.00    +0.211 C 
ATOM      2  C   UNL     1      -3.563   2.629  -3.707  0.00  0.00    +0.085 C 
ATOM      3  C   UNL     1      -4.727   1.774  -3.281  0.00  0.00    -0.029 A 
ATOM      4  C   UNL     1      -5.358   0.966  -4.206  0.00  0.00    +0.017 A 
ATOM      5  C   UNL     1      -6.440   0.175  -3.819  0.00  0.00    +0.037 A 
ATOM      6  C   UNL     1      -6.888   0.198  -2.497  0.00  0.00    +0.014 A 
ATOM      7  C   UNL     1      -6.257   1.002  -1.571  0.00  0.00    +0.016 A 
ATOM      8  C   UNL     1      -5.176   1.791  -1.960  0.00  0.00    +0.062 A 
ATOM      9  C   UNL     1      -4.489   2.658  -0.970  0.00  0.00    +0.340 C 
ATOM     10  O   UNL     1      -4.732   2.579   0.217  0.00  0.00    -0.245 OA
ATOM     11  O   UNL     1      -3.580   3.544  -1.450  0.00  0.00    -0.453 OA
ENDROOT
BRANCH   1  15
ATOM     12  C   UNL     1       0.135   5.984  -3.638  0.00  0.00    +0.000 A 
ATOM     13  C   UNL     1       0.494   4.649  -3.629  0.00  0.00    +0.000 A 
ATOM     14  C   UNL     1      -0.427   3.688  -3.255  0.00  0.00    +0.007 A 
ATOM     15  C   UNL     1      -1.709   4.061  -2.896  0.00  0.00    -0.007 A 
ATOM     16  C   UNL     1      -2.066   5.396  -2.900  0.00  0.00    +0.007 A 
ATOM     17  C   UNL     1      -1.145   6.357  -3.273  0.00  0.00    +0.000 A 
ENDBRANCH   1  15
BRANCH   5  18
ATOM     18  C   UNL     1      -7.115  -0.690  -4.812  0.00  0.00    +0.244 C 
ATOM     19  O   UNL     1      -6.727  -0.710  -5.964  0.00  0.00    -0.270 OA
ATOM     20  N   UNL     1      -8.161  -1.455  -4.440  0.00  0.00    -0.312 N 
ATOM     21  H   UNL     1      -8.470  -1.439  -3.521  0.00  0.00    +0.149 HD
BRANCH  20  22
ATOM     22  C   UNL     1      -8.829  -2.311  -5.424  0.00  0.00    +0.097 C 
BRANCH  22  23
ATOM     23  C   UNL     1      -9.973  -3.068  -4.747  0.00  0.00    +0.016 C 
BRANCH  23  28
ATOM     24  C   UNL     1     -11.306  -1.052  -5.046  0.00  0.00    -0.078 C 
ATOM     25  C   UNL     1     -12.593  -0.490  -4.392  0.00  0.00    -0.020 C 
ATOM     26  C   UNL     1     -13.259  -1.752  -3.797  0.00  0.00    -0.020 C 
ATOM     27  C   UNL     1     -12.117  -2.774  -3.642  0.00  0.00    -0.078 C 
ATOM     28  N   UNL     1     -10.900  -2.096  -4.092  0.00  0.00    +0.387 N 
ATOM     29  H   UNL     1     -10.426  -1.667  -3.289  0.00  0.00    -0.081 HD
ENDBRANCH  23  28
BRANCH  23  30
ATOM     30  C   UNL     1     -10.737  -3.853  -5.782  0.00  0.00    +0.093 A 
ATOM     31  C   UNL     1     -10.702  -5.189  -5.939  0.00  0.00    +0.043 A 
ATOM     32  C   UNL     1     -11.562  -5.497  -7.018  0.00  0.00    +0.041 A 
ATOM     33  C   UNL     1     -12.071  -4.331  -7.455  0.00  0.00    +0.195 A 
ATOM     34  O   UNL     1     -11.572  -3.340  -6.699  0.00  0.00    -0.469 OA
ENDBRANCH  23  30
ENDBRANCH  22  23
ENDBRANCH  20  22
ENDBRANCH   5  18
TORSDOF 6
