REMARK  Name = ZINC39487610
REMARK  10 active torsions:
REMARK  status: ('A' for Active; 'I' for Inactive)
REMARK    1  A    between atoms: C_1  and  C_2
REMARK    2  A    between atoms: C_2  and  C_3
REMARK    3  A    between atoms: C_2  and  C_4
REMARK    4  A    between atoms: C_4  and  C_5
REMARK    5  A    between atoms: C_5  and  C_32
REMARK    6  A    between atoms: N_10  and  C_11
REMARK    7  A    between atoms: C_11  and  C_12
REMARK    8  A    between atoms: C_12  and  C_25
REMARK    9  A    between atoms: N_15  and  C_18
REMARK   10  A    between atoms: C_18  and  C_19
REMARK                            x       y       z     vdW  Elec       q    Type
REMARK                         _______ _______ _______ _____ _____    ______ ____
ROOT
ATOM      1  C   UNL     1      -6.002   0.748  -0.875  0.00  0.00    -0.014 C 
ATOM      2  C   UNL     1      -5.171   1.873  -1.499  0.00  0.00    -0.010 C 
ATOM      3  C   UNL     1      -4.400   1.323  -2.701  0.00  0.00    -0.078 C 
ATOM      4  N   UNL     1      -5.344   0.800  -3.696  0.00  0.00    +0.382 N 
ATOM      5  C   UNL     1      -6.094  -0.326  -3.127  0.00  0.00    -0.078 C 
ATOM      6  C   UNL     1      -6.931   0.160  -1.941  0.00  0.00    -0.010 C 
ATOM      7  H   UNL     1      -5.987   1.530  -3.963  0.00  0.00    -0.081 HD
ENDROOT
BRANCH   1   8
ATOM      8  C   UNL     1      -6.837   1.306   0.280  0.00  0.00    -0.003 C 
ATOM      9  C   UNL     1      -7.819   0.237   0.763  0.00  0.00    +0.004 C 
ATOM     10  C   UNL     1      -8.653   0.795   1.917  0.00  0.00    +0.000 C 
ATOM     11  C   UNL     1      -9.431   2.022   1.437  0.00  0.00    +0.000 C 
ATOM     12  C   UNL     1      -8.449   3.091   0.954  0.00  0.00    +0.000 C 
ATOM     13  C   UNL     1      -7.614   2.533  -0.201  0.00  0.00    +0.004 C 
ENDBRANCH   1   8
BRANCH   1  14
ATOM     14  C   UNL     1      -5.069  -0.346  -0.349  0.00  0.00    +0.117 C 
BRANCH  14  20
ATOM     15  C   UNL     1      -4.151   0.069   2.057  0.00  0.00    +0.055 C 
ATOM     16  C   UNL     1      -2.939   0.881   2.553  0.00  0.00    +0.172 C 
ATOM     17  N   UNL     1      -2.350   1.423   1.319  0.00  0.00    -0.120 N 
ATOM     18  C   UNL     1      -3.073   1.012   0.269  0.00  0.00    +0.332 C 
ATOM     19  O   UNL     1      -2.807   1.316  -0.878  0.00  0.00    -0.250 OA
ATOM     20  N   UNL     1      -4.116   0.238   0.597  0.00  0.00    -0.276 N 
ATOM     21  F   UNL     1      -1.294   2.179   1.258  0.00  0.00    -0.105 F 
ATOM     22  C   UNL     1      -5.452   0.633   2.632  0.00  0.00    +0.033 C 
BRANCH  15  23
ATOM     23  C   UNL     1      -3.997  -1.407   2.430  0.00  0.00    +0.030 C 
BRANCH  23  25
ATOM     24  C   UNL     1      -1.532  -1.416   2.027  0.00  0.00    +0.007 C 
ATOM     25  C   UNL     1      -2.869  -2.027   1.603  0.00  0.00    -0.015 C 
ATOM     26  C   UNL     1      -2.836  -3.539   1.837  0.00  0.00    +0.007 C 
ENDBRANCH  23  25
ENDBRANCH  15  23
ENDBRANCH  14  20
ENDBRANCH   1  14
BRANCH   4  27
ATOM     27  C   UNL     1      -4.604   0.345  -4.880  0.00  0.00    -0.043 C 
BRANCH  27  28
ATOM     28  C   UNL     1      -5.577  -0.070  -5.952  0.00  0.00    -0.064 A 
ATOM     29  C   UNL     1      -6.027  -1.376  -6.010  0.00  0.00    +0.002 A 
ATOM     30  C   UNL     1      -6.920  -1.757  -6.994  0.00  0.00    +0.000 A 
ATOM     31  C   UNL     1      -7.365  -0.832  -7.920  0.00  0.00    +0.000 A 
ATOM     32  C   UNL     1      -6.916   0.475  -7.861  0.00  0.00    +0.000 A 
ATOM     33  C   UNL     1      -6.026   0.857  -6.875  0.00  0.00    +0.002 A 
ENDBRANCH  27  28
ENDBRANCH   4  27
TORSDOF 7
