REMARK  Name = ZINC47006590
REMARK  8 active torsions:
REMARK  status: ('A' for Active; 'I' for Inactive)
REMARK    1  A    between atoms: C_1  and  C_2
REMARK    2  A    between atoms: C_3  and  C_8
REMARK    3  A    between atoms: N_6  and  C_7
REMARK    4  A    between atoms: C_8  and  C_10
REMARK    5  A    between atoms: C_8  and  N_11
REMARK    6  A    between atoms: C_17  and  C_20
REMARK    7  A    between atoms: C_27  and  O_30
REMARK    8  A    between atoms: O_30  and  C_31
REMARK                            x       y       z     vdW  Elec       q    Type
REMARK                         _______ _______ _______ _____ _____    ______ ____
ROOT
ATOM      1  N   UNL     1       0.476  -1.401  -3.399  0.00  0.00    -0.293 N 
ATOM      2  C   UNL     1       1.028  -1.105  -4.592  0.00  0.00    +0.303 C 
ATOM      3  O   UNL     1       1.042   0.045  -4.986  0.00  0.00    -0.253 OA
ATOM      4  N   UNL     1       1.564  -2.083  -5.349  0.00  0.00    -0.282 N 
ATOM      5  C   UNL     1       2.274  -1.780  -6.603  0.00  0.00    +0.114 C 
ATOM      6  C   UNL     1       3.725  -2.240  -6.447  0.00  0.00    +0.054 C 
ATOM      7  C   UNL     1       3.777  -3.611  -5.842  0.00  0.00    -0.039 C 
ATOM      8  C   UNL     1       2.790  -4.166  -5.179  0.00  0.00    -0.004 C 
ATOM      9  C   UNL     1       1.468  -3.495  -4.952  0.00  0.00    +0.137 C 
ATOM     10  H   UNL     1       0.398  -2.326  -3.117  0.00  0.00    +0.151 HD
ENDROOT
BRANCH   7  11
ATOM     11  C   UNL     1       5.021  -4.389  -6.004  0.00  0.00    +0.003 A 
ATOM     12  C   UNL     1       5.450  -5.007  -7.135  0.00  0.00    +0.091 A 
ATOM     13  N   UNL     1       6.643  -5.624  -6.898  0.00  0.00    -0.360 N 
ATOM     14  H   UNL     1       7.146  -6.131  -7.555  0.00  0.00    +0.165 HD
ATOM     15  C   UNL     1       7.032  -5.424  -5.589  0.00  0.00    +0.047 A 
ATOM     16  C   UNL     1       6.042  -4.640  -4.973  0.00  0.00    +0.010 A 
ATOM     17  C   UNL     1       6.174  -4.273  -3.635  0.00  0.00    +0.056 A 
ATOM     18  C   UNL     1       7.285  -4.681  -2.921  0.00  0.00    +0.121 A 
ATOM     19  C   UNL     1       8.266  -5.455  -3.534  0.00  0.00    +0.047 A 
ATOM     20  C   UNL     1       8.140  -5.830  -4.853  0.00  0.00    +0.030 A 
BRANCH  18  21
ATOM     21  O   UNL     1       7.419  -4.325  -1.615  0.00  0.00    -0.495 OA
ATOM     22  C   UNL     1       8.591  -4.781  -0.936  0.00  0.00    +0.277 C 
ENDBRANCH  18  21
ENDBRANCH   7  11
BRANCH   1  23
ATOM     23  C   UNL     1      -0.005  -0.327  -2.527  0.00  0.00    +0.105 C 
ATOM     24  C   UNL     1      -1.433   0.053  -2.927  0.00  0.00    +0.033 C 
BRANCH  23  27
ATOM     25  C   UNL     1      -0.016   1.500   0.013  0.00  0.00    +0.065 C 
ATOM     26  C   UNL     1       0.001  -0.007   0.003  0.00  0.00    +0.041 A 
ATOM     27  C   UNL     1       0.006  -0.798  -1.096  0.00  0.00    +0.013 A 
ATOM     28  C   UNL     1       0.024  -2.129  -0.667  0.00  0.00    +0.140 A 
ATOM     29  N   UNL     1       0.029  -2.138   0.641  0.00  0.00    -0.179 NA
ATOM     30  N   UNL     1       0.021  -0.810   1.087  0.00  0.00    -0.271 N 
ATOM     31  C   UNL     1       0.028  -0.370   2.485  0.00  0.00    +0.172 C 
ENDBRANCH  23  27
ENDBRANCH   1  23
TORSDOF 4
