REMARK  Name = ZINC36145231
REMARK  10 active torsions:
REMARK  status: ('A' for Active; 'I' for Inactive)
REMARK    1  A    between atoms: C_1  and  C_2
REMARK    2  A    between atoms: C_2  and  C_3
REMARK    3  A    between atoms: C_2  and  C_4
REMARK    4  A    between atoms: N_6  and  C_7
REMARK    5  A    between atoms: C_10  and  C_13
REMARK    6  A    between atoms: C_14  and  C_29
REMARK    7  A    between atoms: N_16  and  C_22
REMARK    8  A    between atoms: C_17  and  O_18
REMARK    9  A    between atoms: O_18  and  C_19
REMARK   10  A    between atoms: C_19  and  C_21
REMARK                            x       y       z     vdW  Elec       q    Type
REMARK                         _______ _______ _______ _____ _____    ______ ____
ROOT
ATOM      1  C   UNL     1       2.479  -2.169   7.302  0.00  0.00    +0.072 A 
ATOM      2  C   UNL     1       2.201  -3.397   7.953  0.00  0.00    +0.105 A 
ATOM      3  N   UNL     1       3.173  -3.639   8.804  0.00  0.00    -0.163 NA
ATOM      4  N   UNL     1       4.102  -2.594   8.737  0.00  0.00    -0.199 N 
ATOM      5  C   UNL     1       3.672  -1.698   7.810  0.00  0.00    +0.235 A 
ENDROOT
BRANCH   4   6
ATOM      6  C   UNL     1       5.277  -2.492   9.494  0.00  0.00    +0.069 A 
ATOM      7  C   UNL     1       6.454  -2.060   8.895  0.00  0.00    +0.031 A 
ATOM      8  C   UNL     1       7.611  -1.960   9.642  0.00  0.00    +0.040 A 
ATOM      9  C   UNL     1       7.599  -2.290  10.987  0.00  0.00    +0.124 A 
ATOM     10  C   UNL     1       6.426  -2.720  11.586  0.00  0.00    +0.040 A 
ATOM     11  C   UNL     1       5.266  -2.816  10.844  0.00  0.00    +0.031 A 
ATOM     12  F   UNL     1       8.732  -2.192  11.716  0.00  0.00    -0.205 F 
ENDBRANCH   4   6
BRANCH   2  13
ATOM     13  C   UNL     1       1.018  -4.259   7.716  0.00  0.00    +0.003 A 
ATOM     14  C   UNL     1       0.494  -4.389   6.430  0.00  0.00    +0.013 A 
ATOM     15  C   UNL     1      -0.606  -5.193   6.214  0.00  0.00    +0.039 A 
ATOM     16  C   UNL     1      -1.192  -5.869   7.272  0.00  0.00    +0.123 A 
ATOM     17  C   UNL     1      -0.675  -5.743   8.552  0.00  0.00    +0.039 A 
ATOM     18  C   UNL     1       0.429  -4.947   8.776  0.00  0.00    +0.013 A 
ATOM     19  F   UNL     1      -2.270  -6.654   7.056  0.00  0.00    -0.205 F 
ENDBRANCH   2  13
BRANCH   1  23
ATOM     20  C   UNL     1       0.088  -0.295   4.325  0.00  0.00    +0.033 A 
ATOM     21  C   UNL     1       1.331  -0.818   3.989  0.00  0.00    +0.024 A 
ATOM     22  C   UNL     1       2.108  -1.426   4.952  0.00  0.00    +0.010 A 
ATOM     23  C   UNL     1       1.646  -1.515   6.265  0.00  0.00    -0.011 A 
ATOM     24  C   UNL     1       0.399  -0.990   6.599  0.00  0.00    +0.010 A 
ATOM     25  C   UNL     1      -0.372  -0.378   5.633  0.00  0.00    +0.024 A 
BRANCH  20  28
ATOM     26  C   UNL     1      -0.694  -0.150   2.083  0.00  0.00    +0.220 C 
ATOM     27  O   UNL     1       0.059  -1.050   1.774  0.00  0.00    -0.275 OA
ATOM     28  N   UNL     1      -0.698   0.321   3.345  0.00  0.00    -0.285 N 
ATOM     29  H   UNL     1      -1.247   1.087   3.575  0.00  0.00    +0.155 HD
BRANCH  26  31
ATOM     30  C   UNL     1      -1.326   1.931   0.893  0.00  0.00    +0.017 C 
ATOM     31  C   UNL     1      -1.625   0.440   1.055  0.00  0.00    +0.069 C 
ATOM     32  C   UNL     1      -1.420  -0.270  -0.286  0.00  0.00    +0.017 C 
ENDBRANCH  26  31
ENDBRANCH  20  28
ENDBRANCH   1  23
BRANCH   5  33
ATOM     33  O   UNL     1       4.300  -0.549   7.451  0.00  0.00    -0.407 OA
BRANCH  33  34
ATOM     34  C   UNL     1       4.102   0.540   8.209  0.00  0.00    +0.310 C 
ATOM     35  O   UNL     1       3.458   0.459   9.228  0.00  0.00    -0.251 OA
ATOM     36  C   UNL     1       4.684   1.866   7.790  0.00  0.00    +0.136 C 
ENDBRANCH  33  34
ENDBRANCH   5  33
TORSDOF 7
