REMARK  Name = ZINC27019075
REMARK  6 active torsions:
REMARK  status: ('A' for Active; 'I' for Inactive)
REMARK    1  A    between atoms: C_4  and  N_7
REMARK    2  A    between atoms: N_9  and  C_29
REMARK    3  A    between atoms: C_10  and  C_13
REMARK    4  A    between atoms: C_16  and  S_19
REMARK    5  A    between atoms: S_19  and  N_22
REMARK    6  A    between atoms: C_29  and  C_30
REMARK                            x       y       z     vdW  Elec       q    Type
REMARK                         _______ _______ _______ _____ _____    ______ ____
ROOT
ATOM      1  N   UNL     1       4.559  -5.241  -3.671  0.00  0.00    -0.336 N 
ATOM      2  C   UNL     1       3.639  -5.147  -2.729  0.00  0.00    +0.152 A 
ATOM      3  N   UNL     1       2.521  -4.349  -2.684  0.00  0.00    -0.318 N 
ATOM      4  C   UNL     1       1.704  -4.427  -1.589  0.00  0.00    +0.058 A 
ATOM      5  C   UNL     1       2.012  -5.273  -0.585  0.00  0.00    +0.075 A 
ATOM      6  S   UNL     1       3.519  -6.025  -1.179  0.00  0.00    -0.059 S 
ATOM      7  H   UNL     1       4.530  -4.564  -4.537  0.00  0.00    +0.168 HD
ENDROOT
BRANCH   1  11
ATOM      8  C   UNL     1       7.551  -8.082  -3.367  0.00  0.00    +0.000 A 
ATOM      9  C   UNL     1       6.329  -8.425  -3.918  0.00  0.00    +0.002 A 
ATOM     10  C   UNL     1       5.327  -7.484  -4.022  0.00  0.00    +0.025 A 
ATOM     11  C   UNL     1       5.548  -6.180  -3.570  0.00  0.00    +0.041 A 
ATOM     12  C   UNL     1       6.786  -5.839  -3.020  0.00  0.00    +0.025 A 
ATOM     13  C   UNL     1       7.777  -6.792  -2.917  0.00  0.00    +0.002 A 
ENDBRANCH   1  11
BRANCH   4  14
ATOM     14  C   UNL     1       0.492  -3.583  -1.505  0.00  0.00    -0.001 A 
ATOM     15  C   UNL     1      -0.438  -3.586  -2.546  0.00  0.00    +0.012 A 
ATOM     16  C   UNL     1      -1.566  -2.797  -2.461  0.00  0.00    +0.029 A 
ATOM     17  C   UNL     1      -1.778  -2.005  -1.346  0.00  0.00    +0.106 A 
ATOM     18  C   UNL     1      -0.858  -1.994  -0.313  0.00  0.00    +0.029 A 
ATOM     19  C   UNL     1       0.272  -2.782  -0.383  0.00  0.00    +0.012 A 
BRANCH  17  20
ATOM     20  S   UNL     1      -3.222  -1.000  -1.245  0.00  0.00    +0.061 S 
ATOM     21  O   UNL     1      -3.649  -0.769  -2.581  0.00  0.00    -0.153 OA
ATOM     22  O   UNL     1      -2.917   0.060  -0.349  0.00  0.00    -0.153 OA
BRANCH  20  23
ATOM     23  N   UNL     1      -4.401  -1.909  -0.521  0.00  0.00    -0.177 NA
ATOM     24  C   UNL     1      -4.557  -1.897   0.905  0.00  0.00    +0.109 C 
ATOM     25  C   UNL     1      -3.715  -2.934   1.690  0.00  0.00    +0.017 C 
ATOM     26  C   UNL     1      -3.719  -4.294   0.950  0.00  0.00    +0.001 C 
ATOM     27  C   UNL     1      -5.071  -4.577   0.362  0.00  0.00    +0.001 C 
ATOM     28  C   UNL     1      -4.975  -4.156  -1.100  0.00  0.00    +0.017 C 
ATOM     29  C   UNL     1      -5.325  -2.758  -1.346  0.00  0.00    +0.109 C 
ENDBRANCH  20  23
ENDBRANCH  17  20
ENDBRANCH   4  14
BRANCH   3  30
ATOM     30  C   UNL     1       2.211  -3.434  -3.784  0.00  0.00    +0.155 C 
BRANCH  30  31
ATOM     31  C   UNL     1       2.976  -2.123  -3.589  0.00  0.00    +0.138 C 
ATOM     32  C   UNL     1       2.704  -1.160  -4.772  0.00  0.00    +0.035 C 
ATOM     33  C   UNL     1       2.984   0.213  -4.105  0.00  0.00    +0.031 C 
ATOM     34  C   UNL     1       2.498  -0.020  -2.658  0.00  0.00    +0.160 C 
ATOM     35  O   UNL     1       2.494  -1.433  -2.425  0.00  0.00    -0.375 OA
ENDBRANCH  30  31
ENDBRANCH   3  30
TORSDOF 6
