REMARK  Name = ZINC05185281
REMARK  8 active torsions:
REMARK  status: ('A' for Active; 'I' for Inactive)
REMARK    1  A    between atoms: C_1  and  C_2
REMARK    2  A    between atoms: C_8  and  C_9
REMARK    3  A    between atoms: C_8  and  N_54
REMARK    4  A    between atoms: C_10  and  O_29
REMARK    5  A    between atoms: C_17  and  O_20
REMARK    6  A    between atoms: O_20  and  C_21
REMARK    7  A    between atoms: C_24  and  O_27
REMARK    8  A    between atoms: O_27  and  C_28
REMARK                            x       y       z     vdW  Elec       q    Type
REMARK                         _______ _______ _______ _____ _____    ______ ____
ROOT
ATOM      1  C   UNL     1      -1.244   3.099   0.034  0.00  0.00    +0.020 A 
ATOM      2  C   UNL     1      -1.195   1.715   0.043  0.00  0.00    +0.122 A 
ATOM      3  C   UNL     1       0.029   1.049   0.055  0.00  0.00    +0.046 A 
ATOM      4  C   UNL     1       1.199   1.753   0.047  0.00  0.00    +0.019 A 
ATOM      5  C   UNL     1       1.167   3.148   0.034  0.00  0.00    +0.068 A 
ATOM      6  C   UNL     1      -0.064   3.829   0.027  0.00  0.00    +0.143 A 
ATOM      7  O   UNL     1      -0.083   5.178   0.015  0.00  0.00    -0.459 OA
ATOM      8  C   UNL     1       1.038   5.911   0.007  0.00  0.00    +0.245 A 
ATOM      9  C   UNL     1       2.269   5.362   0.012  0.00  0.00    +0.210 A 
ATOM     10  C   UNL     1       2.406   3.945   0.026  0.00  0.00    +0.235 A 
ATOM     11  O   UNL     1       3.503   3.412   0.030  0.00  0.00    -0.283 OA
ENDROOT
BRANCH   2  12
ATOM     12  O   UNL     1      -2.350   1.001   0.044  0.00  0.00    -0.506 OA
ATOM     13  H   UNL     1      -2.688   0.803   0.928  0.00  0.00    +0.292 HD
ENDBRANCH   2  12
BRANCH   1  14
ATOM     14  C   UNL     1      -2.573   3.809   0.028  0.00  0.00    -0.036 C 
BRANCH  14  21
ATOM     15  C   UNL     1      -6.217   5.323  -2.908  0.00  0.00    +0.005 C 
ATOM     16  C   UNL     1      -4.763   4.852  -2.853  0.00  0.00    -0.031 C 
ATOM     17  C   UNL     1      -4.592   3.613  -3.736  0.00  0.00    -0.001 C 
ATOM     18  C   UNL     1      -3.149   3.113  -3.628  0.00  0.00    -0.018 C 
ATOM     19  C   UNL     1      -2.828   2.810  -2.163  0.00  0.00    -0.078 C 
ATOM     20  C   UNL     1      -4.395   4.498  -1.410  0.00  0.00    -0.075 C 
ATOM     21  N   UNL     1      -2.987   4.048  -1.371  0.00  0.00    +0.383 N 
ATOM     22  H   UNL     1      -2.392   4.780  -1.774  0.00  0.00    -0.081 HD
ENDBRANCH  14  21
ENDBRANCH   1  14
BRANCH   9  23
ATOM     23  O   UNL     1       3.374   6.157   0.005  0.00  0.00    -0.449 OA
BRANCH  23  24
ATOM     24  C   UNL     1       4.004   6.362  -1.182  0.00  0.00    +0.129 A 
ATOM     25  C   UNL     1       3.458   5.860  -2.354  0.00  0.00    +0.050 A 
ATOM     26  C   UNL     1       4.095   6.074  -3.561  0.00  0.00    +0.049 A 
ATOM     27  C   UNL     1       5.288   6.781  -3.599  0.00  0.00    +0.120 A 
ATOM     28  C   UNL     1       5.838   7.278  -2.426  0.00  0.00    +0.049 A 
ATOM     29  C   UNL     1       5.197   7.070  -1.220  0.00  0.00    +0.050 A 
BRANCH  27  30
ATOM     30  O   UNL     1       5.919   6.987  -4.786  0.00  0.00    -0.495 OA
ATOM     31  C   UNL     1       5.296   6.447  -5.953  0.00  0.00    +0.277 C 
ENDBRANCH  27  30
ENDBRANCH  23  24
ENDBRANCH   9  23
TORSDOF 6
