REMARK  Name = ZINC13461715
REMARK  12 active torsions:
REMARK  status: ('A' for Active; 'I' for Inactive)
REMARK    1  A    between atoms: C_4  and  C_35
REMARK    2  A    between atoms: C_5  and  C_7
REMARK    3  A    between atoms: C_7  and  C_9
REMARK    4  A    between atoms: C_12  and  N_18
REMARK    5  A    between atoms: C_13  and  N_15
REMARK    6  A    between atoms: N_18  and  C_19
REMARK    7  A    between atoms: C_19  and  C_21
REMARK    8  A    between atoms: C_19  and  C_23
REMARK    9  A    between atoms: C_21  and  O_22
REMARK   10  A    between atoms: C_23  and  C_25
REMARK   11  A    between atoms: C_23  and  O_34
REMARK   12  A    between atoms: C_28  and  N_31
REMARK                            x       y       z     vdW  Elec       q    Type
REMARK                         _______ _______ _______ _____ _____    ______ ____
ROOT
ATOM      1  C   UNK A   0       2.711   2.496   6.070  0.00  0.00    +0.025 A 
ATOM      2  C   UNK A   0       2.416   1.262   5.479  0.00  0.00    +0.013 A 
ATOM      3  C   UNK A   0       2.376   1.151   4.118  0.00  0.00    +0.026 A 
ATOM      4  C   UNK A   0       2.638   2.261   3.319  0.00  0.00    +0.058 A 
ATOM      5  C   UNK A   0       2.931   3.491   3.903  0.00  0.00    +0.148 A 
ATOM      6  C   UNK A   0       2.968   3.611   5.263  0.00  0.00    +0.046 A 
ENDROOT
BRANCH   5   7
ATOM      7  N   UNK A   0       3.203   4.669   3.049  0.00  0.00    +0.058 N 
ATOM      8  O   UNK A   0       3.569   5.715   3.554  0.00  0.00    -0.126 OA
ATOM      9  O   UNK A   0       3.062   4.591   1.842  0.00  0.00    -0.126 OA
ENDBRANCH   5   7
BRANCH   1  10
ATOM     10  C   UNK A   0       2.749   2.622   7.537  0.00  0.00    +0.194 C 
ATOM     11  O   UNK A   0       2.904   3.714   8.050  0.00  0.00    -0.287 OA
BRANCH  10  16
ATOM     12  C   UNK A   0       1.259   0.041   9.826  0.00  0.00    +0.001 A 
ATOM     13  C   UNK A   0       2.318  -0.836   9.983  0.00  0.00    +0.001 A 
ATOM     14  C   UNK A   0       3.523  -0.599   9.350  0.00  0.00    +0.016 A 
ATOM     15  C   UNK A   0       3.678   0.528   8.547  0.00  0.00    +0.074 A 
ATOM     16  C   UNK A   0       2.600   1.421   8.386  0.00  0.00    +0.036 A 
ATOM     17  C   UNK A   0       1.395   1.167   9.037  0.00  0.00    +0.012 A 
BRANCH  15  18
ATOM     18  C   UNK A   0       4.964   0.786   7.866  0.00  0.00    +0.387 C 
ATOM     19  O   UNK A   0       5.130   1.821   7.252  0.00  0.00    -0.241 OA
ATOM     20  O   UNK A   0       5.953  -0.127   7.927  0.00  0.00    -0.241 OA
ENDBRANCH  15  18
ENDBRANCH  10  16
ENDBRANCH   1  10
BRANCH   4  21
ATOM     21  N   UNK A   1       2.600   2.143   1.935  0.00  0.00    -0.334 N 
ATOM     22  H   UNK A   1       2.699   2.931   1.378  0.00  0.00    +0.147 HD
BRANCH  21  23
ATOM     23  C   UNK A   1       2.412   0.828   1.317  0.00  0.00    +0.129 C 
BRANCH  23  24
ATOM     24  C   UNK A   1       3.764   0.123   1.194  0.00  0.00    +0.180 C 
BRANCH  24  25
ATOM     25  O   UNK A   1       4.599   0.850   0.290  0.00  0.00    -0.393 OA
ATOM     26  H   UNK A   1       5.475   0.460   0.163  0.00  0.00    +0.209 HD
ENDBRANCH  24  25
ENDBRANCH  23  24
BRANCH  23  27
ATOM     27  C   UNK A   1       1.799   1.001  -0.074  0.00  0.00    +0.167 C 
BRANCH  27  28
ATOM     28  C   UNK A   1       0.527   1.802   0.033  0.00  0.00    -0.017 A 
ATOM     29  C   UNK A   1      -0.691   1.156   0.128  0.00  0.00    +0.008 A 
ATOM     30  C   UNK A   1      -1.858   1.891   0.221  0.00  0.00    +0.033 A 
ATOM     31  C   UNK A   1      -1.806   3.272   0.231  0.00  0.00    +0.126 A 
ATOM     32  C   UNK A   1      -0.588   3.918   0.136  0.00  0.00    +0.033 A 
ATOM     33  C   UNK A   1       0.578   3.184   0.037  0.00  0.00    +0.008 A 
BRANCH  31  34
ATOM     34  N   UNK A   1      -3.056   4.059   0.337  0.00  0.00    +0.056 N 
ATOM     35  O   UNK A   1      -3.010   5.276   0.340  0.00  0.00    -0.126 OA
ATOM     36  O   UNK A   1      -4.129   3.489   0.420  0.00  0.00    -0.126 OA
ENDBRANCH  31  34
ENDBRANCH  27  28
BRANCH  27  37
ATOM     37  O   UNK A   1       2.724   1.687  -0.920  0.00  0.00    -0.385 OA
ATOM     38  H   UNK A   1       2.967   2.568  -0.604  0.00  0.00    +0.210 HD
ENDBRANCH  27  37
ENDBRANCH  23  27
ENDBRANCH  21  23
ENDBRANCH   4  21
TORSDOF 12
