REMARK  Name = ZINC01683576
REMARK  13 active torsions:
REMARK  status: ('A' for Active; 'I' for Inactive)
REMARK    1  A    between atoms: C_1  and  C_2
REMARK    2  A    between atoms: C_2  and  C_3
REMARK    3  A    between atoms: C_2  and  N_52
REMARK    4  A    between atoms: C_4  and  C_5
REMARK    5  A    between atoms: C_4  and  N_52
REMARK    6  A    between atoms: C_5  and  O_6
REMARK    7  A    between atoms: O_6  and  C_7
REMARK    8  A    between atoms: C_7  and  C_9
REMARK    9  A    between atoms: C_13  and  C_16
REMARK   10  A    between atoms: C_14  and  O_15
REMARK   11  A    between atoms: C_23  and  C_24
REMARK   12  A    between atoms: C_23  and  C_25
REMARK   13  A    between atoms: C_23  and  N_52
REMARK                            x       y       z     vdW  Elec       q    Type
REMARK                         _______ _______ _______ _____ _____    ______ ____
ROOT
ATOM      1  C   UNL     1       2.589  -6.443   1.341  0.00  0.00    +0.102 A 
ATOM      2  C   UNL     1       1.568  -7.268   1.823  0.00  0.00    +0.033 A 
ATOM      3  C   UNL     1       0.812  -6.872   2.906  0.00  0.00    +0.015 A 
ATOM      4  C   UNL     1       1.058  -5.661   3.528  0.00  0.00    +0.026 A 
ATOM      5  C   UNL     1       2.066  -4.824   3.059  0.00  0.00    +0.025 A 
ATOM      6  C   UNL     1       2.839  -5.213   1.962  0.00  0.00    +0.139 A 
ATOM      7  I   UNL     1      -0.714  -8.118   3.621  0.00  0.00    -0.044 I 
ENDROOT
BRANCH   5   8
ATOM      8  C   UNL     1       2.321  -3.523   3.725  0.00  0.00    -0.014 A 
ATOM      9  C   UNL     1       1.268  -2.644   3.971  0.00  0.00    +0.008 A 
ATOM     10  C   UNL     1       1.512  -1.435   4.591  0.00  0.00    +0.001 A 
ATOM     11  C   UNL     1       2.799  -1.096   4.968  0.00  0.00    +0.000 A 
ATOM     12  C   UNL     1       3.848  -1.965   4.727  0.00  0.00    +0.001 A 
ATOM     13  C   UNL     1       3.616  -3.176   4.107  0.00  0.00    +0.008 A 
ENDBRANCH   5   8
BRANCH   1  14
ATOM     14  C   UNL     1       3.397  -6.866   0.183  0.00  0.00    +0.343 C 
ATOM     15  O   UNL     1       4.283  -6.147  -0.235  0.00  0.00    -0.245 OA
BRANCH  14  16
ATOM     16  O   UNL     1       3.153  -8.050  -0.413  0.00  0.00    -0.463 OA
BRANCH  16  17
ATOM     17  C   UNL     1       3.988  -8.402  -1.547  0.00  0.00    +0.214 C 
BRANCH  17  18
ATOM     18  C   UNL     1       3.566  -9.770  -2.087  0.00  0.00    -0.036 C 
BRANCH  18  19
ATOM     19  N   UNL     1       2.151  -9.697  -2.506  0.00  0.00    +0.385 N 
ATOM     20  H   UNL     1       1.625  -9.152  -1.812  0.00  0.00    -0.081 HD
BRANCH  19  22
ATOM     21  C   UNL     1       1.846  -7.530  -3.591  0.00  0.00    -0.014 C 
ATOM     22  C   UNL     1       2.047  -9.030  -3.821  0.00  0.00    -0.074 C 
ATOM     23  C   UNL     1       3.323  -9.254  -4.634  0.00  0.00    -0.014 C 
ENDBRANCH  19  22
BRANCH  19  24
ATOM     24  C   UNL     1       1.576 -11.057  -2.583  0.00  0.00    -0.074 C 
ATOM     25  C   UNL     1       0.066 -10.943  -2.801  0.00  0.00    -0.014 C 
ATOM     26  C   UNL     1       2.201 -11.838  -3.740  0.00  0.00    -0.014 C 
ENDBRANCH  19  24
ENDBRANCH  18  19
ENDBRANCH  17  18
ENDBRANCH  16  17
ENDBRANCH  14  16
ENDBRANCH   1  14
BRANCH   6  27
ATOM     27  O   UNL     1       3.826  -4.405   1.501  0.00  0.00    -0.505 OA
ATOM     28  H   UNL     1       4.687  -4.563   1.912  0.00  0.00    +0.292 HD
ENDBRANCH   6  27
TORSDOF 9
