REMARK  Name = ZINC12369996
REMARK  11 active torsions:
REMARK  status: ('A' for Active; 'I' for Inactive)
REMARK    1  A    between atoms: C_1  and  C_2
REMARK    2  A    between atoms: C_2  and  O_3
REMARK    3  A    between atoms: O_3  and  C_4
REMARK    4  A    between atoms: C_4  and  C_6
REMARK    5  A    between atoms: C_7  and  C_34
REMARK    6  A    between atoms: C_8  and  S_13
REMARK    7  A    between atoms: C_10  and  C_12
REMARK    8  A    between atoms: S_13  and  C_14
REMARK    9  A    between atoms: C_17  and  C_20
REMARK   10  A    between atoms: C_22  and  C_30
REMARK   11  A    between atoms: C_24  and  C_26
REMARK                            x       y       z     vdW  Elec       q    Type
REMARK                         _______ _______ _______ _____ _____    ______ ____
ROOT
ATOM      1  C   UNL     1      -0.897   3.800   0.829  0.00  0.00    +0.195 A 
ATOM      2  N   UNL     1      -1.612   4.925   1.126  0.00  0.00    -0.316 N 
ATOM      3  H   UNL     1      -1.268   5.824   1.244  0.00  0.00    +0.169 HD
ATOM      4  C   UNL     1      -2.922   4.517   1.221  0.00  0.00    +0.162 A 
ATOM      5  N   UNL     1      -2.942   3.225   0.989  0.00  0.00    -0.128 NA
ATOM      6  N   UNL     1      -1.750   2.804   0.754  0.00  0.00    -0.122 NA
ENDROOT
BRANCH   4   7
ATOM      7  C   UNL     1      -4.088   5.373   1.526  0.00  0.00    +0.020 A 
ATOM      8  C   UNL     1      -3.914   6.739   1.757  0.00  0.00    +0.024 A 
ATOM      9  C   UNL     1      -5.007   7.532   2.036  0.00  0.00    +0.056 A 
ATOM     10  C   UNL     1      -6.272   6.976   2.099  0.00  0.00    +0.024 A 
ATOM     11  C   UNL     1      -6.451   5.622   1.876  0.00  0.00    +0.056 A 
ATOM     12  C   UNL     1      -5.367   4.818   1.591  0.00  0.00    +0.024 A 
BRANCH  11  13
ATOM     13  C   UNL     1      -7.833   5.024   1.946  0.00  0.00    +0.417 C 
ATOM     14  F   UNL     1      -8.095   4.606   3.255  0.00  0.00    -0.166 F 
ATOM     15  F   UNL     1      -8.776   5.985   1.566  0.00  0.00    -0.166 F 
ATOM     16  F   UNL     1      -7.910   3.928   1.081  0.00  0.00    -0.166 F 
ENDBRANCH  11  13
BRANCH   9  17
ATOM     17  C   UNL     1      -4.822   9.008   2.279  0.00  0.00    +0.417 C 
ATOM     18  F   UNL     1      -6.064   9.596   2.545  0.00  0.00    -0.166 F 
ATOM     19  F   UNL     1      -3.972   9.198   3.374  0.00  0.00    -0.166 F 
ATOM     20  F   UNL     1      -4.260   9.601   1.144  0.00  0.00    -0.166 F 
ENDBRANCH   9  17
ENDBRANCH   4   7
BRANCH   1  21
ATOM     21  S   UNL     1       0.846   3.703   0.586  0.00  0.00    -0.030 S 
BRANCH  21  24
ATOM     22  C   UNL     1       2.347   0.063  -0.267  0.00  0.00    +0.155 A 
ATOM     23  C   UNL     1       2.271   1.428  -0.010  0.00  0.00    +0.014 A 
ATOM     24  C   UNL     1       1.013   1.981   0.253  0.00  0.00    +0.111 A 
ATOM     25  N   UNL     1      -0.053   1.188   0.248  0.00  0.00    -0.225 NA
ATOM     26  C   UNL     1       0.063  -0.102  -0.001  0.00  0.00    +0.128 A 
ATOM     27  N   UNL     1       1.227  -0.661  -0.253  0.00  0.00    -0.225 NA
ATOM     28  C   UNL     1      -1.175  -0.961   0.004  0.00  0.00    +0.088 C 
ATOM     29  C   UNL     1       3.509   2.287  -0.016  0.00  0.00    +0.049 C 
BRANCH  22  30
ATOM     30  C   UNL     1       3.654  -0.578  -0.551  0.00  0.00    +0.358 C 
ATOM     31  O   UNL     1       4.653   0.103  -0.664  0.00  0.00    -0.243 OA
BRANCH  30  32
ATOM     32  O   UNL     1       3.733  -1.915  -0.685  0.00  0.00    -0.460 OA
BRANCH  32  34
ATOM     33  C   UNL     1       4.937  -3.995  -1.081  0.00  0.00    +0.048 C 
ATOM     34  C   UNL     1       5.045  -2.474  -0.964  0.00  0.00    +0.229 C 
ENDBRANCH  32  34
ENDBRANCH  30  32
ENDBRANCH  22  30
ENDBRANCH  21  24
ENDBRANCH   1  21
TORSDOF 8
