REMARK  Name = ZINC00931037
REMARK  6 active torsions:
REMARK  status: ('A' for Active; 'I' for Inactive)
REMARK    1  A    between atoms: C_9  and  C_12
REMARK    2  A    between atoms: N_14  and  C_15
REMARK    3  A    between atoms: N_14  and  C_22
REMARK    4  A    between atoms: C_22  and  C_24
REMARK    5  A    between atoms: C_22  and  C_29
REMARK    6  A    between atoms: N_31  and  C_32
REMARK                            x       y       z     vdW  Elec       q    Type
REMARK                         _______ _______ _______ _____ _____    ______ ____
ROOT
ATOM      1  C   UNL     1      -1.256   7.304  -0.057  0.00  0.00    +0.265 C 
ATOM      2  O   UNL     1      -1.369   6.109   0.118  0.00  0.00    -0.271 OA
ATOM      3  N   UNL     1      -2.174   8.149   0.452  0.00  0.00    -0.249 N 
ENDROOT
BRANCH   1  12
ATOM      4  C   UNL     1       4.437   7.629  -2.846  0.00  0.00    +0.004 A 
ATOM      5  C   UNL     1       3.810   6.447  -3.194  0.00  0.00    +0.004 A 
ATOM      6  C   UNL     1       2.550   6.160  -2.705  0.00  0.00    +0.049 A 
ATOM      7  C   UNL     1       1.911   7.057  -1.863  0.00  0.00    +0.163 A 
ATOM      8  C   UNL     1       2.539   8.247  -1.515  0.00  0.00    +0.162 A 
ATOM      9  C   UNL     1       3.807   8.526  -2.004  0.00  0.00    +0.049 A 
ATOM     10  O   UNL     1       1.928   9.143  -0.694  0.00  0.00    -0.484 OA
ATOM     11  C   UNL     1       0.825   8.659   0.081  0.00  0.00    +0.283 C 
ATOM     12  C   UNL     1      -0.089   7.843  -0.844  0.00  0.00    +0.296 C 
ATOM     13  O   UNL     1       0.672   6.758  -1.383  0.00  0.00    -0.472 OA
ENDBRANCH   1  12
BRANCH   3  14
ATOM     14  C   UNL     1      -3.186   7.663   1.287  0.00  0.00    +0.040 A 
ATOM     15  C   UNL     1      -3.158   6.343   1.718  0.00  0.00    +0.024 A 
ATOM     16  C   UNL     1      -4.157   5.864   2.542  0.00  0.00    +0.005 A 
ATOM     17  C   UNL     1      -5.187   6.698   2.939  0.00  0.00    +0.038 A 
ATOM     18  C   UNL     1      -5.219   8.015   2.512  0.00  0.00    +0.125 A 
ATOM     19  C   UNL     1      -4.216   8.501   1.691  0.00  0.00    +0.062 A 
ATOM     20  F   UNL     1      -6.226   8.827   2.901  0.00  0.00    -0.205 F 
ENDBRANCH   3  14
BRANCH   3  21
ATOM     21  C   UNL     1      -2.112   9.577   0.131  0.00  0.00    +0.233 C 
BRANCH  21  22
ATOM     22  C   UNL     1      -3.303   9.954  -0.713  0.00  0.00    +0.135 A 
ATOM     23  C   UNL     1      -3.289  10.799  -1.759  0.00  0.00    +0.047 A 
ATOM     24  C   UNL     1      -4.612  10.860  -2.254  0.00  0.00    +0.041 A 
ATOM     25  C   UNL     1      -5.357  10.054  -1.475  0.00  0.00    +0.195 A 
ATOM     26  O   UNL     1      -4.558   9.508  -0.543  0.00  0.00    -0.465 OA
ENDBRANCH  21  22
BRANCH  21  27
ATOM     27  C   UNL     1      -2.126  10.380   1.406  0.00  0.00    +0.242 C 
ATOM     28  O   UNL     1      -2.181   9.815   2.478  0.00  0.00    -0.273 OA
ATOM     29  N   UNL     1      -2.076  11.726   1.356  0.00  0.00    -0.311 N 
ATOM     30  H   UNL     1      -2.031  12.178   0.499  0.00  0.00    +0.149 HD
BRANCH  29  31
ATOM     31  C   UNL     1      -2.089  12.506   2.596  0.00  0.00    +0.073 C 
ATOM     32  C   UNL     1      -3.535  12.723   3.047  0.00  0.00    +0.022 C 
ATOM     33  C   UNL     1      -3.548  13.537   4.342  0.00  0.00    +0.002 C 
ATOM     34  C   UNL     1      -2.881  14.893   4.099  0.00  0.00    +0.000 C 
ATOM     35  C   UNL     1      -1.435  14.676   3.648  0.00  0.00    +0.002 C 
ATOM     36  C   UNL     1      -1.422  13.861   2.353  0.00  0.00    +0.022 C 
ENDBRANCH  29  31
ENDBRANCH  21  27
ENDBRANCH   3  21
TORSDOF 6
