REMARK  Name = ZINC05705892
REMARK  4 active torsions:
REMARK  status: ('A' for Active; 'I' for Inactive)
REMARK    1  A    between atoms: C_1  and  C_2
REMARK    2  A    between atoms: C_2  and  C_27
REMARK    3  A    between atoms: C_6  and  C_17
REMARK    4  A    between atoms: C_13  and  O_15
REMARK                            x       y       z     vdW  Elec       q    Type
REMARK                         _______ _______ _______ _____ _____    ______ ____
ROOT
ATOM      1  C   UNL     1      -2.134   0.962   1.327  0.00  0.00    +0.031 C 
ATOM      2  C   UNL     1      -0.738   1.584   1.263  0.00  0.00    +0.033 C 
ATOM      3  C   UNL     1       0.008   1.043   0.038  0.00  0.00    +0.056 C 
ATOM      4  C   UNL     1      -0.722   1.510  -1.226  0.00  0.00    +0.070 C 
ATOM      5  C   UNL     1      -2.118   0.883  -1.266  0.00  0.00    +0.080 C 
ATOM      6  C   UNL     1      -2.710   1.111  -2.663  0.00  0.00    +0.206 C 
ATOM      7  O   UNL     1      -1.915   0.397  -3.610  0.00  0.00    -0.484 OA
ATOM      8  C   UNL     1      -0.567   0.559  -3.558  0.00  0.00    +0.130 A 
ATOM      9  C   UNL     1       0.062   1.083  -2.441  0.00  0.00    +0.019 A 
ATOM     10  C   UNL     1       1.440   1.224  -2.426  0.00  0.00    +0.033 A 
ATOM     11  C   UNL     1       2.193   0.847  -3.522  0.00  0.00    +0.083 A 
ATOM     12  C   UNL     1       1.566   0.323  -4.645  0.00  0.00    +0.139 A 
ATOM     13  C   UNL     1       0.189   0.181  -4.662  0.00  0.00    +0.092 A 
ATOM     14 CL   UNL     1       3.919   1.026  -3.494  0.00  0.00    -0.080 Cl
ATOM     15  N   UNL     1      -0.839   2.968  -1.204  0.00  0.00    -0.290 N 
ATOM     16  C   UNL     1      -0.906   3.645  -0.048  0.00  0.00    +0.301 C 
ATOM     17  O   UNL     1      -1.014   4.855  -0.085  0.00  0.00    -0.253 OA
ATOM     18  N   UNL     1      -0.858   3.038   1.148  0.00  0.00    -0.294 N 
ATOM     19  C   UNL     1       0.041   1.230   2.532  0.00  0.00    +0.031 C 
ATOM     20  H   UNL     1      -0.869   3.455  -2.042  0.00  0.00    +0.151 HD
ATOM     21  H   UNL     1      -0.902   3.575   1.955  0.00  0.00    +0.151 HD
ENDROOT
BRANCH   6  22
ATOM     22  C   UNL     1      -4.128   0.602  -2.704  0.00  0.00    -0.007 A 
ATOM     23  C   UNL     1      -4.372  -0.751  -2.845  0.00  0.00    +0.007 A 
ATOM     24  C   UNL     1      -5.673  -1.218  -2.877  0.00  0.00    +0.000 A 
ATOM     25  C   UNL     1      -6.729  -0.332  -2.779  0.00  0.00    +0.000 A 
ATOM     26  C   UNL     1      -6.484   1.022  -2.643  0.00  0.00    +0.000 A 
ATOM     27  C   UNL     1      -5.183   1.489  -2.606  0.00  0.00    +0.007 A 
ENDBRANCH   6  22
BRANCH  12  28
ATOM     28  O   UNL     1       2.303  -0.048  -5.725  0.00  0.00    -0.505 OA
ATOM     29  H   UNL     1       2.596  -0.970  -5.703  0.00  0.00    +0.292 HD
ENDBRANCH  12  28
TORSDOF 2
