REMARK  Name = ZINC12844441
REMARK  8 active torsions:
REMARK  status: ('A' for Active; 'I' for Inactive)
REMARK    1  A    between atoms: C_1  and  C_2
REMARK    2  A    between atoms: C_2  and  C_3
REMARK    3  A    between atoms: C_3  and  C_5
REMARK    4  A    between atoms: C_3  and  C_6
REMARK    5  A    between atoms: C_9  and  N_12
REMARK    6  A    between atoms: C_13  and  C_15
REMARK    7  A    between atoms: C_19  and  C_30
REMARK    8  A    between atoms: C_22  and  C_26
REMARK                            x       y       z     vdW  Elec       q    Type
REMARK                         _______ _______ _______ _____ _____    ______ ____
ROOT
ATOM      1  C   UNL     1       2.562  -8.187   0.696  0.00  0.00    +0.110 C 
ATOM      2  C   UNL     1       1.524  -9.057   0.615  0.00  0.00    +0.072 C 
ATOM      3  C   UNL     1       2.091 -10.393   0.442  0.00  0.00    +0.114 C 
ATOM      4  N   UNL     1       1.495 -11.546   0.326  0.00  0.00    -0.362 N 
ATOM      5  C   UNL     1       2.309 -12.760   0.198  0.00  0.00    +0.149 C 
ATOM      6  C   UNL     1       3.614 -12.457  -0.539  0.00  0.00    +0.065 C 
ATOM      7  C   UNL     1       4.391 -11.363   0.209  0.00  0.00    +0.202 C 
ATOM      8  N   UNL     1       3.472 -10.237   0.408  0.00  0.00    -0.226 N 
ATOM      9  N   UNL     1       3.752  -8.886   0.579  0.00  0.00    -0.258 N 
ATOM     10  H   UNL     1       4.639  -8.496   0.613  0.00  0.00    +0.170 HD
ATOM     11  H   UNL     1       0.526 -11.601   0.325  0.00  0.00    +0.162 HD
ENDROOT
BRANCH   5  12
ATOM     12  C   UNL     1       2.627 -13.292   1.572  0.00  0.00    +0.127 A 
ATOM     13  C   UNL     1       2.645 -14.589   1.928  0.00  0.00    +0.047 A 
ATOM     14  C   UNL     1       2.990 -14.632   3.299  0.00  0.00    +0.041 A 
ATOM     15  C   UNL     1       3.162 -13.359   3.698  0.00  0.00    +0.195 A 
ATOM     16  O   UNL     1       2.947 -12.552   2.646  0.00  0.00    -0.466 OA
ENDBRANCH   5  12
BRANCH   1  18
ATOM     17  N   UNL     1       1.224  -6.156   0.979  0.00  0.00    -0.280 N 
ATOM     18  C   UNL     1       2.441  -6.725   0.876  0.00  0.00    +0.264 C 
ATOM     19  O   UNL     1       3.441  -6.035   0.931  0.00  0.00    -0.268 OA
ATOM     20  H   UNL     1       0.430  -6.713   1.012  0.00  0.00    +0.155 HD
BRANCH  17  24
ATOM     21  C   UNL     1       0.869  -2.010   1.154  0.00  0.00    -0.044 A 
ATOM     22  C   UNL     1      -0.023  -2.809   1.845  0.00  0.00    +0.006 A 
ATOM     23  C   UNL     1       0.091  -4.184   1.789  0.00  0.00    +0.023 A 
ATOM     24  C   UNL     1       1.105  -4.765   1.037  0.00  0.00    +0.034 A 
ATOM     25  C   UNL     1       2.000  -3.959   0.344  0.00  0.00    +0.023 A 
ATOM     26  C   UNL     1       1.876  -2.585   0.401  0.00  0.00    +0.006 A 
BRANCH  21  27
ATOM     27  C   UNL     1       0.741  -0.510   1.218  0.00  0.00    +0.016 C 
ATOM     28  C   UNL     1       0.884  -0.047   2.669  0.00  0.00    +0.012 C 
BRANCH  27  30
ATOM     29  C   UNL     1      -0.713   1.435   0.629  0.00  0.00    +0.004 C 
ATOM     30  C   UNL     1      -0.630  -0.092   0.682  0.00  0.00    +0.004 C 
ENDBRANCH  27  30
ENDBRANCH  21  27
ENDBRANCH  17  24
ENDBRANCH   1  18
BRANCH   7  31
ATOM     31  C   UNL     1       5.593 -10.915  -0.624  0.00  0.00    +0.410 C 
ATOM     32  F   UNL     1       5.149 -10.408  -1.850  0.00  0.00    -0.169 F 
ATOM     33  F   UNL     1       6.293  -9.919   0.066  0.00  0.00    -0.169 F 
ATOM     34  F   UNL     1       6.437 -12.008  -0.849  0.00  0.00    -0.169 F 
ENDBRANCH   7  31
TORSDOF 6
