REMARK  Name = ZINC21175418
REMARK  7 active torsions:
REMARK  status: ('A' for Active; 'I' for Inactive)
REMARK    1  A    between atoms: C_1  and  C_2
REMARK    2  A    between atoms: C_15  and  C_17
REMARK    3  A    between atoms: C_17  and  C_19
REMARK    4  A    between atoms: C_17  and  S_20
REMARK    5  A    between atoms: S_20  and  C_21
REMARK    6  A    between atoms: N_31  and  C_32
REMARK    7  A    between atoms: C_32  and  C_33
REMARK                            x       y       z     vdW  Elec       q    Type
REMARK                         _______ _______ _______ _____ _____    ______ ____
ROOT
ATOM      1  C   UNL     1      -0.234  -8.170   2.263  0.00  0.00    +0.117 C 
ATOM      2  C   UNL     1      -1.028  -8.373   3.555  0.00  0.00    +0.027 C 
ENDROOT
BRANCH   1  16
ATOM      3  C   UNL     1      -0.019   1.526   0.010  0.00  0.00    +0.008 C 
ATOM      4  C   UNL     1       0.002  -0.004   0.002  0.00  0.00    -0.009 C 
ATOM      5  C   UNL     1      -1.433  -0.537   0.021  0.00  0.00    +0.008 C 
ATOM      6  C   UNL     1      -1.430  -2.044  -0.237  0.00  0.00    +0.037 C 
ATOM      7  C   UNL     1      -0.472  -2.712   0.745  0.00  0.00    -0.023 A 
ATOM      8  C   UNL     1       0.476  -1.985   1.383  0.00  0.00    -0.004 A 
ATOM      9  S   UNL     1       1.343  -3.148   2.406  0.00  0.00    -0.073 S 
ATOM     10  C   UNL     1       0.437  -4.601   1.978  0.00  0.00    +0.116 A 
ATOM     11  C   UNL     1      -0.517  -4.131   1.048  0.00  0.00    +0.075 A 
ATOM     12  C   UNL     1      -1.426  -5.099   0.502  0.00  0.00    +0.260 A 
ATOM     13  O   UNL     1      -2.286  -4.796  -0.308  0.00  0.00    -0.267 OA
ATOM     14  N   UNL     1      -1.267  -6.369   0.944  0.00  0.00    -0.309 N 
ATOM     15  H   UNL     1      -1.860  -7.056   0.601  0.00  0.00    +0.170 HD
ATOM     16  C   UNL     1      -0.319  -6.726   1.843  0.00  0.00    +0.124 A 
ATOM     17  N   UNL     1       0.532  -5.869   2.365  0.00  0.00    -0.225 NA
ATOM     18  C   UNL     1       0.737  -0.516   1.249  0.00  0.00    +0.046 C 
ENDBRANCH   1  16
BRANCH   1  19
ATOM     19  S   UNL     1       1.502  -8.617   2.545  0.00  0.00    -0.077 S 
BRANCH  19  20
ATOM     20  C   UNL     1       1.448 -10.347   2.879  0.00  0.00    +0.173 A 
ATOM     21  N   UNL     1       0.285 -10.950   2.863  0.00  0.00    -0.223 NA
ATOM     22  C   UNL     1       0.170 -12.270   3.109  0.00  0.00    +0.079 A 
ATOM     23  C   UNL     1      -1.071 -12.914   3.091  0.00  0.00    +0.028 A 
ATOM     24  C   UNL     1      -1.141 -14.255   3.347  0.00  0.00    +0.002 A 
ATOM     25  C   UNL     1       0.004 -14.990   3.625  0.00  0.00    +0.001 A 
ATOM     26  C   UNL     1       1.232 -14.389   3.650  0.00  0.00    +0.015 A 
ATOM     27  C   UNL     1       1.333 -13.022   3.393  0.00  0.00    +0.065 A 
ATOM     28  C   UNL     1       2.625 -12.323   3.405  0.00  0.00    +0.263 A 
ATOM     29  O   UNL     1       3.662 -12.916   3.642  0.00  0.00    -0.267 OA
ATOM     30  N   UNL     1       2.621 -10.997   3.138  0.00  0.00    -0.283 N 
BRANCH  30  31
ATOM     31  C   UNL     1       3.882 -10.252   3.131  0.00  0.00    +0.154 C 
BRANCH  31  32
ATOM     32  C   UNL     1       4.160  -9.723   4.515  0.00  0.00    -0.013 C 
ATOM     33  C   UNL     1       5.295 -10.003   5.107  0.00  0.00    +0.005 C 
ENDBRANCH  31  32
ENDBRANCH  30  31
ENDBRANCH  19  20
ENDBRANCH   1  19
TORSDOF 5
