REMARK  Name = ZINC63187671
REMARK  9 active torsions:
REMARK  status: ('A' for Active; 'I' for Inactive)
REMARK    1  A    between atoms: C_1  and  C_2
REMARK    2  A    between atoms: C_5  and  N_9
REMARK    3  A    between atoms: C_10  and  C_37
REMARK    4  A    between atoms: C_13  and  C_16
REMARK    5  A    between atoms: C_14  and  C_15
REMARK    6  A    between atoms: C_16  and  C_18
REMARK    7  A    between atoms: C_18  and  N_19
REMARK    8  A    between atoms: C_22  and  C_27
REMARK    9  A    between atoms: C_27  and  C_28
REMARK                            x       y       z     vdW  Elec       q    Type
REMARK                         _______ _______ _______ _____ _____    ______ ____
ROOT
ATOM      1  N   UNL     1      -0.110  -9.597  -2.577  0.00  0.00    -0.217 N 
ATOM      2  C   UNL     1      -1.271 -10.052  -3.089  0.00  0.00    +0.244 C 
ATOM      3  O   UNL     1      -2.390  -9.830  -2.678  0.00  0.00    -0.273 OA
ATOM      4  C   UNL     1      -0.886 -10.900  -4.285  0.00  0.00    +0.165 C 
ATOM      5  N   UNL     1       0.584 -10.816  -4.311  0.00  0.00    -0.287 N 
ATOM      6  C   UNL     1       0.943 -10.030  -3.279  0.00  0.00    +0.310 C 
ATOM      7  O   UNL     1       2.095  -9.749  -3.013  0.00  0.00    -0.252 OA
ATOM      8  H   UNL     1       1.178 -11.241  -4.949  0.00  0.00    +0.151 HD
ENDROOT
BRANCH   1   9
ATOM      9  C   UNL     1      -0.014  -8.729  -1.400  0.00  0.00    +0.197 C 
BRANCH   9  10
ATOM     10  C   UNL     1      -0.067  -7.287  -1.834  0.00  0.00    +0.178 C 
ATOM     11  O   UNL     1      -0.176  -7.011  -3.012  0.00  0.00    -0.291 OA
BRANCH  10  15
ATOM     12  N   UNL     1       0.062  -4.170  -0.024  0.00  0.00    -0.300 N 
ATOM     13  C   UNL     1       0.178  -5.019   1.169  0.00  0.00    +0.080 C 
ATOM     14  C   UNL     1       0.143  -6.458   0.617  0.00  0.00    +0.062 C 
ATOM     15  C   UNL     1       0.008  -6.264  -0.878  0.00  0.00    +0.015 C 
ATOM     16  C   UNL     1      -0.034  -4.941  -1.133  0.00  0.00    +0.015 C 
ATOM     17  C   UNL     1      -0.172  -4.373  -2.522  0.00  0.00    +0.061 C 
ATOM     18  C   UNL     1      -1.001  -4.778   2.114  0.00  0.00    +0.029 C 
BRANCH  12  23
ATOM     19  C   UNL     1       0.011   1.503   0.013  0.00  0.00    +0.047 C 
ATOM     20  C   UNL     1       0.025  -0.004   0.003  0.00  0.00    -0.015 A 
ATOM     21  C   UNL     1       1.181  -0.686   0.332  0.00  0.00    +0.008 A 
ATOM     22  C   UNL     1       1.197  -2.067   0.324  0.00  0.00    +0.024 A 
ATOM     23  C   UNL     1       0.049  -2.772  -0.015  0.00  0.00    +0.037 A 
ATOM     24  C   UNL     1      -1.113  -2.086  -0.344  0.00  0.00    +0.062 A 
ATOM     25  C   UNL     1      -1.124  -0.703  -0.330  0.00  0.00    +0.128 A 
ATOM     26  F   UNL     1      -2.254  -0.033  -0.646  0.00  0.00    -0.205 F 
ENDBRANCH  12  23
ENDBRANCH  10  15
ENDBRANCH   9  10
ENDBRANCH   1   9
BRANCH   4  27
ATOM     27  C   UNL     1      -1.343 -12.347  -4.089  0.00  0.00    +0.065 C 
BRANCH  27  28
ATOM     28  C   UNL     1      -1.059 -13.137  -5.340  0.00  0.00    -0.039 C 
ATOM     29  C   UNL     1       0.030 -13.901  -5.590  0.00  0.00    -0.001 A 
ATOM     30  C   UNL     1       1.229 -14.210  -4.803  0.00  0.00    +0.010 A 
ATOM     31  C   UNL     1       2.169 -15.025  -5.333  0.00  0.00    +0.001 A 
ATOM     32  C   UNL     1       2.027 -15.580  -6.612  0.00  0.00    +0.002 A 
ATOM     33  C   UNL     1       0.954 -15.342  -7.395  0.00  0.00    +0.026 A 
ATOM     34  C   UNL     1      -0.097 -14.499  -6.938  0.00  0.00    +0.043 A 
ATOM     35  N   UNL     1      -1.219 -14.121  -7.499  0.00  0.00    -0.380 N 
ATOM     36  C   UNL     1      -1.936 -13.243  -6.567  0.00  0.00    +0.144 C 
ATOM     37  H   UNL     1      -1.527 -14.381  -8.382  0.00  0.00    +0.160 HD
ENDBRANCH  27  28
ENDBRANCH   4  27
TORSDOF 6
