REMARK  Name = ZINC63767362
REMARK  4 active torsions:
REMARK  status: ('A' for Active; 'I' for Inactive)
REMARK    1  A    between atoms: C_1  and  S_2
REMARK    2  A    between atoms: S_2  and  C_3
REMARK    3  A    between atoms: C_3  and  N_18
REMARK    4  A    between atoms: N_18  and  C_19
REMARK                            x       y       z     vdW  Elec       q    Type
REMARK                         _______ _______ _______ _____ _____    ______ ____
ROOT
ATOM      1  C   UNL     1      -1.708  -0.607  -0.029  0.00  0.00    +0.164 C 
ATOM      2  C   UNL     1      -1.734  -2.137   0.008  0.00  0.00    +0.156 C 
ATOM      3  C   UNL     1      -1.105  -2.605  -1.299  0.00  0.00    -0.033 C 
ATOM      4  C   UNL     1      -0.126  -3.435  -0.969  0.00  0.00    +0.002 A 
ATOM      5  C   UNL     1       0.777  -4.263  -1.785  0.00  0.00    +0.048 A 
ATOM      6  C   UNL     1       1.694  -5.002  -1.104  0.00  0.00    +0.124 A 
ATOM      7  C   UNL     1       1.802  -4.998   0.293  0.00  0.00    +0.040 A 
ATOM      8  C   UNL     1       1.009  -4.272   1.120  0.00  0.00    +0.029 A 
ATOM      9  C   UNL     1       0.003  -3.460   0.521  0.00  0.00    +0.043 A 
ATOM     10  N   UNL     1      -0.907  -2.687   1.081  0.00  0.00    -0.374 N 
ATOM     11  F   UNL     1       2.546  -5.777  -1.810  0.00  0.00    -0.205 F 
ATOM     12  C   UNL     1      -1.553  -2.059  -2.634  0.00  0.00    +0.049 C 
ATOM     13  C   UNL     1      -1.596  -0.528  -2.478  0.00  0.00    +0.088 C 
ATOM     14  N   UNL     1      -2.352  -0.164  -1.276  0.00  0.00    -0.285 NA
ATOM     15  H   UNL     1      -3.302  -0.498  -1.331  0.00  0.00    +0.125 HD
ATOM     16  H   UNL     1      -1.014  -2.507   2.029  0.00  0.00    +0.160 HD
ENDROOT
BRANCH   1  18
ATOM     17  C   UNL     1       0.498  -0.228   1.749  0.00  0.00    +0.088 C 
ATOM     18  S   UNL     1       0.008  -0.022   0.014  0.00  0.00    -0.120 S 
ENDBRANCH   1  18
BRANCH   1  19
ATOM     19  N   UNL     1      -2.443  -0.071   1.125  0.00  0.00    -0.253 N 
ATOM     20  H   UNL     1      -3.350  -0.506   1.210  0.00  0.00    +0.161 HD
BRANCH  19  21
ATOM     21  C   UNL     1      -2.563   1.351   1.040  0.00  0.00    +0.168 C 
ATOM     22  N   UNL     1      -2.658   2.482   0.973  0.00  0.00    -0.174 NA
ENDBRANCH  19  21
ENDBRANCH   1  19
TORSDOF 3
