REMARK  Name = ZINC16843905
REMARK  5 active torsions:
REMARK  status: ('A' for Active; 'I' for Inactive)
REMARK    1  A    between atoms: C_8  and  C_14
REMARK    2  A    between atoms: C_17  and  C_20
REMARK    3  A    between atoms: C_20  and  O_22
REMARK    4  A    between atoms: O_22  and  C_23
REMARK    5  A    between atoms: C_23  and  C_24
REMARK                            x       y       z     vdW  Elec       q    Type
REMARK                         _______ _______ _______ _____ _____    ______ ____
ROOT
ATOM      1  C   UNL     1       2.340   4.262  -1.903  0.00  0.00    -0.011 A 
ATOM      2  C   UNL     1       3.573   4.441  -2.505  0.00  0.00    +0.007 A 
ATOM      3  C   UNL     1       3.691   4.364  -3.877  0.00  0.00    +0.015 A 
ATOM      4  C   UNL     1       2.561   4.117  -4.659  0.00  0.00    +0.059 A 
ATOM      5  C   UNL     1       1.319   3.943  -4.045  0.00  0.00    +0.015 A 
ATOM      6  C   UNL     1       1.216   4.017  -2.671  0.00  0.00    +0.007 A 
ENDROOT
BRANCH   1  14
ATOM      7  C   UNL     1       0.002  -0.004   0.002  0.00  0.00    +0.002 A 
ATOM      8  C   UNL     1       1.206  -0.685  -0.013  0.00  0.00    +0.002 A 
ATOM      9  C   UNL     1       2.396   0.020  -0.029  0.00  0.00    +0.030 A 
ATOM     10  C   UNL     1       2.381   1.399  -0.028  0.00  0.00    +0.126 A 
ATOM     11  C   UNL     1       1.179   2.093   0.002  0.00  0.00    +0.055 A 
ATOM     12  C   UNL     1      -0.017   1.375   0.010  0.00  0.00    +0.025 A 
ATOM     13  N   UNL     1       1.127   3.483   0.048  0.00  0.00    -0.322 N 
ATOM     14  C   UNL     1       2.220   4.342  -0.403  0.00  0.00    +0.191 C 
ATOM     15  N   UNL     1       3.475   3.879   0.223  0.00  0.00    -0.166 NA
ATOM     16  S   UNL     1       3.903   2.296  -0.084  0.00  0.00    +0.062 S 
ATOM     17  O   UNL     1       4.685   1.855   1.018  0.00  0.00    -0.153 OA
ATOM     18  O   UNL     1       4.365   2.245  -1.426  0.00  0.00    -0.153 OA
ATOM     19  H   UNL     1       0.325   3.903   0.396  0.00  0.00    +0.148 HD
ATOM     20  H   UNL     1       4.017   4.460   0.780  0.00  0.00    +0.150 HD
ENDBRANCH   1  14
BRANCH   4  21
ATOM     21  C   UNL     1       2.679   4.039  -6.130  0.00  0.00    +0.339 C 
ATOM     22  O   UNL     1       1.694   3.825  -6.808  0.00  0.00    -0.245 OA
BRANCH  21  23
ATOM     23  O   UNL     1       3.878   4.207  -6.719  0.00  0.00    -0.456 OA
BRANCH  23  24
ATOM     24  C   UNL     1       3.920   4.118  -8.168  0.00  0.00    +0.269 C 
BRANCH  24  25
ATOM     25  C   UNL     1       5.333   4.331  -8.644  0.00  0.00    +0.008 A 
ATOM     26  C   UNL     1       6.343   4.565  -7.729  0.00  0.00    +0.011 A 
ATOM     27  C   UNL     1       7.639   4.761  -8.165  0.00  0.00    +0.039 A 
ATOM     28  C   UNL     1       7.928   4.721  -9.519  0.00  0.00    +0.125 A 
ATOM     29  C   UNL     1       6.918   4.486 -10.435  0.00  0.00    +0.058 A 
ATOM     30  C   UNL     1       5.621   4.285  -9.997  0.00  0.00    +0.050 A 
ATOM     31 CL   UNL     1       4.354   3.983 -11.144  0.00  0.00    -0.083 Cl
ATOM     32  F   UNL     1       9.196   4.912  -9.945  0.00  0.00    -0.205 F 
ENDBRANCH  24  25
ENDBRANCH  23  24
ENDBRANCH  21  23
ENDBRANCH   4  21
TORSDOF 5
