REMARK  Name = ZINC56229193
REMARK  7 active torsions:
REMARK  status: ('A' for Active; 'I' for Inactive)
REMARK    1  A    between atoms: C_6  and  O_7
REMARK    2  A    between atoms: O_7  and  C_8
REMARK    3  A    between atoms: C_8  and  C_9
REMARK    4  A    between atoms: C_11  and  C_14
REMARK    5  A    between atoms: C_14  and  S_15
REMARK    6  A    between atoms: S_15  and  C_16
REMARK    7  A    between atoms: C_16  and  C_17
REMARK                            x       y       z     vdW  Elec       q    Type
REMARK                         _______ _______ _______ _____ _____    ______ ____
ROOT
ATOM      1  C   UNL     1      -5.282  -3.931  -2.009  0.00  0.00    +0.125 C 
ENDROOT
BRANCH   1   4
ATOM      2  C   UNL     1      -2.454  -2.722   0.012  0.00  0.00    +0.116 A 
ATOM      3  N   UNL     1      -3.209  -3.043  -1.009  0.00  0.00    -0.245 NA
ATOM      4  C   UNL     1      -4.410  -3.561  -0.838  0.00  0.00    +0.059 A 
ATOM      5  C   UNL     1      -4.824  -3.744   0.442  0.00  0.00    +0.071 A 
ATOM      6  S   UNL     1      -3.401  -3.143   1.338  0.00  0.00    -0.077 S 
BRANCH   2   7
ATOM      7  C   UNL     1      -1.070  -2.126   0.001  0.00  0.00    +0.291 C 
BRANCH   7   8
ATOM      8  O   UNL     1      -1.165  -0.701   0.010  0.00  0.00    -0.485 OA
BRANCH   8  14
ATOM      9  C   UNL     1      -0.017   1.383   0.010  0.00  0.00    +0.047 A 
ATOM     10  C   UNL     1       1.171   2.089   0.002  0.00  0.00    +0.023 A 
ATOM     11  C   UNL     1       2.378   1.414  -0.013  0.00  0.00    +0.041 A 
ATOM     12  C   UNL     1       2.399   0.030  -0.021  0.00  0.00    +0.023 A 
ATOM     13  C   UNL     1       1.214  -0.679  -0.014  0.00  0.00    +0.047 A 
ATOM     14  C   UNL     1       0.002  -0.004   0.002  0.00  0.00    +0.121 A 
ATOM     15 CL   UNL     1       3.869   2.303  -0.024  0.00  0.00    -0.084 Cl
ENDBRANCH   8  14
ENDBRANCH   7   8
ENDBRANCH   2   7
ENDBRANCH   1   4
BRANCH   1  16
ATOM     16  S   UNL     1      -4.957  -5.651  -2.486  0.00  0.00    -0.147 S 
BRANCH  16  17
ATOM     17  C   UNL     1      -6.071  -5.936  -3.889  0.00  0.00    +0.145 C 
BRANCH  17  18
ATOM     18  C   UNL     1      -5.899  -7.347  -4.388  0.00  0.00    +0.146 A 
ATOM     19  N   UNL     1      -5.003  -7.611  -5.323  0.00  0.00    -0.199 NA
ATOM     20  C   UNL     1      -4.848  -8.857  -5.766  0.00  0.00    +0.217 A 
ATOM     21  N   UNL     1      -5.595  -9.835  -5.267  0.00  0.00    -0.181 NA
ATOM     22  C   UNL     1      -6.495  -9.566  -4.328  0.00  0.00    +0.217 A 
ATOM     23  N   UNL     1      -6.640  -8.319  -3.886  0.00  0.00    -0.199 NA
ATOM     24  N   UNL     1      -7.274 -10.579  -3.806  0.00  0.00    -0.327 N 
ATOM     25  N   UNL     1      -3.912  -9.131  -6.743  0.00  0.00    -0.327 N 
ATOM     26  H   UNL     1      -7.164 -11.488  -4.126  0.00  0.00    +0.145 HD
ATOM     27  H   UNL     1      -7.930 -10.382  -3.120  0.00  0.00    +0.145 HD
ATOM     28  H   UNL     1      -3.367  -8.416  -7.107  0.00  0.00    +0.145 HD
ATOM     29  H   UNL     1      -3.800 -10.039  -7.065  0.00  0.00    +0.145 HD
ENDBRANCH  17  18
ENDBRANCH  16  17
ENDBRANCH   1  16
TORSDOF 7
