REMARK  Name = ZINC09357913
REMARK  8 active torsions:
REMARK  status: ('A' for Active; 'I' for Inactive)
REMARK    1  A    between atoms: C_1  and  C_2
REMARK    2  A    between atoms: C_2  and  N_3
REMARK    3  A    between atoms: C_7  and  C_30
REMARK    4  A    between atoms: C_8  and  C_29
REMARK    5  A    between atoms: C_12  and  S_13
REMARK    6  A    between atoms: S_13  and  C_14
REMARK    7  A    between atoms: C_14  and  C_16
REMARK    8  A    between atoms: C_14  and  C_17
REMARK                            x       y       z     vdW  Elec       q    Type
REMARK                         _______ _______ _______ _____ _____    ______ ____
ROOT
ATOM      1  S   UNL     1      -2.021  -0.828   1.073  0.00  0.00    -0.075 S 
ENDROOT
BRANCH   1  11
ATOM      2  N   UNL     1      -0.560   1.447   1.250  0.00  0.00    -0.288 N 
ATOM      3  C   UNL     1      -0.214   2.647   1.753  0.00  0.00    +0.263 A 
ATOM      4  O   UNL     1       0.730   3.262   1.288  0.00  0.00    -0.267 OA
ATOM      5  C   UNL     1      -0.972   3.192   2.837  0.00  0.00    +0.075 A 
ATOM      6  C   UNL     1      -0.798   4.453   3.537  0.00  0.00    -0.026 A 
ATOM      7  C   UNL     1      -1.631   4.765   4.541  0.00  0.00    -0.008 A 
ATOM      8  S   UNL     1      -2.729   3.363   4.620  0.00  0.00    -0.073 S 
ATOM      9  C   UNL     1      -2.036   2.397   3.302  0.00  0.00    +0.117 A 
ATOM     10  N   UNL     1      -2.322   1.218   2.763  0.00  0.00    -0.216 NA
ATOM     11  C   UNL     1      -1.611   0.741   1.762  0.00  0.00    +0.173 A 
ATOM     12  C   UNL     1      -1.638   6.006   5.397  0.00  0.00    +0.052 C 
ATOM     13  C   UNL     1       0.305   5.400   3.140  0.00  0.00    +0.045 C 
BRANCH   2  15
ATOM     14  C   UNL     1      -0.413   1.334  -1.188  0.00  0.00    +0.027 C 
ATOM     15  C   UNL     1       0.208   0.886   0.136  0.00  0.00    +0.124 C 
ENDBRANCH   2  15
ENDBRANCH   1  11
BRANCH   1  16
ATOM     16  C   UNL     1      -3.436  -1.267   2.113  0.00  0.00    +0.137 C 
ATOM     17  C   UNL     1      -2.968  -1.449   3.559  0.00  0.00    +0.029 C 
BRANCH  16  18
ATOM     18  C   UNL     1      -4.044  -2.553   1.616  0.00  0.00    +0.233 C 
ATOM     19  O   UNL     1      -3.368  -3.342   0.990  0.00  0.00    -0.274 OA
ATOM     20  N   UNL     1      -5.340  -2.827   1.868  0.00  0.00    -0.270 N 
ATOM     21  C   UNL     1      -6.188  -1.850   2.564  0.00  0.00    +0.114 C 
ATOM     22  C   UNL     1      -7.005  -2.600   3.619  0.00  0.00    +0.024 C 
ATOM     23  C   UNL     1      -7.921  -3.603   2.917  0.00  0.00    +0.038 C 
ATOM     24  C   UNL     1      -7.132  -4.457   1.960  0.00  0.00    -0.026 A 
ATOM     25  C   UNL     1      -5.899  -4.051   1.475  0.00  0.00    +0.039 A 
ATOM     26  C   UNL     1      -5.199  -4.861   0.588  0.00  0.00    +0.024 A 
ATOM     27  C   UNL     1      -5.731  -6.072   0.191  0.00  0.00    +0.002 A 
ATOM     28  C   UNL     1      -6.961  -6.477   0.677  0.00  0.00    +0.000 A 
ATOM     29  C   UNL     1      -7.658  -5.673   1.558  0.00  0.00    +0.005 A 
ENDBRANCH  16  18
ENDBRANCH   1  16
TORSDOF 4
