REMARK  Name = ZINC35467675
REMARK  9 active torsions:
REMARK  status: ('A' for Active; 'I' for Inactive)
REMARK    1  A    between atoms: C_1  and  C_2
REMARK    2  A    between atoms: C_3  and  C_22
REMARK    3  A    between atoms: C_4  and  C_21
REMARK    4  A    between atoms: C_5  and  C_10
REMARK    5  A    between atoms: C_6  and  C_9
REMARK    6  A    between atoms: C_7  and  C_8
REMARK    7  A    between atoms: C_10  and  C_12
REMARK    8  A    between atoms: C_10  and  N_19
REMARK    9  A    between atoms: N_19  and  C_20
REMARK                            x       y       z     vdW  Elec       q    Type
REMARK                         _______ _______ _______ _____ _____    ______ ____
ROOT
ATOM      1  C   UNL     1      -0.008  -4.006  -0.098  0.00  0.00    -0.009 C 
ENDROOT
BRANCH   1   6
ATOM      2  C   UNL     1      -0.007   1.381   1.994  0.00  0.00    +0.044 C 
ATOM      3  C   UNL     1      -0.007  -0.024   1.448  0.00  0.00    -0.044 A 
ATOM      4  C   UNL     1      -0.411  -0.261   0.148  0.00  0.00    -0.044 A 
ATOM      5  C   UNL     1      -0.412  -1.549  -0.353  0.00  0.00    -0.045 A 
ATOM      6  C   UNL     1      -0.007  -2.601   0.448  0.00  0.00    -0.051 A 
ATOM      7  C   UNL     1       0.398  -2.365   1.748  0.00  0.00    -0.045 A 
ATOM      8  C   UNL     1       0.402  -1.075   2.247  0.00  0.00    -0.044 A 
ATOM      9  C   UNL     1       0.848  -0.817   3.663  0.00  0.00    +0.044 C 
ATOM     10  C   UNL     1       0.838  -3.512   2.620  0.00  0.00    +0.044 C 
ATOM     11  C   UNL     1      -0.853  -1.807  -1.770  0.00  0.00    +0.044 C 
ATOM     12  C   UNL     1      -0.852   0.886  -0.725  0.00  0.00    +0.044 C 
ENDBRANCH   1   6
BRANCH   1  13
ATOM     13  C   UNL     1      -1.418  -4.407  -0.449  0.00  0.00    -0.044 A 
ATOM     14  C   UNL     1      -1.786  -4.550  -1.774  0.00  0.00    +0.003 A 
ATOM     15  C   UNL     1      -3.078  -4.918  -2.097  0.00  0.00    +0.000 A 
ATOM     16  C   UNL     1      -4.004  -5.144  -1.095  0.00  0.00    +0.001 A 
ATOM     17  C   UNL     1      -3.636  -5.002   0.230  0.00  0.00    +0.014 A 
ATOM     18  C   UNL     1      -2.341  -4.639   0.553  0.00  0.00    +0.015 A 
ATOM     19  I   UNL     1      -1.782  -4.432   2.562  0.00  0.00    -0.044 I 
ENDBRANCH   1  13
BRANCH   1  20
ATOM     20  N   UNL     1       0.832  -4.065  -1.301  0.00  0.00    +0.384 N 
ATOM     21  C   UNL     1       2.231  -3.805  -0.934  0.00  0.00    -0.099 C 
ATOM     22  H   UNL     1       0.759  -4.981  -1.718  0.00  0.00    -0.085 HD
ATOM     23  H   UNL     1       0.523  -3.369  -1.962  0.00  0.00    -0.085 HD
ENDBRANCH   1  20
TORSDOF 3
