REMARK  Name = ZINC10964196
REMARK  8 active torsions:
REMARK  status: ('A' for Active; 'I' for Inactive)
REMARK    1  A    between atoms: C_1  and  C_2
REMARK    2  A    between atoms: C_2  and  C_3
REMARK    3  A    between atoms: C_3  and  C_4
REMARK    4  A    between atoms: C_4  and  C_5
REMARK    5  A    between atoms: C_5  and  N_6
REMARK    6  A    between atoms: N_14  and  C_29
REMARK    7  A    between atoms: C_20  and  C_21
REMARK    8  A    between atoms: C_26  and  O_27
REMARK                            x       y       z     vdW  Elec       q    Type
REMARK                         _______ _______ _______ _____ _____    ______ ____
ROOT
ATOM      1  N   UNL     1      -0.447   5.151   2.169  0.00  0.00    -0.303 N 
ATOM      2  C   UNL     1      -0.419   3.965   2.905  0.00  0.00    +0.152 A 
ATOM      3  C   UNL     1       0.489   3.439   3.852  0.00  0.00    +0.280 A 
ATOM      4  O   UNL     1       1.485   4.067   4.165  0.00  0.00    -0.265 OA
ATOM      5  N   UNL     1       0.241   2.235   4.408  0.00  0.00    -0.273 N 
ATOM      6  H   UNL     1       0.879   1.858   5.079  0.00  0.00    +0.173 HD
ATOM      7  C   UNL     1      -0.858   1.538   4.066  0.00  0.00    +0.331 A 
ATOM      8  O   UNL     1      -1.060   0.454   4.580  0.00  0.00    -0.246 OA
ATOM      9  N   UNL     1      -1.735   2.013   3.164  0.00  0.00    -0.281 N 
ATOM     10  C   UNL     1      -1.529   3.241   2.572  0.00  0.00    +0.155 A 
ATOM     11  N   UNL     1      -2.243   3.959   1.643  0.00  0.00    -0.244 N 
ATOM     12  C   UNL     1      -1.583   5.131   1.393  0.00  0.00    +0.239 A 
ATOM     13  N   UNL     1      -2.290   5.792   0.503  0.00  0.00    -0.110 NA
ATOM     14  N   UNL     1      -3.338   5.119   0.183  0.00  0.00    -0.127 NA
ATOM     15  C   UNL     1      -3.366   3.986   0.848  0.00  0.00    +0.175 A 
ATOM     16  C   UNL     1      -2.917   1.224   2.811  0.00  0.00    +0.155 C 
ENDROOT
BRANCH  15  17
ATOM     17  C   UNL     1      -4.404   2.940   0.758  0.00  0.00    +0.062 A 
ATOM     18  C   UNL     1      -4.270   1.894  -0.157  0.00  0.00    +0.030 A 
ATOM     19  C   UNL     1      -5.242   0.917  -0.233  0.00  0.00    +0.019 A 
ATOM     20  C   UNL     1      -6.356   0.976   0.588  0.00  0.00    +0.019 A 
ATOM     21  C   UNL     1      -6.502   2.010   1.494  0.00  0.00    +0.047 A 
ATOM     22  C   UNL     1      -5.532   2.995   1.586  0.00  0.00    +0.128 A 
ATOM     23 BR   UNL     1      -5.056  -0.503  -1.468  0.00  0.00    -0.050 Br
BRANCH  22  24
ATOM     24  O   UNL     1      -5.676   4.011   2.476  0.00  0.00    -0.506 OA
ATOM     25  H   UNL     1      -6.142   4.781   2.123  0.00  0.00    +0.292 HD
ENDBRANCH  22  24
ENDBRANCH  15  17
BRANCH   1  26
ATOM     26  C   UNL     1       0.551   6.223   2.216  0.00  0.00    +0.125 C 
BRANCH  26  27
ATOM     27  C   UNL     1       1.636   5.955   1.170  0.00  0.00    +0.022 C 
BRANCH  27  28
ATOM     28  C   UNL     1       2.678   7.074   1.219  0.00  0.00    +0.001 C 
BRANCH  28  30
ATOM     29  C   UNL     1       4.805   7.925   0.222  0.00  0.00    +0.004 C 
ATOM     30  C   UNL     1       3.763   6.806   0.174  0.00  0.00    -0.003 C 
ENDBRANCH  28  30
ENDBRANCH  27  28
ENDBRANCH  26  27
ENDBRANCH   1  26
TORSDOF 6
