REMARK  Name = ZINC20999581
REMARK  8 active torsions:
REMARK  status: ('A' for Active; 'I' for Inactive)
REMARK    1  A    between atoms: C_2  and  C_11
REMARK    2  A    between atoms: C_11  and  N_12
REMARK    3  A    between atoms: N_12  and  C_13
REMARK    4  A    between atoms: C_13  and  C_14
REMARK    5  A    between atoms: C_14  and  C_15
REMARK    6  A    between atoms: N_21  and  C_22
REMARK    7  A    between atoms: C_22  and  C_23
REMARK    8  A    between atoms: C_23  and  N_30
REMARK                            x       y       z     vdW  Elec       q    Type
REMARK                         _______ _______ _______ _____ _____    ______ ____
ROOT
ATOM      1  C   UNL     1      -4.353   5.917  -5.281  0.00  0.00    +0.075 C 
ATOM      2  C   UNL     1      -5.112   5.032  -6.294  0.00  0.00    +0.031 C 
ATOM      3  C   UNL     1      -5.037   3.643  -5.618  0.00  0.00    +0.098 C 
ATOM      4  C   UNL     1      -4.865   3.955  -4.148  0.00  0.00    +0.216 C 
ATOM      5  O   UNL     1      -5.042   3.165  -3.245  0.00  0.00    -0.276 OA
ATOM      6  N   UNL     1      -4.487   5.235  -3.988  0.00  0.00    -0.297 N 
ENDROOT
BRANCH   1   7
ATOM      7  C   UNL     1      -4.987   7.308  -5.214  0.00  0.00    +0.003 C 
BRANCH   7   8
ATOM      8  C   UNL     1      -4.936   7.958  -6.598  0.00  0.00    -0.080 C 
BRANCH   8   9
ATOM      9  N   UNL     1      -5.423   9.341  -6.508  0.00  0.00    +0.382 N 
ATOM     10  H   UNL     1      -4.727   9.919  -5.882  0.00  0.00    -0.085 HD
ATOM     11  H   UNL     1      -6.418   9.335  -6.040  0.00  0.00    -0.085 HD
BRANCH   9  12
ATOM     12  C   UNL     1      -5.511   9.956  -7.839  0.00  0.00    -0.045 C 
BRANCH  12  14
ATOM     13  C   UNL     1      -5.351  12.454  -7.820  0.00  0.00    +0.052 A 
ATOM     14  C   UNL     1      -6.139  11.321  -7.720  0.00  0.00    -0.042 A 
ATOM     15  C   UNL     1      -7.500  11.439  -7.507  0.00  0.00    +0.046 A 
ATOM     16  C   UNL     1      -8.079  12.690  -7.392  0.00  0.00    +0.069 A 
ATOM     17  C   UNL     1      -7.296  13.828  -7.490  0.00  0.00    +0.168 A 
ATOM     18  C   UNL     1      -5.925  13.709  -7.705  0.00  0.00    +0.167 A 
ATOM     19  O   UNL     1      -5.382  14.961  -7.764  0.00  0.00    -0.453 OA
ATOM     20  C   UNL     1      -6.492  15.850  -7.990  0.00  0.00    +0.466 C 
ATOM     21  O   UNL     1      -7.612  15.154  -7.414  0.00  0.00    -0.453 OA
ATOM     22 CL   UNL     1      -8.484  10.014  -7.383  0.00  0.00    -0.083 Cl
ENDBRANCH  12  14
ENDBRANCH   9  12
ENDBRANCH   8   9
ENDBRANCH   7   8
ENDBRANCH   1   7
BRANCH   6  23
ATOM     23  C   UNL     1      -4.242   5.869  -2.690  0.00  0.00    +0.130 C 
BRANCH  23  24
ATOM     24  C   UNL     1      -2.830   5.524  -2.213  0.00  0.00    +0.038 C 
ATOM     25  C   UNL     1      -2.842   5.285  -0.728  0.00  0.00    +0.024 C 
ATOM     26  C   UNL     1      -3.996   6.021  -0.022  0.00  0.00    +0.002 C 
ATOM     27  C   UNL     1      -4.207   7.452  -0.553  0.00  0.00    +0.000 C 
ATOM     28  C   UNL     1      -2.909   8.176  -0.786  0.00  0.00    +0.000 C 
ATOM     29  C   UNL     1      -2.503   7.994  -2.263  0.00  0.00    +0.002 C 
ATOM     30  C   UNL     1      -1.880   6.702  -2.512  0.00  0.00    +0.024 C 
BRANCH  24  31
ATOM     31  N   UNL     1      -2.355   4.320  -2.907  0.00  0.00    -0.291 NA
ATOM     32  C   UNL     1      -2.393   3.150  -2.018  0.00  0.00    +0.113 C 
ATOM     33  C   UNL     1      -1.948   1.909  -2.797  0.00  0.00    +0.175 C 
ATOM     34  O   UNL     1      -0.644   2.134  -3.338  0.00  0.00    -0.377 OA
ATOM     35  C   UNL     1      -0.570   3.266  -4.209  0.00  0.00    +0.175 C 
ATOM     36  C   UNL     1      -1.001   4.521  -3.445  0.00  0.00    +0.113 C 
ENDBRANCH  24  31
ENDBRANCH  23  24
ENDBRANCH   6  23
TORSDOF 8
