REMARK  Name = ZINC01916178
REMARK  9 active torsions:
REMARK  status: ('A' for Active; 'I' for Inactive)
REMARK    1  A    between atoms: C_1  and  C_2
REMARK    2  A    between atoms: C_4  and  O_10
REMARK    3  A    between atoms: C_6  and  C_9
REMARK    4  A    between atoms: O_10  and  C_11
REMARK    5  A    between atoms: C_17  and  O_34
REMARK    6  A    between atoms: C_18  and  C_26
REMARK    7  A    between atoms: C_21  and  C_22
REMARK    8  A    between atoms: C_26  and  N_59
REMARK    9  A    between atoms: C_30  and  C_33
REMARK                            x       y       z     vdW  Elec       q    Type
REMARK                         _______ _______ _______ _____ _____    ______ ____
ROOT
ATOM      1  C   UNL     1       4.860   0.157  -0.043  0.00  0.00    +0.222 A 
ATOM      2  C   UNL     1       3.691  -0.656  -0.037  0.00  0.00    +0.235 A 
ATOM      3  O   UNL     1       3.765  -1.874  -0.045  0.00  0.00    -0.283 OA
ATOM      4  C   UNL     1       2.390   0.033  -0.021  0.00  0.00    +0.068 A 
ATOM      5  C   UNL     1       1.189  -0.679  -0.013  0.00  0.00    +0.019 A 
ATOM      6  C   UNL     1       0.002  -0.004   0.002  0.00  0.00    +0.046 A 
ATOM      7  C   UNL     1      -0.017   1.389   0.010  0.00  0.00    +0.122 A 
ATOM      8  C   UNL     1       1.165   2.110   0.002  0.00  0.00    +0.020 A 
ATOM      9  C   UNL     1       2.380   1.440  -0.013  0.00  0.00    +0.144 A 
ATOM     10  O   UNL     1       3.546   2.117  -0.020  0.00  0.00    -0.447 OA
ATOM     11  C   UNL     1       4.735   1.500  -0.035  0.00  0.00    +0.254 A 
ENDROOT
BRANCH  11  12
ATOM     12  C   UNL     1       5.985   2.341  -0.041  0.00  0.00    +0.454 C 
ATOM     13  F   UNL     1       6.360   2.609  -1.363  0.00  0.00    -0.163 F 
ATOM     14  F   UNL     1       5.741   3.545   0.627  0.00  0.00    -0.163 F 
ATOM     15  F   UNL     1       7.016   1.650   0.605  0.00  0.00    -0.163 F 
ENDBRANCH  11  12
BRANCH   7  16
ATOM     16  O   UNL     1      -1.205   2.046   0.019  0.00  0.00    -0.506 OA
ATOM     17  H   UNL     1      -1.545   2.232   0.905  0.00  0.00    +0.292 HD
ENDBRANCH   7  16
BRANCH   1  18
ATOM     18  O   UNL     1       6.094  -0.416  -0.059  0.00  0.00    -0.448 OA
BRANCH  18  22
ATOM     19  C   UNL     1       9.858  -2.161  -2.630  0.00  0.00    +0.045 C 
ATOM     20  C   UNL     1       8.493  -1.527  -2.558  0.00  0.00    -0.028 A 
ATOM     21  C   UNL     1       7.918  -1.262  -1.331  0.00  0.00    +0.051 A 
ATOM     22  C   UNL     1       6.661  -0.678  -1.266  0.00  0.00    +0.129 A 
ATOM     23  C   UNL     1       5.981  -0.366  -2.435  0.00  0.00    +0.051 A 
ATOM     24  C   UNL     1       6.562  -0.628  -3.660  0.00  0.00    -0.028 A 
ATOM     25  C   UNL     1       7.816  -1.210  -3.723  0.00  0.00    +0.047 A 
ATOM     26 CL   UNL     1       8.540  -1.544  -5.265  0.00  0.00    -0.083 Cl
ATOM     27  C   UNL     1       5.827  -0.284  -4.930  0.00  0.00    +0.045 C 
ENDBRANCH  18  22
ENDBRANCH   1  18
BRANCH   8  28
ATOM     28  C   UNL     1       1.133   3.617   0.010  0.00  0.00    -0.036 C 
BRANCH  28  35
ATOM     29  C   UNL     1      -0.101   3.714   2.091  0.00  0.00    -0.078 C 
ATOM     30  C   UNL     1      -0.002   4.104   3.567  0.00  0.00    -0.018 C 
ATOM     31  C   UNL     1       0.217   5.616   3.677  0.00  0.00    -0.001 C 
ATOM     32  C   UNL     1       1.484   5.997   2.906  0.00  0.00    -0.031 C 
ATOM     33  C   UNL     1       1.342   5.552   1.449  0.00  0.00    -0.075 C 
ATOM     34  C   UNL     1       1.679   7.514   2.961  0.00  0.00    +0.005 C 
ATOM     35  N   UNL     1       1.158   4.086   1.411  0.00  0.00    +0.383 N 
ATOM     36  H   UNL     1       1.944   3.639   1.898  0.00  0.00    -0.081 HD
ENDBRANCH  28  35
ENDBRANCH   8  28
TORSDOF 6
