REMARK  Name = ZINC35544591
REMARK  3 active torsions:
REMARK  status: ('A' for Active; 'I' for Inactive)
REMARK    1  A    between atoms: C_5  and  N_7
REMARK    2  A    between atoms: C_13  and  C_15
REMARK    3  A    between atoms: C_20  and  N_37
REMARK                            x       y       z     vdW  Elec       q    Type
REMARK                         _______ _______ _______ _____ _____    ______ ____
ROOT
ATOM      1  C   UNL     1       0.028  -6.671  -1.340  0.00  0.00    +0.101 C 
ATOM      2  C   UNL     1       1.250  -6.381  -2.210  0.00  0.00    +0.051 C 
ATOM      3  C   UNL     1       1.146  -7.191  -3.476  0.00  0.00    -0.023 A 
ATOM      4  C   UNL     1       1.724  -6.718  -4.639  0.00  0.00    +0.038 A 
ATOM      5  C   UNL     1       1.624  -7.448  -5.808  0.00  0.00    +0.127 A 
ATOM      6  C   UNL     1       0.946  -8.653  -5.817  0.00  0.00    +0.034 A 
ATOM      7  C   UNL     1       0.371  -9.132  -4.657  0.00  0.00    +0.025 A 
ATOM      8  C   UNL     1       0.475  -8.401  -3.477  0.00  0.00    +0.033 A 
ATOM      9  N   UNL     1      -0.099  -8.928  -2.307  0.00  0.00    -0.323 N 
ATOM     10  C   UNL     1      -0.072  -8.175  -1.065  0.00  0.00    +0.103 C 
ATOM     11  C   UNL     1      -1.285  -8.421  -0.184  0.00  0.00    +0.129 C 
ATOM     12  N   UNL     1      -1.806  -9.769  -0.300  0.00  0.00    -0.313 N 
ATOM     13  C   UNL     1      -1.905 -10.463  -1.573  0.00  0.00    +0.125 C 
ATOM     14  C   UNL     1      -0.658 -10.275  -2.405  0.00  0.00    +0.124 C 
ATOM     15  C   UNL     1      -2.226 -10.424   0.852  0.00  0.00    +0.099 A 
ATOM     16  C   UNL     1      -2.607 -11.760   0.785  0.00  0.00    +0.042 A 
ATOM     17  C   UNL     1      -3.022 -12.399   1.939  0.00  0.00    +0.005 A 
ATOM     18  C   UNL     1      -3.044 -11.678   3.126  0.00  0.00    +0.018 A 
ATOM     19  C   UNL     1      -2.652 -10.354   3.119  0.00  0.00    +0.084 A 
ATOM     20  N   UNL     1      -2.255  -9.771   2.004  0.00  0.00    -0.350 N 
ATOM     21  H   UNL     1      -1.981  -8.841   2.028  0.00  0.00    +0.166 HD
ENDROOT
BRANCH   1  28
ATOM     22  N   UNL     1      -1.606  -2.360   0.193  0.00  0.00    -0.325 N 
ATOM     23  C   UNL     1      -1.602  -3.074  -1.092  0.00  0.00    +0.124 C 
ATOM     24  C   UNL     1      -0.279  -3.837  -1.224  0.00  0.00    +0.126 C 
ATOM     25  N   UNL     1      -0.051  -4.600   0.011  0.00  0.00    -0.298 N 
ATOM     26  C   UNL     1      -0.055  -3.886   1.296  0.00  0.00    +0.126 C 
ATOM     27  C   UNL     1      -1.373  -3.122   1.427  0.00  0.00    +0.124 C 
ATOM     28  C   UNL     1       0.157  -5.931  -0.033  0.00  0.00    +0.221 C 
ATOM     29  O   UNL     1       0.447  -6.534   0.978  0.00  0.00    -0.275 OA
BRANCH  22  34
ATOM     30  C   UNL     1      -0.963   1.260   0.201  0.00  0.00    +0.002 A 
ATOM     31  C   UNL     1      -2.248   1.755   0.331  0.00  0.00    +0.003 A 
ATOM     32  C   UNL     1      -3.322   0.887   0.414  0.00  0.00    +0.040 A 
ATOM     33  C   UNL     1      -3.113  -0.479   0.369  0.00  0.00    +0.144 A 
ATOM     34  C   UNL     1      -1.822  -0.979   0.239  0.00  0.00    +0.065 A 
ATOM     35  C   UNL     1      -0.747  -0.103   0.155  0.00  0.00    +0.026 A 
ATOM     36  F   UNL     1      -4.162  -1.327   0.451  0.00  0.00    -0.204 F 
ENDBRANCH  22  34
ENDBRANCH   1  28
BRANCH   5  37
ATOM     37  N   UNL     1       2.244  -6.940  -7.053  0.00  0.00    +0.056 N 
ATOM     38  O   UNL     1       2.837  -5.886  -7.046  0.00  0.00    -0.126 OA
ATOM     39  O   UNL     1       2.157  -7.579  -8.075  0.00  0.00    -0.126 OA
ENDBRANCH   5  37
TORSDOF 3
