REMARK  Name = ZINC30947083
REMARK  5 active torsions:
REMARK  status: ('A' for Active; 'I' for Inactive)
REMARK    1  A    between atoms: C_6  and  C_7
REMARK    2  A    between atoms: C_7  and  N_8
REMARK    3  A    between atoms: C_12  and  C_15
REMARK    4  A    between atoms: N_17  and  C_18
REMARK    5  A    between atoms: C_21  and  C_24
REMARK                            x       y       z     vdW  Elec       q    Type
REMARK                         _______ _______ _______ _____ _____    ______ ____
ROOT
ATOM      1  C   UNL     1      -2.103   5.186  -2.016  0.00  0.00    +0.218 C 
ATOM      2  O   UNL     1      -2.122   5.832  -3.042  0.00  0.00    -0.275 OA
ATOM      3  N   UNL     1      -2.061   5.814  -0.824  0.00  0.00    -0.285 N 
ATOM      4  H   UNL     1      -2.120   5.231   0.107  0.00  0.00    +0.155 HD
ENDROOT
BRANCH   1   9
ATOM      5  N   UNL     1      -2.219   1.759  -3.590  0.00  0.00    +0.383 N 
ATOM      6  C   UNL     1      -3.423   1.237  -2.932  0.00  0.00    -0.078 C 
ATOM      7  C   UNL     1      -3.409   1.632  -1.453  0.00  0.00    -0.018 C 
ATOM      8  C   UNL     1      -3.362   3.158  -1.338  0.00  0.00    +0.009 C 
ATOM      9  C   UNL     1      -2.125   3.680  -2.074  0.00  0.00    +0.059 C 
ATOM     10  C   UNL     1      -2.176   3.226  -3.534  0.00  0.00    -0.066 C 
ATOM     11  H   UNL     1      -1.345   1.377  -3.043  0.00  0.00    -0.081 HD
BRANCH   5  12
ATOM     12  C   UNL     1      -2.129   1.282  -4.977  0.00  0.00    -0.043 C 
BRANCH  12  18
ATOM     13  C   UNL     1      -4.463   1.190  -5.878  0.00  0.00    +0.003 A 
ATOM     14  C   UNL     1      -5.502   1.728  -6.614  0.00  0.00    +0.015 A 
ATOM     15  C   UNL     1      -5.336   2.938  -7.263  0.00  0.00    +0.018 A 
ATOM     16  C   UNL     1      -4.132   3.612  -7.172  0.00  0.00    +0.015 A 
ATOM     17  C   UNL     1      -3.094   3.076  -6.432  0.00  0.00    +0.003 A 
ATOM     18  C   UNL     1      -3.261   1.867  -5.783  0.00  0.00    -0.064 A 
ATOM     19 BR   UNL     1      -6.756   3.671  -8.274  0.00  0.00    -0.050 Br
ENDBRANCH  12  18
ENDBRANCH   5  12
ENDBRANCH   1   9
BRANCH   3  20
ATOM     20  C   UNL     1      -1.943   7.207  -0.771  0.00  0.00    +0.033 A 
ATOM     21  C   UNL     1      -1.214   7.805   0.248  0.00  0.00    +0.023 A 
ATOM     22  C   UNL     1      -1.095   9.181   0.295  0.00  0.00    +0.006 A 
ATOM     23  C   UNL     1      -1.710   9.962  -0.666  0.00  0.00    -0.041 A 
ATOM     24  C   UNL     1      -2.441   9.370  -1.679  0.00  0.00    +0.006 A 
ATOM     25  C   UNL     1      -2.560   7.995  -1.734  0.00  0.00    +0.023 A 
BRANCH  23  26
ATOM     26  C   UNL     1      -1.583  11.463  -0.609  0.00  0.00    -0.003 C 
ATOM     27  C   UNL     1      -2.974  12.087  -0.477  0.00  0.00    +0.015 C 
ATOM     28  C   UNL     1      -2.845  13.611  -0.418  0.00  0.00    -0.010 C 
ATOM     29  C   UNL     1      -1.992  14.005   0.789  0.00  0.00    +0.007 C 
ATOM     30  C   UNL     1      -0.601  13.380   0.656  0.00  0.00    -0.010 C 
ATOM     31  C   UNL     1      -0.730  11.857   0.598  0.00  0.00    +0.015 C 
ATOM     32  C   UNL     1       0.064  13.885  -0.625  0.00  0.00    +0.007 C 
ATOM     33  C   UNL     1      -0.789  13.491  -1.833  0.00  0.00    -0.010 C 
ATOM     34  C   UNL     1      -2.179  14.116  -1.700  0.00  0.00    +0.007 C 
ATOM     35  C   UNL     1      -0.917  11.967  -1.891  0.00  0.00    +0.015 C 
ENDBRANCH  23  26
ENDBRANCH   3  20
TORSDOF 5
