REMARK  Name = ZINC00945140
REMARK  9 active torsions:
REMARK  status: ('A' for Active; 'I' for Inactive)
REMARK    1  A    between atoms: C_1  and  C_2
REMARK    2  A    between atoms: C_8  and  C_9
REMARK    3  A    between atoms: C_8  and  N_57
REMARK    4  A    between atoms: C_10  and  O_33
REMARK    5  A    between atoms: C_16  and  C_29
REMARK    6  A    between atoms: C_17  and  O_20
REMARK    7  A    between atoms: O_20  and  C_21
REMARK    8  A    between atoms: C_24  and  O_27
REMARK    9  A    between atoms: O_27  and  C_28
REMARK                            x       y       z     vdW  Elec       q    Type
REMARK                         _______ _______ _______ _____ _____    ______ ____
ROOT
ATOM      1  C   UNL     1      -2.225   5.428   1.403  0.00  0.00    +0.020 A 
ATOM      2  C   UNL     1      -1.320   5.785   2.389  0.00  0.00    +0.122 A 
ATOM      3  C   UNL     1      -1.764   6.183   3.648  0.00  0.00    +0.046 A 
ATOM      4  C   UNL     1      -3.100   6.225   3.928  0.00  0.00    +0.019 A 
ATOM      5  C   UNL     1      -4.024   5.868   2.946  0.00  0.00    +0.068 A 
ATOM      6  C   UNL     1      -3.586   5.471   1.670  0.00  0.00    +0.144 A 
ATOM      7  O   UNL     1      -4.488   5.121   0.731  0.00  0.00    -0.447 OA
ATOM      8  C   UNL     1      -5.808   5.147   0.959  0.00  0.00    +0.254 A 
ATOM      9  C   UNL     1      -6.337   5.516   2.142  0.00  0.00    +0.222 A 
ATOM     10  C   UNL     1      -5.474   5.899   3.208  0.00  0.00    +0.235 A 
ATOM     11  O   UNL     1      -5.916   6.240   4.292  0.00  0.00    -0.283 OA
ENDROOT
BRANCH   8  12
ATOM     12  C   UNL     1      -6.740   4.745  -0.155  0.00  0.00    +0.454 C 
ATOM     13  F   UNL     1      -7.076   5.872  -0.912  0.00  0.00    -0.163 F 
ATOM     14  F   UNL     1      -6.109   3.804  -0.975  0.00  0.00    -0.163 F 
ATOM     15  F   UNL     1      -7.902   4.185   0.389  0.00  0.00    -0.163 F 
ENDBRANCH   8  12
BRANCH   2  16
ATOM     16  O   UNL     1       0.011   5.748   2.126  0.00  0.00    -0.506 OA
ATOM     17  H   UNL     1       0.365   6.576   1.774  0.00  0.00    +0.292 HD
ENDBRANCH   2  16
BRANCH   1  18
ATOM     18  C   UNL     1      -1.734   5.000   0.044  0.00  0.00    -0.035 C 
BRANCH  18  25
ATOM     19  C   UNL     1      -1.586   3.634  -2.411  0.00  0.00    -0.013 C 
ATOM     20  C   UNL     1      -0.826   3.122  -1.185  0.00  0.00    -0.071 C 
ATOM     21  C   UNL     1      -0.756   1.594  -1.230  0.00  0.00    -0.016 C 
ATOM     22  C   UNL     1      -0.013   1.086   0.008  0.00  0.00    -0.003 C 
ATOM     23  C   UNL     1      -0.732   1.581   1.266  0.00  0.00    -0.019 C 
ATOM     24  C   UNL     1      -0.804   3.109   1.238  0.00  0.00    -0.078 C 
ATOM     25  N   UNL     1      -1.552   3.533   0.035  0.00  0.00    +0.384 N 
ATOM     26  H   UNL     1      -2.475   3.083   0.041  0.00  0.00    -0.081 HD
ENDBRANCH  18  25
ENDBRANCH   1  18
BRANCH   9  27
ATOM     27  O   UNL     1      -7.686   5.523   2.317  0.00  0.00    -0.448 OA
BRANCH  27  28
ATOM     28  C   UNL     1      -8.363   6.665   2.024  0.00  0.00    +0.129 A 
ATOM     29  C   UNL     1      -7.675   7.781   1.568  0.00  0.00    +0.050 A 
ATOM     30  C   UNL     1      -8.363   8.940   1.265  0.00  0.00    +0.049 A 
ATOM     31  C   UNL     1      -9.739   8.992   1.428  0.00  0.00    +0.120 A 
ATOM     32  C   UNL     1     -10.426   7.879   1.890  0.00  0.00    +0.049 A 
ATOM     33  C   UNL     1      -9.739   6.718   2.188  0.00  0.00    +0.050 A 
BRANCH  31  34
ATOM     34  O   UNL     1     -10.415  10.135   1.135  0.00  0.00    -0.495 OA
ATOM     35  C   UNL     1      -9.645  11.242   0.664  0.00  0.00    +0.277 C 
ENDBRANCH  31  34
ENDBRANCH  27  28
ENDBRANCH   9  27
TORSDOF 7
