REMARK  Name = ZINC06488969
REMARK  10 active torsions:
REMARK  status: ('A' for Active; 'I' for Inactive)
REMARK    1  A    between atoms: C_1  and  C_2
REMARK    2  A    between atoms: C_2  and  O_3
REMARK    3  A    between atoms: O_3  and  C_4
REMARK    4  A    between atoms: C_4  and  C_6
REMARK    5  A    between atoms: C_7  and  C_37
REMARK    6  A    between atoms: C_14  and  C_15
REMARK    7  A    between atoms: C_18  and  N_20
REMARK    8  A    between atoms: C_27  and  C_29
REMARK    9  A    between atoms: C_32  and  S_35
REMARK   10  A    between atoms: S_35  and  C_36
REMARK                            x       y       z     vdW  Elec       q    Type
REMARK                         _______ _______ _______ _____ _____    ______ ____
ROOT
ATOM      1  C   UNL     1       2.890  -2.502  -0.553  0.00  0.00    +0.085 C 
ATOM      2  C   UNL     1       3.857  -1.592  -0.224  0.00  0.00    +0.053 C 
ATOM      3  N   UNL     1       3.540  -0.329   0.023  0.00  0.00    -0.228 NA
ATOM      4  C   UNL     1       2.324   0.159  -0.020  0.00  0.00    +0.178 A 
ATOM      5  N   UNL     1       1.209  -0.584  -0.330  0.00  0.00    -0.275 N 
ATOM      6  C   UNL     1       0.021   0.034  -0.341  0.00  0.00    +0.268 A 
ATOM      7  O   UNL     1      -1.000  -0.575  -0.609  0.00  0.00    -0.266 OA
ATOM      8  C   UNL     1      -0.015   1.416  -0.032  0.00  0.00    +0.084 A 
ATOM      9  C   UNL     1      -1.095   2.272   0.020  0.00  0.00    +0.067 C 
ATOM     10  S   UNL     1       1.712   1.754   0.264  0.00  0.00    -0.046 S 
ATOM     11  C   UNL     1       1.458  -2.022  -0.625  0.00  0.00    +0.162 C 
ATOM     12  C   UNL     1       5.297  -2.030  -0.141  0.00  0.00    +0.066 C 
ENDROOT
BRANCH  11  13
ATOM     13  C   UNL     1       0.645  -2.842   0.344  0.00  0.00    -0.020 A 
ATOM     14  C   UNL     1       0.545  -2.449   1.666  0.00  0.00    +0.007 A 
ATOM     15  C   UNL     1      -0.204  -3.194   2.555  0.00  0.00    +0.015 A 
ATOM     16  C   UNL     1      -0.849  -4.346   2.122  0.00  0.00    +0.008 A 
ATOM     17  C   UNL     1      -0.742  -4.741   0.794  0.00  0.00    +0.015 A 
ATOM     18  C   UNL     1       0.004  -3.988  -0.091  0.00  0.00    +0.007 A 
BRANCH  16  19
ATOM     19  S   UNL     1      -1.800  -5.304   3.254  0.00  0.00    -0.129 S 
ATOM     20  C   UNL     1      -1.643  -4.411   4.825  0.00  0.00    +0.090 C 
ENDBRANCH  16  19
ENDBRANCH  11  13
BRANCH   9  21
ATOM     21  C   UNL     1      -2.402   1.762  -0.083  0.00  0.00    +0.131 A 
ATOM     22  C   UNL     1      -3.563   2.511  -0.183  0.00  0.00    +0.051 A 
ATOM     23  C   UNL     1      -4.621   1.602  -0.262  0.00  0.00    +0.066 A 
ATOM     24  C   UNL     1      -4.081   0.349  -0.208  0.00  0.00    +0.189 A 
ATOM     25  O   UNL     1      -2.747   0.455  -0.106  0.00  0.00    -0.442 OA
BRANCH  24  26
ATOM     26  N   UNL     1      -4.791  -0.834  -0.257  0.00  0.00    -0.297 N 
ATOM     27  C   UNL     1      -5.803  -0.884   0.808  0.00  0.00    +0.136 C 
ATOM     28  C   UNL     1      -6.605  -2.182   0.680  0.00  0.00    +0.179 C 
ATOM     29  O   UNL     1      -5.710  -3.297   0.731  0.00  0.00    -0.377 OA
ATOM     30  C   UNL     1      -4.711  -3.280  -0.292  0.00  0.00    +0.179 C 
ATOM     31  C   UNL     1      -3.890  -1.993  -0.174  0.00  0.00    +0.136 C 
ENDBRANCH  24  26
ENDBRANCH   9  21
BRANCH   1  32
ATOM     32  C   UNL     1       3.217  -3.841  -0.816  0.00  0.00    +0.339 C 
ATOM     33  O   UNL     1       4.377  -4.209  -0.752  0.00  0.00    -0.245 OA
BRANCH  32  34
ATOM     34  O   UNL     1       2.246  -4.723  -1.139  0.00  0.00    -0.462 OA
BRANCH  34  36
ATOM     35  C   UNL     1       1.423  -6.914  -1.742  0.00  0.00    +0.048 C 
ATOM     36  C   UNL     1       2.651  -6.069  -1.394  0.00  0.00    +0.229 C 
ENDBRANCH  34  36
ENDBRANCH  32  34
ENDBRANCH   1  32
TORSDOF 7
