REMARK  Name = ZINC30826271
REMARK  8 active torsions:
REMARK  status: ('A' for Active; 'I' for Inactive)
REMARK    1  A    between atoms: C_1  and  C_2
REMARK    2  A    between atoms: N_5  and  C_8
REMARK    3  A    between atoms: C_11  and  N_32
REMARK    4  A    between atoms: C_13  and  C_14
REMARK    5  A    between atoms: N_16  and  C_17
REMARK    6  A    between atoms: C_17  and  N_19
REMARK    7  A    between atoms: N_19  and  C_20
REMARK    8  A    between atoms: C_25  and  C_26
REMARK                            x       y       z     vdW  Elec       q    Type
REMARK                         _______ _______ _______ _____ _____    ______ ____
ROOT
ATOM      1  C   UNL     1      -2.457   4.197   0.916  0.00  0.00    +0.251 C 
ATOM      2  O   UNL     1      -3.500   3.607   1.123  0.00  0.00    -0.270 OA
ATOM      3  N   UNL     1      -2.458   5.537   0.774  0.00  0.00    -0.264 N 
ATOM      4  H   UNL     1      -1.515   6.071   0.586  0.00  0.00    +0.157 HD
ENDROOT
BRANCH   1  10
ATOM      5  C   UNL     1      -1.169   2.066   1.074  0.00  0.00    +0.042 A 
ATOM      6  C   UNL     1       0.031   1.371   0.986  0.00  0.00    +0.026 A 
ATOM      7  C   UNL     1       1.190   2.035   0.639  0.00  0.00    +0.034 A 
ATOM      8  C   UNL     1       1.169   3.397   0.383  0.00  0.00    +0.127 A 
ATOM      9  C   UNL     1      -0.010   4.104   0.470  0.00  0.00    +0.047 A 
ATOM     10  C   UNL     1      -1.193   3.447   0.820  0.00  0.00    +0.060 A 
BRANCH   5  15
ATOM     11  C   UNL     1      -5.354  -1.409   2.549  0.00  0.00    +0.007 C 
ATOM     12  C   UNL     1      -3.975  -0.848   2.196  0.00  0.00    -0.011 C 
ATOM     13  C   UNL     1      -3.611   0.269   3.178  0.00  0.00    +0.022 C 
ATOM     14  C   UNL     1      -2.259   0.868   2.783  0.00  0.00    +0.105 C 
ATOM     15  N   UNL     1      -2.338   1.399   1.417  0.00  0.00    -0.329 N 
ATOM     16  C   UNL     1      -2.640   0.337   0.450  0.00  0.00    +0.105 C 
ATOM     17  C   UNL     1      -4.004  -0.278   0.775  0.00  0.00    +0.022 C 
ENDBRANCH   5  15
BRANCH   8  18
ATOM     18  N   UNL     1       2.420   4.096   0.012  0.00  0.00    +0.056 N 
ATOM     19  O   UNL     1       3.465   3.474  -0.067  0.00  0.00    -0.126 OA
ATOM     20  O   UNL     1       2.406   5.292  -0.215  0.00  0.00    -0.126 OA
ENDBRANCH   8  18
ENDBRANCH   1  10
BRANCH   3  21
ATOM     21  C   UNL     1      -3.615   6.223   0.861  0.00  0.00    +0.141 C 
ATOM     22  S   UNL     1      -5.083   5.392   1.153  0.00  0.00    -0.018 S 
BRANCH  21  23
ATOM     23  N   UNL     1      -3.616   7.563   0.719  0.00  0.00    -0.296 N 
ATOM     24  H   UNL     1      -2.688   8.088   0.448  0.00  0.00    +0.154 HD
BRANCH  23  25
ATOM     25  C   UNL     1      -4.795   8.286   0.916  0.00  0.00    +0.040 A 
ATOM     26  C   UNL     1      -5.998   7.803   0.420  0.00  0.00    +0.024 A 
ATOM     27  C   UNL     1      -7.164   8.519   0.615  0.00  0.00    +0.002 A 
ATOM     28  C   UNL     1      -7.139   9.719   1.306  0.00  0.00    +0.001 A 
ATOM     29  C   UNL     1      -5.950  10.210   1.805  0.00  0.00    +0.010 A 
ATOM     30  C   UNL     1      -4.769   9.495   1.618  0.00  0.00    +0.003 A 
BRANCH  30  31
ATOM     31  C   UNL     1      -3.490  10.017   2.157  0.00  0.00    -0.016 A 
ATOM     32  C   UNL     1      -2.664   9.192   2.920  0.00  0.00    +0.008 A 
ATOM     33  C   UNL     1      -1.472   9.681   3.414  0.00  0.00    +0.001 A 
ATOM     34  C   UNL     1      -1.102  10.990   3.164  0.00  0.00    +0.000 A 
ATOM     35  C   UNL     1      -1.920  11.815   2.413  0.00  0.00    +0.001 A 
ATOM     36  C   UNL     1      -3.111  11.335   1.908  0.00  0.00    +0.008 A 
ENDBRANCH  30  31
ENDBRANCH  23  25
ENDBRANCH  21  23
ENDBRANCH   3  21
TORSDOF 7
