REMARK  Name = ZINC20331854
REMARK  12 active torsions:
REMARK  status: ('A' for Active; 'I' for Inactive)
REMARK    1  A    between atoms: C_1  and  C_2
REMARK    2  A    between atoms: C_2  and  C_3
REMARK    3  A    between atoms: C_9  and  C_13
REMARK    4  A    between atoms: C_13  and  O_14
REMARK    5  A    between atoms: O_14  and  C_15
REMARK    6  A    between atoms: C_18  and  C_24
REMARK    7  A    between atoms: C_20  and  O_21
REMARK    8  A    between atoms: O_21  and  C_22
REMARK    9  A    between atoms: C_22  and  C_23
REMARK   10  A    between atoms: C_25  and  C_26
REMARK   11  A    between atoms: C_25  and  C_28
REMARK   12  A    between atoms: N_30  and  C_31
REMARK                            x       y       z     vdW  Elec       q    Type
REMARK                         _______ _______ _______ _____ _____    ______ ____
ROOT
ATOM      1  C   UNL     1       0.370  -6.338  -1.250  0.00  0.00    +0.162 A 
ATOM      2  C   UNL     1       0.335  -7.283  -0.232  0.00  0.00    +0.050 A 
ATOM      3  C   UNL     1       0.852  -8.542  -0.439  0.00  0.00    +0.012 A 
ATOM      4  C   UNL     1       1.426  -8.869  -1.676  0.00  0.00    -0.020 A 
ATOM      5  C   UNL     1       1.466  -7.911  -2.700  0.00  0.00    +0.057 A 
ATOM      6  C   UNL     1       0.940  -6.654  -2.484  0.00  0.00    +0.162 A 
ENDROOT
BRANCH   4   7
ATOM      7  C   UNL     1       1.982 -10.205  -1.898  0.00  0.00    +0.032 C 
ATOM      8  C   UNL     1       2.586 -10.881  -0.860  0.00  0.00    +0.114 C 
BRANCH   8   9
ATOM      9  C   UNL     1       2.997 -12.283  -1.036  0.00  0.00    +0.259 C 
ATOM     10  O   UNL     1       2.803 -12.845  -2.097  0.00  0.00    -0.269 OA
ATOM     11  N   UNL     1       3.587 -12.944  -0.021  0.00  0.00    -0.281 N 
ATOM     12  H   UNL     1       3.685 -12.465   0.965  0.00  0.00    +0.155 HD
BRANCH  11  13
ATOM     13  C   UNL     1       4.076 -14.239  -0.220  0.00  0.00    +0.034 A 
ATOM     14  C   UNL     1       3.980 -15.183   0.794  0.00  0.00    +0.023 A 
ATOM     15  C   UNL     1       4.459 -16.462   0.592  0.00  0.00    +0.002 A 
ATOM     16  C   UNL     1       5.043 -16.801  -0.615  0.00  0.00    +0.000 A 
ATOM     17  C   UNL     1       5.144 -15.862  -1.625  0.00  0.00    +0.002 A 
ATOM     18  C   UNL     1       4.663 -14.583  -1.431  0.00  0.00    +0.023 A 
ENDBRANCH  11  13
ENDBRANCH   8   9
BRANCH   8  19
ATOM     19  C   UNL     1       2.813 -10.220   0.389  0.00  0.00    +0.104 C 
ATOM     20  N   UNL     1       2.994  -9.695   1.381  0.00  0.00    -0.191 NA
ENDBRANCH   8  19
ENDBRANCH   4   7
BRANCH   1  21
ATOM     21  O   UNL     1      -0.147  -5.100  -1.041  0.00  0.00    -0.482 OA
BRANCH  21  22
ATOM     22  C   UNL     1      -0.715  -4.843   0.245  0.00  0.00    +0.284 C 
BRANCH  22  29
ATOM     23  C   UNL     1      -1.516   1.428   0.292  0.00  0.00    +0.102 A 
ATOM     24  N   UNL     1      -2.449   0.531   0.395  0.00  0.00    -0.159 NA
ATOM     25  N   UNL     1      -2.159  -0.830   0.373  0.00  0.00    -0.171 N 
ATOM     26  C   UNL     1      -3.045  -1.864   0.471  0.00  0.00    +0.275 A 
ATOM     27  O   UNL     1      -4.238  -1.638   0.595  0.00  0.00    -0.266 OA
ATOM     28  C   UNL     1      -2.583  -3.180   0.430  0.00  0.00    +0.099 A 
ATOM     29  C   UNL     1      -1.234  -3.428   0.291  0.00  0.00    +0.087 A 
ATOM     30  N   UNL     1      -0.399  -2.397   0.198  0.00  0.00    -0.223 NA
ATOM     31  C   UNL     1      -0.840  -1.165   0.237  0.00  0.00    +0.199 A 
ATOM     32  S   UNL     1      -0.046   0.425   0.145  0.00  0.00    -0.033 S 
BRANCH  23  34
ATOM     33  C   UNL     1      -3.113   3.319   0.448  0.00  0.00    +0.011 C 
ATOM     34  C   UNL     1      -1.641   2.930   0.297  0.00  0.00    +0.061 C 
ENDBRANCH  23  34
ENDBRANCH  22  29
ENDBRANCH  21  22
ENDBRANCH   1  21
BRANCH   6  35
ATOM     35  O   UNL     1       0.977  -5.723  -3.474  0.00  0.00    -0.489 OA
BRANCH  35  36
ATOM     36  C   UNL     1       1.575  -6.114  -4.711  0.00  0.00    +0.226 C 
ATOM     37  C   UNL     1       1.525  -4.944  -5.695  0.00  0.00    +0.048 C 
ENDBRANCH  35  36
ENDBRANCH   6  35
TORSDOF 10
