REMARK  Name = ZINC65988390
REMARK  7 active torsions:
REMARK  status: ('A' for Active; 'I' for Inactive)
REMARK    1  A    between atoms: C_1  and  C_2
REMARK    2  A    between atoms: C_2  and  C_28
REMARK    3  A    between atoms: C_4  and  N_10
REMARK    4  A    between atoms: C_6  and  C_8
REMARK    5  A    between atoms: C_6  and  C_9
REMARK    6  A    between atoms: C_17  and  C_19
REMARK    7  A    between atoms: N_21  and  C_22
REMARK                            x       y       z     vdW  Elec       q    Type
REMARK                         _______ _______ _______ _____ _____    ______ ____
ROOT
ATOM      1  N   UNL     1      -3.540  -0.921   1.006  0.00  0.00    -0.296 N 
ATOM      2  C   UNL     1      -4.546  -0.473   1.784  0.00  0.00    +0.302 C 
ATOM      3  O   UNL     1      -4.316   0.318   2.678  0.00  0.00    -0.253 OA
ATOM      4  N   UNL     1      -5.805  -0.903   1.571  0.00  0.00    -0.285 N 
ATOM      5  C   UNL     1      -6.082  -1.945   0.573  0.00  0.00    +0.109 C 
ATOM      6  C   UNL     1      -7.155  -1.431  -0.392  0.00  0.00    +0.020 C 
ATOM      7  C   UNL     1      -8.382  -0.985   0.407  0.00  0.00    +0.016 C 
ATOM      8  C   UNL     1      -7.992   0.158   1.348  0.00  0.00    +0.092 C 
ATOM      9  C   UNL     1      -6.927  -0.342   2.337  0.00  0.00    +0.122 C 
ATOM     10  H   UNL     1      -3.710  -1.607   0.342  0.00  0.00    +0.151 HD
ENDROOT
BRANCH   1  14
ATOM     11  C   UNL     1      -0.021   1.532   0.007  0.00  0.00    -0.010 C 
ATOM     12  C   UNL     1       0.001  -0.001  -0.001  0.00  0.00    -0.072 C 
ATOM     13  C   UNL     1      -1.420  -0.536  -0.147  0.00  0.00    +0.009 C 
ATOM     14  C   UNL     1      -2.188  -0.371   1.165  0.00  0.00    +0.072 C 
ATOM     15  C   UNL     1      -1.450  -1.153   2.251  0.00  0.00    +0.009 C 
ATOM     16  C   UNL     1      -0.029  -0.623   2.415  0.00  0.00    -0.072 C 
ATOM     17  N   UNL     1       0.696  -0.525   1.161  0.00  0.00    +0.386 N 
ATOM     18  C   UNL     1       0.732  -1.617   3.323  0.00  0.00    -0.010 C 
ATOM     19  C   UNL     1      -0.059   0.723   3.148  0.00  0.00    -0.010 C 
ATOM     20  C   UNL     1       0.789  -0.436  -1.258  0.00  0.00    -0.010 C 
ATOM     21  H   UNL     1       1.056  -1.456   0.925  0.00  0.00    -0.084 HD
ATOM     22  H   UNL     1       1.533   0.045   1.318  0.00  0.00    -0.084 HD
ENDBRANCH   1  14
BRANCH   8  23
ATOM     23  C   UNL     1      -9.207   0.619   2.111  0.00  0.00    +0.218 C 
ATOM     24  O   UNL     1     -10.280   0.086   1.921  0.00  0.00    -0.275 OA
ATOM     25  N   UNL     1      -9.101   1.623   3.004  0.00  0.00    -0.312 N 
ATOM     26  H   UNL     1      -8.243   2.048   3.156  0.00  0.00    +0.149 HD
BRANCH  25  27
ATOM     27  C   UNL     1     -10.283   2.071   3.746  0.00  0.00    +0.073 C 
ATOM     28  C   UNL     1     -11.053   3.093   2.908  0.00  0.00    +0.022 C 
ATOM     29  C   UNL     1     -12.287   3.561   3.682  0.00  0.00    +0.002 C 
ATOM     30  C   UNL     1     -11.848   4.207   4.998  0.00  0.00    +0.000 C 
ATOM     31  C   UNL     1     -11.078   3.184   5.836  0.00  0.00    +0.002 C 
ATOM     32  C   UNL     1      -9.844   2.716   5.062  0.00  0.00    +0.022 C 
ENDBRANCH  25  27
ENDBRANCH   8  23
TORSDOF 3
