REMARK  Name = ZINC32634082
REMARK  7 active torsions:
REMARK  status: ('A' for Active; 'I' for Inactive)
REMARK    1  A    between atoms: C_1  and  C_2
REMARK    2  A    between atoms: C_5  and  C_8
REMARK    3  A    between atoms: C_10  and  C_13
REMARK    4  A    between atoms: C_14  and  N_34
REMARK    5  A    between atoms: N_15  and  C_33
REMARK    6  A    between atoms: C_18  and  C_26
REMARK    7  A    between atoms: N_19  and  C_20
REMARK                            x       y       z     vdW  Elec       q    Type
REMARK                         _______ _______ _______ _____ _____    ______ ____
ROOT
ATOM      1  C   UNL     1      -0.985  -7.327   1.824  0.00  0.00    +0.117 A 
ATOM      2  C   UNL     1      -1.095  -8.678   1.490  0.00  0.00    +0.117 A 
ATOM      3  N   UNL     1      -0.765  -9.535   2.432  0.00  0.00    -0.314 N 
ATOM      4  C   UNL     1      -0.357  -9.130   3.619  0.00  0.00    +0.146 A 
ATOM      5  N   UNL     1       0.020  -9.902   4.701  0.00  0.00    -0.279 N 
ATOM      6  C   UNL     1       0.423  -9.297   5.873  0.00  0.00    +0.132 C 
ATOM      7  N   UNL     1       0.448  -7.989   5.962  0.00  0.00    -0.232 NA
ATOM      8  S   UNL     1      -0.395  -7.451   3.504  0.00  0.00    -0.047 S 
ATOM      9  C   UNL     1      -0.855 -10.971   2.157  0.00  0.00    +0.152 C 
ATOM     10  H   UNL     1       0.002 -10.870   4.636  0.00  0.00    +0.155 HD
ENDROOT
BRANCH   7  11
ATOM     11  C   UNL     1       0.701  -7.389   7.165  0.00  0.00    +0.066 A 
ATOM     12  C   UNL     1      -0.089  -7.688   8.277  0.00  0.00    +0.028 A 
ATOM     13  C   UNL     1       0.171  -7.079   9.487  0.00  0.00    +0.002 A 
ATOM     14  C   UNL     1       1.212  -6.175   9.601  0.00  0.00    +0.000 A 
ATOM     15  C   UNL     1       1.999  -5.874   8.502  0.00  0.00    +0.002 A 
ATOM     16  C   UNL     1       1.754  -6.480   7.288  0.00  0.00    +0.028 A 
ENDBRANCH   7  11
BRANCH   6  17
ATOM     17  C   UNL     1       0.826 -10.124   7.030  0.00  0.00    +0.015 A 
ATOM     18  C   UNL     1       0.142 -11.306   7.319  0.00  0.00    +0.011 A 
ATOM     19  C   UNL     1       0.524 -12.073   8.401  0.00  0.00    +0.001 A 
ATOM     20  C   UNL     1       1.582 -11.673   9.198  0.00  0.00    +0.000 A 
ATOM     21  C   UNL     1       2.264 -10.502   8.917  0.00  0.00    +0.001 A 
ATOM     22  C   UNL     1       1.896  -9.728   7.835  0.00  0.00    +0.011 A 
ENDBRANCH   6  17
BRANCH   1  25
ATOM     23  C   UNL     1      -1.473  -4.095   0.441  0.00  0.00    +0.202 A 
ATOM     24  N   UNL     1      -1.124  -4.923   1.436  0.00  0.00    -0.186 NA
ATOM     25  C   UNL     1      -1.260  -6.177   1.044  0.00  0.00    +0.269 A 
ATOM     26  O   UNL     1      -1.706  -6.171  -0.228  0.00  0.00    -0.332 OA
ATOM     27  N   UNL     1      -1.841  -4.807  -0.597  0.00  0.00    -0.056 NA
BRANCH  23  32
ATOM     28  C   UNL     1      -1.393   1.658   0.695  0.00  0.00    +0.044 C 
ATOM     29  C   UNL     1      -1.414   0.153   0.628  0.00  0.00    -0.050 A 
ATOM     30  C   UNL     1      -1.824  -0.480  -0.531  0.00  0.00    +0.004 A 
ATOM     31  C   UNL     1      -1.845  -1.859  -0.597  0.00  0.00    +0.012 A 
ATOM     32  C   UNL     1      -1.452  -2.612   0.506  0.00  0.00    +0.022 A 
ATOM     33  C   UNL     1      -1.040  -1.970   1.672  0.00  0.00    +0.012 A 
ATOM     34  C   UNL     1      -1.018  -0.591   1.725  0.00  0.00    +0.004 A 
ENDBRANCH  23  32
ENDBRANCH   1  25
BRANCH   2  35
ATOM     35  N   UNL     1      -1.528  -9.094   0.235  0.00  0.00    -0.343 N 
ATOM     36  H   UNL     1      -1.764  -8.437  -0.439  0.00  0.00    +0.144 HD
ATOM     37  H   UNL     1      -1.594 -10.040   0.033  0.00  0.00    +0.144 HD
ENDBRANCH   2  35
TORSDOF 5
