REMARK  Name = ZINC13270492
REMARK  11 active torsions:
REMARK  status: ('A' for Active; 'I' for Inactive)
REMARK    1  A    between atoms: C_1  and  C_2
REMARK    2  A    between atoms: C_2  and  C_3
REMARK    3  A    between atoms: C_3  and  C_4
REMARK    4  A    between atoms: C_7  and  S_12
REMARK    5  A    between atoms: N_8  and  C_9
REMARK    6  A    between atoms: C_9  and  C_10
REMARK    7  A    between atoms: S_12  and  C_13
REMARK    8  A    between atoms: C_13  and  C_14
REMARK    9  A    between atoms: C_17  and  C_29
REMARK   10  A    between atoms: C_20  and  C_22
REMARK   11  A    between atoms: C_23  and  C_24
REMARK                            x       y       z     vdW  Elec       q    Type
REMARK                         _______ _______ _______ _____ _____    ______ ____
ROOT
ATOM      1  C   UNL     1      -0.473   1.395  -2.437  0.00  0.00    +0.246 C 
ATOM      2  O   UNL     1       0.502   0.739  -2.736  0.00  0.00    -0.273 OA
ATOM      3  N   UNL     1      -0.777   1.599  -1.140  0.00  0.00    -0.181 N 
ATOM      4  C   UNL     1      -0.013   1.086   0.008  0.00  0.00    +0.172 C 
ATOM      5  C   UNL     1      -0.790   1.611   1.231  0.00  0.00    +0.089 C 
ATOM      6  C   UNL     1      -1.941   2.383   0.629  0.00  0.00    +0.062 C 
ATOM      7  N   UNL     1      -1.867   2.330  -0.662  0.00  0.00    -0.181 NA
ENDROOT
BRANCH   4   8
ATOM      8  C   UNL     1       1.391   1.633  -0.003  0.00  0.00    +0.128 A 
ATOM      9  C   UNL     1       2.499   0.966   0.369  0.00  0.00    +0.046 A 
ATOM     10  C   UNL     1       3.587   1.853   0.201  0.00  0.00    +0.041 A 
ATOM     11  C   UNL     1       3.079   3.009  -0.263  0.00  0.00    +0.195 A 
ATOM     12  O   UNL     1       1.750   2.868  -0.390  0.00  0.00    -0.466 OA
ENDBRANCH   4   8
BRANCH   6  13
ATOM     13  C   UNL     1      -2.945   3.059   1.362  0.00  0.00    +0.028 C 
ATOM     14  C   UNL     1      -3.931   3.720   0.711  0.00  0.00    +0.048 C 
BRANCH  14  15
ATOM     15  C   UNL     1      -4.967   4.419   1.468  0.00  0.00    +0.128 A 
ATOM     16  C   UNL     1      -6.011   5.126   0.939  0.00  0.00    +0.049 A 
ATOM     17  C   UNL     1      -6.755   5.622   2.024  0.00  0.00    +0.042 A 
ATOM     18  C   UNL     1      -6.137   5.210   3.151  0.00  0.00    +0.195 A 
ATOM     19  O   UNL     1      -5.059   4.484   2.812  0.00  0.00    -0.464 OA
ENDBRANCH  14  15
ENDBRANCH   6  13
BRANCH   1  20
ATOM     20  C   UNL     1      -1.347   1.982  -3.516  0.00  0.00    +0.175 C 
BRANCH  20  21
ATOM     21  S   UNL     1      -0.682   1.535  -5.139  0.00  0.00    -0.077 S 
BRANCH  21  25
ATOM     22  C   UNL     1      -2.960   3.064  -7.912  0.00  0.00    +0.135 A 
ATOM     23  N   UNL     1      -3.546   3.458  -6.817  0.00  0.00    -0.134 NA
ATOM     24  N   UNL     1      -2.905   3.022  -5.792  0.00  0.00    -0.122 NA
ATOM     25  C   UNL     1      -1.861   2.327  -6.182  0.00  0.00    +0.193 A 
ATOM     26  N   UNL     1      -1.865   2.330  -7.547  0.00  0.00    -0.295 N 
BRANCH  22  27
ATOM     27  C   UNL     1      -3.405   3.363  -9.321  0.00  0.00    +0.076 C 
BRANCH  27  29
ATOM     28  C   UNL     1      -4.812   2.570 -11.227  0.00  0.00    +0.004 C 
ATOM     29  C   UNL     1      -4.360   2.267  -9.797  0.00  0.00    +0.004 C 
ENDBRANCH  27  29
ENDBRANCH  22  27
BRANCH  26  30
ATOM     30  C   UNL     1      -0.899   1.681  -8.436  0.00  0.00    +0.250 C 
BRANCH  30  31
ATOM     31  C   UNL     1      -1.359   0.279  -8.740  0.00  0.00    +0.375 C 
ATOM     32  O   UNL     1      -2.389  -0.136  -8.263  0.00  0.00    -0.244 OA
ATOM     33  O   UNL     1      -0.625  -0.510  -9.541  0.00  0.00    -0.244 OA
ENDBRANCH  30  31
ENDBRANCH  26  30
ENDBRANCH  21  25
ENDBRANCH  20  21
ENDBRANCH   1  20
TORSDOF 10
