REMARK  Name = ZINC43737042
REMARK  9 active torsions:
REMARK  status: ('A' for Active; 'I' for Inactive)
REMARK    1  A    between atoms: C_1  and  C_2
REMARK    2  A    between atoms: C_5  and  O_45
REMARK    3  A    between atoms: C_18  and  C_44
REMARK    4  A    between atoms: C_23  and  C_24
REMARK    5  A    between atoms: C_24  and  C_26
REMARK    6  A    between atoms: C_26  and  C_27
REMARK    7  A    between atoms: C_34  and  O_35
REMARK    8  A    between atoms: O_35  and  C_36
REMARK    9  A    between atoms: N_42  and  C_43
REMARK                            x       y       z     vdW  Elec       q    Type
REMARK                         _______ _______ _______ _____ _____    ______ ____
ROOT
ATOM      1  C   UNL     1      -0.713   1.955  -0.009  0.00  0.00    +0.012 C 
ATOM      2  C   UNL     1      -0.585   0.427   0.030  0.00  0.00    -0.026 C 
ATOM      3  C   UNL     1       0.175  -0.051  -1.204  0.00  0.00    +0.010 C 
ATOM      4  C   UNL     1       1.593   0.524  -1.204  0.00  0.00    +0.032 C 
ATOM      5  C   UNL     1       2.335   0.134   0.073  0.00  0.00    +0.115 C 
ATOM      6  C   UNL     1       1.563   0.614   1.305  0.00  0.00    +0.035 C 
ATOM      7  C   UNL     1       0.170  -0.012   1.285  0.00  0.00    -0.002 C 
ATOM      8  C   UNL     1      -0.606   0.317   2.554  0.00  0.00    +0.004 C 
ATOM      9  C   UNL     1      -1.957  -0.420   2.549  0.00  0.00    +0.004 C 
ATOM     10  C   UNL     1      -2.079  -1.163   1.227  0.00  0.00    -0.003 C 
ATOM     11  C   UNL     1      -1.996  -0.158   0.072  0.00  0.00    -0.001 C 
ATOM     12  C   UNL     1      -2.424  -0.820  -1.226  0.00  0.00    +0.005 C 
ATOM     13  C   UNL     1      -3.923  -1.173  -1.195  0.00  0.00    +0.012 C 
ATOM     14  C   UNL     1      -4.388  -1.405   0.217  0.00  0.00    -0.001 C 
ATOM     15  C   UNL     1      -3.270  -2.045   1.069  0.00  0.00    +0.006 C 
ATOM     16  C   UNL     1      -4.107  -2.405   2.307  0.00  0.00    +0.032 C 
ATOM     17  C   UNL     1      -5.359  -2.969   1.629  0.00  0.00    -0.019 C 
ATOM     18  C   UNL     1      -5.509  -2.400   0.414  0.00  0.00    -0.003 C 
ATOM     19  C   UNL     1      -4.898  -0.093   0.822  0.00  0.00    +0.016 C 
ENDROOT
BRANCH  18  20
ATOM     20  C   UNL     1      -6.569  -2.681  -0.547  0.00  0.00    +0.158 C 
ATOM     21  O   UNL     1      -7.423  -3.502  -0.285  0.00  0.00    -0.292 OA
BRANCH  20  22
ATOM     22  C   UNL     1      -6.604  -1.951  -1.865  0.00  0.00    +0.069 C 
BRANCH  22  23
ATOM     23  C   UNL     1      -7.878  -2.330  -2.624  0.00  0.00    -0.027 C 
ATOM     24  C   UNL     1      -9.073  -2.081  -1.742  0.00  0.00    -0.012 A 
ATOM     25  C   UNL     1     -10.132  -2.964  -1.690  0.00  0.00    -0.040 A 
ATOM     26  C   UNL     1     -11.217  -2.699  -0.869  0.00  0.00    +0.053 A 
ATOM     27  C   UNL     1     -11.248  -1.551  -0.095  0.00  0.00    +0.170 A 
ATOM     28  C   UNL     1     -10.182  -0.658  -0.143  0.00  0.00    +0.208 A 
ATOM     29  C   UNL     1      -9.098  -0.927  -0.967  0.00  0.00    +0.167 A 
ATOM     30  O   UNL     1     -10.446   0.383   0.700  0.00  0.00    -0.449 OA
ATOM     31  C   UNL     1     -11.862   0.323   0.953  0.00  0.00    +0.467 C 
ATOM     32  O   UNL     1     -12.181  -1.070   0.777  0.00  0.00    -0.452 OA
ATOM     33  C   UNL     1     -10.141  -4.229  -2.510  0.00  0.00    +0.017 C 
ATOM     34  C   UNL     1      -9.089  -4.136  -3.616  0.00  0.00    -0.074 C 
ATOM     35  N   UNL     1      -7.808  -3.742  -3.012  0.00  0.00    +0.383 N 
ATOM     36  C   UNL     1      -6.726  -3.930  -3.987  0.00  0.00    -0.095 C 
ATOM     37  H   UNL     1      -7.631  -4.308  -2.195  0.00  0.00    -0.081 HD
BRANCH  29  38
ATOM     38  O   UNL     1      -8.054  -0.057  -1.016  0.00  0.00    -0.491 OA
ATOM     39  C   UNL     1      -8.123   0.986  -1.991  0.00  0.00    +0.277 C 
ENDBRANCH  29  38
ENDBRANCH  22  23
ENDBRANCH  20  22
ENDBRANCH  18  20
BRANCH   5  40
ATOM     40  O   UNL     1       3.635   0.729   0.068  0.00  0.00    -0.392 OA
ATOM     41  H   UNL     1       4.189   0.459  -0.678  0.00  0.00    +0.210 HD
ENDBRANCH   5  40
TORSDOF 5
