REMARK  Name = ZINC63589248
REMARK  11 active torsions:
REMARK  status: ('A' for Active; 'I' for Inactive)
REMARK    1  A    between atoms: C_1  and  C_2
REMARK    2  A    between atoms: C_2  and  C_3
REMARK    3  A    between atoms: C_8  and  N_9
REMARK    4  A    between atoms: N_11  and  C_12
REMARK    5  A    between atoms: C_12  and  C_13
REMARK    6  A    between atoms: C_13  and  C_14
REMARK    7  A    between atoms: N_23  and  C_24
REMARK    8  A    between atoms: C_24  and  C_26
REMARK    9  A    between atoms: C_30  and  N_32
REMARK   10  A    between atoms: N_32  and  C_33
REMARK   11  A    between atoms: N_32  and  C_34
REMARK                            x       y       z     vdW  Elec       q    Type
REMARK                         _______ _______ _______ _____ _____    ______ ____
ROOT
ATOM      1  N   UNL     1      -1.804  -1.532  -3.302  0.00  0.00    -0.328 N 
ATOM      2  C   UNL     1      -2.373  -0.729  -4.247  0.00  0.00    +0.194 C 
ATOM      3  N   UNL     1      -1.595   0.123  -4.976  0.00  0.00    -0.357 N 
ATOM      4  N   UNL     1      -3.680  -0.776  -4.457  0.00  0.00    -0.143 NA
ATOM      5  H   UNL     1      -2.005   0.727  -5.614  0.00  0.00    +0.162 HD
ATOM      6  H   UNL     1      -1.713  -2.484  -3.466  0.00  0.00    +0.169 HD
ENDROOT
BRANCH   1  12
ATOM      7  C   UNL     1      -0.643  -1.768  -1.198  0.00  0.00    -0.024 A 
ATOM      8  C   UNL     1      -0.194  -1.221  -0.011  0.00  0.00    +0.005 A 
ATOM      9  C   UNL     1      -0.456   0.104   0.284  0.00  0.00    +0.000 A 
ATOM     10  C   UNL     1      -1.168   0.886  -0.607  0.00  0.00    +0.002 A 
ATOM     11  C   UNL     1      -1.620   0.346  -1.795  0.00  0.00    +0.026 A 
ATOM     12  C   UNL     1      -1.353  -0.984  -2.097  0.00  0.00    +0.045 A 
BRANCH   7  14
ATOM     13  C   UNL     1       0.910  -3.304  -2.373  0.00  0.00    +0.009 C 
ATOM     14  C   UNL     1      -0.356  -3.212  -1.519  0.00  0.00    +0.034 C 
ENDBRANCH   7  14
ENDBRANCH   1  12
BRANCH   4  15
ATOM     15  C   UNL     1      -4.468  -1.466  -3.623  0.00  0.00    +0.270 C 
ATOM     16  O   UNL     1      -4.003  -1.949  -2.606  0.00  0.00    -0.268 OA
BRANCH  15  17
ATOM     17  C   UNL     1      -5.905  -1.642  -3.937  0.00  0.00    +0.041 A 
ATOM     18  C   UNL     1      -6.415  -1.194  -5.155  0.00  0.00    +0.013 A 
ATOM     19  C   UNL     1      -7.754  -1.359  -5.446  0.00  0.00    +0.003 A 
ATOM     20  C   UNL     1      -8.594  -1.967  -4.532  0.00  0.00    +0.023 A 
ATOM     21  C   UNL     1      -8.096  -2.417  -3.316  0.00  0.00    +0.030 A 
ATOM     22  C   UNL     1      -6.750  -2.261  -3.018  0.00  0.00    +0.036 A 
BRANCH  21  23
ATOM     23  N   UNL     1      -8.949  -3.031  -2.395  0.00  0.00    -0.336 N 
ATOM     24  C   UNL     1     -10.369  -3.200  -2.712  0.00  0.00    +0.129 C 
ATOM     25  C   UNL     1      -8.423  -3.505  -1.113  0.00  0.00    +0.129 C 
ENDBRANCH  21  23
ENDBRANCH  15  17
ENDBRANCH   4  15
BRANCH   3  26
ATOM     26  C   UNL     1      -0.142   0.125  -4.793  0.00  0.00    +0.120 C 
BRANCH  26  27
ATOM     27  C   UNL     1       0.483   1.199  -5.686  0.00  0.00    +0.054 C 
BRANCH  27  28
ATOM     28  C   UNL     1       1.985   1.123  -5.588  0.00  0.00    -0.040 C 
ATOM     29  C   UNL     1       2.803   0.294  -6.276  0.00  0.00    -0.001 A 
ATOM     30  C   UNL     1       2.550  -0.744  -7.282  0.00  0.00    +0.010 A 
ATOM     31  C   UNL     1       3.598  -1.422  -7.803  0.00  0.00    +0.001 A 
ATOM     32  C   UNL     1       4.917  -1.160  -7.406  0.00  0.00    +0.002 A 
ATOM     33  C   UNL     1       5.228  -0.221  -6.487  0.00  0.00    +0.026 A 
ATOM     34  C   UNL     1       4.205   0.553  -5.875  0.00  0.00    +0.043 A 
ATOM     35  N   UNL     1       4.250   1.504  -4.973  0.00  0.00    -0.380 N 
ATOM     36  C   UNL     1       2.882   1.961  -4.706  0.00  0.00    +0.144 C 
ATOM     37  H   UNL     1       5.054   1.851  -4.556  0.00  0.00    +0.160 HD
ENDBRANCH  27  28
ENDBRANCH  26  27
ENDBRANCH   3  26
TORSDOF 8
