REMARK  Name = ZINC47852560
REMARK  1 active torsions:
REMARK  status: ('A' for Active; 'I' for Inactive)
REMARK    1  A    between atoms: C_9  and  N_12
REMARK                            x       y       z     vdW  Elec       q    Type
REMARK                         _______ _______ _______ _____ _____    ______ ____
ROOT
ATOM      1  N   UNL     1       4.872  -2.834   0.137  0.00  0.00    -0.320 N 
ATOM      2  C   UNL     1       5.879  -2.804   1.102  0.00  0.00    +0.204 A 
ATOM      3  C   UNL     1       7.157  -3.497   0.871  0.00  0.00    +0.294 A 
ATOM      4  O   UNL     1       7.351  -4.106  -0.165  0.00  0.00    -0.264 OA
ATOM      5  N   UNL     1       8.111  -3.449   1.824  0.00  0.00    -0.271 N 
ATOM      6  H   UNL     1       8.958  -3.901   1.685  0.00  0.00    +0.174 HD
ATOM      7  C   UNL     1       7.889  -2.772   2.967  0.00  0.00    +0.343 A 
ATOM      8  O   UNL     1       8.758  -2.736   3.818  0.00  0.00    -0.245 OA
ATOM      9  N   UNL     1       6.725  -2.137   3.183  0.00  0.00    -0.226 N 
ATOM     10  H   UNL     1       6.590  -1.656   4.015  0.00  0.00    +0.194 HD
ATOM     11  N   UNL     1       5.705  -2.154   2.224  0.00  0.00    -0.149 NA
ATOM     12  H   UNL     1       5.009  -3.318  -0.692  0.00  0.00    +0.148 HD
ENDROOT
BRANCH   1  21
ATOM     13  C   UNL     1      -0.017   1.375   0.010  0.00  0.00    +0.000 A 
ATOM     14  C   UNL     1       1.174   2.078   0.002  0.00  0.00    +0.000 A 
ATOM     15  C   UNL     1       2.372   1.395  -0.016  0.00  0.00    +0.004 A 
ATOM     16  C   UNL     1       2.393   0.006  -0.025  0.00  0.00    -0.042 A 
ATOM     17  C   UNL     1       1.208  -0.694  -0.013  0.00  0.00    -0.044 A 
ATOM     18  C   UNL     1       0.002  -0.004   0.002  0.00  0.00    +0.004 A 
ATOM     19  C   UNL     1       1.155  -2.199  -0.005  0.00  0.00    +0.037 C 
ATOM     20  C   UNL     1       2.493  -2.786  -0.452  0.00  0.00    +0.027 C 
ATOM     21  C   UNL     1       3.607  -2.135   0.376  0.00  0.00    +0.077 C 
ATOM     22  C   UNL     1       3.736  -0.675  -0.053  0.00  0.00    +0.057 C 
ENDBRANCH   1  21
TORSDOF 1
