REMARK  Name = ZINC36430652
REMARK  11 active torsions:
REMARK  status: ('A' for Active; 'I' for Inactive)
REMARK    1  A    between atoms: C_1  and  C_2
REMARK    2  A    between atoms: C_2  and  C_3
REMARK    3  A    between atoms: C_2  and  N_30
REMARK    4  A    between atoms: C_6  and  S_15
REMARK    5  A    between atoms: N_7  and  C_8
REMARK    6  A    between atoms: S_15  and  C_16
REMARK    7  A    between atoms: C_16  and  C_17
REMARK    8  A    between atoms: N_19  and  C_20
REMARK    9  A    between atoms: C_25  and  C_29
REMARK   10  A    between atoms: C_26  and  C_27
REMARK   11  A    between atoms: C_26  and  C_28
REMARK                            x       y       z     vdW  Elec       q    Type
REMARK                         _______ _______ _______ _____ _____    ______ ____
ROOT
ATOM      1  C   UNL     1      -1.579  -0.130   0.110  0.00  0.00    +0.125 A 
ATOM      2  N   UNL     1      -2.319  -0.353   1.159  0.00  0.00    -0.135 NA
ATOM      3  N   UNL     1      -3.428  -0.901   0.809  0.00  0.00    -0.122 NA
ATOM      4  C   UNL     1      -3.457  -1.060  -0.494  0.00  0.00    +0.197 A 
ATOM      5  N   UNL     1      -2.279  -0.567  -0.983  0.00  0.00    -0.275 N 
ENDROOT
BRANCH   5   6
ATOM      6  C   UNL     1      -1.871  -0.521  -2.325  0.00  0.00    +0.050 A 
ATOM      7  C   UNL     1      -1.678   0.703  -2.951  0.00  0.00    +0.029 A 
ATOM      8  C   UNL     1      -1.276   0.746  -4.272  0.00  0.00    +0.040 A 
ATOM      9  C   UNL     1      -1.067  -0.431  -4.971  0.00  0.00    +0.124 A 
ATOM     10  C   UNL     1      -1.259  -1.652  -4.348  0.00  0.00    +0.040 A 
ATOM     11  C   UNL     1      -1.655  -1.699  -3.026  0.00  0.00    +0.029 A 
ATOM     12  F   UNL     1      -0.675  -0.387  -6.264  0.00  0.00    -0.205 F 
ENDBRANCH   5   6
BRANCH   1  14
ATOM     13  C   UNL     1      -0.337   2.004   0.337  0.00  0.00    -0.005 C 
ATOM     14  C   UNL     1      -0.209   0.498   0.101  0.00  0.00    -0.002 C 
BRANCH  14  15
ATOM     15  N   UNL     1       0.609  -0.097   1.167  0.00  0.00    +0.386 N 
ATOM     16  C   UNL     1       1.940   0.522   1.162  0.00  0.00    -0.078 C 
ATOM     17  C   UNL     1       2.770  -0.036   2.321  0.00  0.00    -0.019 C 
ATOM     18  C   UNL     1       2.910  -1.552   2.158  0.00  0.00    -0.004 C 
ATOM     19  C   UNL     1       1.514  -2.179   2.089  0.00  0.00    -0.019 C 
ATOM     20  C   UNL     1       0.731  -1.542   0.939  0.00  0.00    -0.078 C 
ATOM     21  H   UNL     1       0.168   0.066   2.059  0.00  0.00    -0.081 HD
ENDBRANCH  14  15
ENDBRANCH   1  14
BRANCH   4  22
ATOM     22  S   UNL     1      -4.768  -1.767  -1.434  0.00  0.00    -0.076 S 
BRANCH  22  23
ATOM     23  C   UNL     1      -6.016  -2.201  -0.191  0.00  0.00    +0.173 C 
BRANCH  23  24
ATOM     24  C   UNL     1      -7.207  -2.824  -0.871  0.00  0.00    +0.224 C 
ATOM     25  O   UNL     1      -7.215  -2.962  -2.076  0.00  0.00    -0.275 OA
ATOM     26  N   UNL     1      -8.265  -3.228  -0.141  0.00  0.00    -0.311 N 
ATOM     27  H   UNL     1      -8.260  -3.118   0.823  0.00  0.00    +0.149 HD
BRANCH  26  28
ATOM     28  C   UNL     1      -9.424  -3.834  -0.802  0.00  0.00    +0.080 C 
ATOM     29  C   UNL     1     -10.362  -2.738  -1.357  0.00  0.00    +0.027 C 
ATOM     30  C   UNL     1     -11.711  -2.956  -0.607  0.00  0.00    -0.003 C 
ATOM     31  C   UNL     1     -12.272  -4.289  -1.192  0.00  0.00    +0.005 C 
ATOM     32  C   UNL     1     -11.334  -5.385  -0.636  0.00  0.00    +0.009 C 
ATOM     33  C   UNL     1     -10.295  -4.612   0.232  0.00  0.00    -0.008 C 
ATOM     34  C   UNL     1     -11.190  -3.449   0.789  0.00  0.00    -0.025 C 
ATOM     35  C   UNL     1     -12.324  -3.972   1.673  0.00  0.00    +0.012 C 
ATOM     36  C   UNL     1     -10.362  -2.379   1.503  0.00  0.00    +0.012 C 
ATOM     37  C   UNL     1      -9.528  -5.447   1.259  0.00  0.00    +0.013 C 
ENDBRANCH  26  28
ENDBRANCH  23  24
ENDBRANCH  22  23
ENDBRANCH   4  22
TORSDOF 7
