REMARK  Name = ZINC13557657
REMARK  11 active torsions:
REMARK  status: ('A' for Active; 'I' for Inactive)
REMARK    1  A    between atoms: C_1  and  C_2
REMARK    2  A    between atoms: C_3  and  C_30
REMARK    3  A    between atoms: C_11  and  O_13
REMARK    4  A    between atoms: O_13  and  C_14
REMARK    5  A    between atoms: C_14  and  C_16
REMARK    6  A    between atoms: C_14  and  C_17
REMARK    7  A    between atoms: N_19  and  C_20
REMARK    8  A    between atoms: C_22  and  C_27
REMARK    9  A    between atoms: C_22  and  C_28
REMARK   10  A    between atoms: C_23  and  C_25
REMARK   11  A    between atoms: C_23  and  C_26
REMARK                            x       y       z     vdW  Elec       q    Type
REMARK                         _______ _______ _______ _____ _____    ______ ____
ROOT
ATOM      1  C   UNL     1       0.062   7.202  -2.386  0.00  0.00    +0.256 C 
ATOM      2  C   UNL     1       1.359   7.924  -2.014  0.00  0.00    +0.062 C 
ENDROOT
BRANCH   1   3
ATOM      3  C   UNL     1       0.312   5.717  -2.440  0.00  0.00    +0.254 C 
ATOM      4  O   UNL     1       0.212   5.123  -3.493  0.00  0.00    -0.272 OA
ATOM      5  N   UNL     1       0.646   5.048  -1.319  0.00  0.00    -0.310 N 
ATOM      6  H   UNL     1       0.726   5.523  -0.476  0.00  0.00    +0.149 HD
BRANCH   5   7
ATOM      7  C   UNL     1       0.889   3.601  -1.371  0.00  0.00    +0.070 C 
ATOM      8  C   UNL     1       1.812   3.203  -0.220  0.00  0.00    +0.009 C 
ATOM      9  C   UNL     1       2.066   1.698  -0.238  0.00  0.00    -0.072 C 
ATOM     10  C   UNL     1      -0.213   1.352  -1.236  0.00  0.00    -0.072 C 
ATOM     11  C   UNL     1      -0.438   2.861  -1.208  0.00  0.00    +0.009 C 
ATOM     12  C   UNL     1       0.051   0.899  -2.677  0.00  0.00    -0.010 C 
ATOM     13  C   UNL     1      -1.526   0.677  -0.778  0.00  0.00    -0.010 C 
ATOM     14  C   UNL     1       2.755   1.326   1.094  0.00  0.00    -0.010 C 
ATOM     15  C   UNL     1       3.046   1.357  -1.367  0.00  0.00    -0.010 C 
ATOM     16  N   UNL     1       0.840   0.857  -0.309  0.00  0.00    +0.386 N 
ATOM     17  H   UNL     1       0.436   0.805   0.633  0.00  0.00    -0.084 HD
ATOM     18  H   UNL     1       1.117  -0.083  -0.615  0.00  0.00    -0.084 HD
ENDBRANCH   5   7
ENDBRANCH   1   3
BRANCH   1  19
ATOM     19  O   UNL     1      -0.386   7.657  -3.664  0.00  0.00    -0.478 OA
BRANCH  19  30
ATOM     20  C   UNL     1      -4.075  12.831  -5.047  0.00  0.00    +0.045 C 
ATOM     21  C   UNL     1      -3.446  12.332  -3.772  0.00  0.00    -0.030 A 
ATOM     22  C   UNL     1      -3.604  13.007  -2.605  0.00  0.00    +0.037 A 
ATOM     23  C   UNL     1      -3.005  12.519  -1.425  0.00  0.00    +0.340 A 
ATOM     24  O   UNL     1      -3.155  13.135  -0.385  0.00  0.00    -0.245 OA
ATOM     25  O   UNL     1      -2.273  11.394  -1.419  0.00  0.00    -0.422 OA
ATOM     26  C   UNL     1      -2.077  10.675  -2.546  0.00  0.00    +0.143 A 
ATOM     27  C   UNL     1      -2.647  11.105  -3.759  0.00  0.00    +0.022 A 
ATOM     28  C   UNL     1      -2.445  10.363  -4.929  0.00  0.00    +0.035 A 
ATOM     29  C   UNL     1      -1.695   9.223  -4.888  0.00  0.00    +0.083 A 
ATOM     30  C   UNL     1      -1.129   8.793  -3.689  0.00  0.00    +0.143 A 
ATOM     31  C   UNL     1      -1.323   9.512  -2.521  0.00  0.00    +0.094 A 
ATOM     32 CL   UNL     1      -1.445   8.303  -6.339  0.00  0.00    -0.080 Cl
ATOM     33  C   UNL     1      -4.418  14.275  -2.570  0.00  0.00    +0.051 C 
ENDBRANCH  19  30
ENDBRANCH   1  19
TORSDOF 4
