REMARK  Name = ZINC13637041
REMARK  3 active torsions:
REMARK  status: ('A' for Active; 'I' for Inactive)
REMARK    1  A    between atoms: C_5  and  N_7
REMARK    2  A    between atoms: C_11  and  C_20
REMARK    3  A    between atoms: C_23  and  O_26
REMARK                            x       y       z     vdW  Elec       q    Type
REMARK                         _______ _______ _______ _____ _____    ______ ____
ROOT
ATOM      1  C   UNL     1       2.395  -0.007  -0.051  0.00  0.00    +0.003 A 
ATOM      2  C   UNL     1       2.393   1.376  -0.036  0.00  0.00    +0.006 A 
ATOM      3  C   UNL     1       1.204   2.073   0.002  0.00  0.00    -0.017 A 
ATOM      4  C   UNL     1      -0.017   1.392   0.010  0.00  0.00    +0.062 A 
ATOM      5  C   UNL     1       0.002  -0.004   0.002  0.00  0.00    +0.147 A 
ATOM      6  C   UNL     1       1.195  -0.693  -0.028  0.00  0.00    +0.034 A 
ATOM      7  N   UNL     1      -1.260   2.019   0.003  0.00  0.00    -0.335 N 
ATOM      8  C   UNL     1      -1.263   3.487   0.115  0.00  0.00    +0.105 C 
ATOM      9  C   UNL     1      -0.107   3.999  -0.720  0.00  0.00    +0.029 C 
ATOM     10  C   UNL     1       1.170   3.550   0.056  0.00  0.00    +0.049 C 
ATOM     11  C   UNL     1       2.235   4.398  -0.532  0.00  0.00    -0.023 C 
ATOM     12  C   UNL     1       1.687   5.532  -0.956  0.00  0.00    -0.030 C 
ATOM     13  C   UNL     1       0.176   5.505  -0.709  0.00  0.00    +0.033 C 
ATOM     14  H   UNL     1      -1.815   1.716  -0.783  0.00  0.00    +0.147 HD
ENDROOT
BRANCH   8  15
ATOM     15  C   UNL     1      -2.562   4.040  -0.412  0.00  0.00    -0.027 A 
ATOM     16  C   UNL     1      -3.155   3.468  -1.522  0.00  0.00    +0.009 A 
ATOM     17  C   UNL     1      -4.349   3.970  -2.004  0.00  0.00    +0.046 A 
ATOM     18  C   UNL     1      -4.946   5.055  -1.379  0.00  0.00    +0.117 A 
ATOM     19  C   UNL     1      -4.346   5.630  -0.269  0.00  0.00    +0.046 A 
ATOM     20  C   UNL     1      -3.155   5.122   0.212  0.00  0.00    +0.009 A 
BRANCH  18  21
ATOM     21  O   UNL     1      -6.117   5.554  -1.855  0.00  0.00    -0.507 OA
ATOM     22  H   UNL     1      -6.008   6.248  -2.520  0.00  0.00    +0.292 HD
ENDBRANCH  18  21
ENDBRANCH   8  15
BRANCH   5  23
ATOM     23  N   UNL     1      -1.274  -0.753   0.027  0.00  0.00    +0.058 N 
ATOM     24  O   UNL     1      -1.266  -1.971   0.021  0.00  0.00    -0.126 OA
ATOM     25  O   UNL     1      -2.333  -0.151   0.055  0.00  0.00    -0.126 OA
ENDBRANCH   5  23
TORSDOF 3
