REMARK  Name = ZINC13070876
REMARK  10 active torsions:
REMARK  status: ('A' for Active; 'I' for Inactive)
REMARK    1  A    between atoms: C_1  and  N_60
REMARK    2  A    between atoms: C_2  and  N_60
REMARK    3  A    between atoms: C_3  and  C_5
REMARK    4  A    between atoms: C_3  and  C_28
REMARK    5  A    between atoms: C_3  and  N_60
REMARK    6  A    between atoms: C_5  and  N_6
REMARK    7  A    between atoms: C_7  and  C_9
REMARK    8  A    between atoms: N_12  and  C_15
REMARK    9  A    between atoms: C_18  and  C_24
REMARK   10  A    between atoms: C_20  and  N_21
REMARK                            x       y       z     vdW  Elec       q    Type
REMARK                         _______ _______ _______ _____ _____    ______ ____
ROOT
ATOM      1  C   UNL     1       4.006  -0.843  -0.755  0.00  0.00    +0.078 C 
ATOM      2  C   UNL     1       3.750   0.301   0.230  0.00  0.00    +0.031 C 
ATOM      3  C   UNL     1       2.271   0.692   0.177  0.00  0.00    +0.106 C 
ATOM      4  N   UNL     1       1.923   1.110  -1.187  0.00  0.00    -0.328 N 
ATOM      5  C   UNL     1       2.116   0.013  -2.144  0.00  0.00    +0.106 C 
ATOM      6  C   UNL     1       3.590  -0.399  -2.160  0.00  0.00    +0.031 C 
ENDROOT
BRANCH   4   7
ATOM      7  C   UNL     1       0.616   1.598  -1.242  0.00  0.00    +0.060 A 
ATOM      8  C   UNL     1      -0.449   0.780  -0.885  0.00  0.00    +0.026 A 
ATOM      9  C   UNL     1      -1.741   1.264  -0.946  0.00  0.00    +0.014 A 
ATOM     10  C   UNL     1      -1.974   2.566  -1.351  0.00  0.00    +0.057 A 
ATOM     11  C   UNL     1      -0.917   3.383  -1.707  0.00  0.00    +0.047 A 
ATOM     12  C   UNL     1       0.377   2.903  -1.654  0.00  0.00    +0.148 A 
BRANCH  10  13
ATOM     13  C   UNL     1      -3.385   3.093  -1.411  0.00  0.00    +0.417 C 
ATOM     14  F   UNL     1      -3.923   2.844  -2.678  0.00  0.00    -0.166 F 
ATOM     15  F   UNL     1      -4.163   2.453  -0.439  0.00  0.00    -0.166 F 
ATOM     16  F   UNL     1      -3.378   4.471  -1.170  0.00  0.00    -0.166 F 
ENDBRANCH  10  13
BRANCH  12  17
ATOM     17  N   UNL     1       1.508   3.778  -2.035  0.00  0.00    +0.058 N 
ATOM     18  O   UNL     1       1.298   4.923  -2.395  0.00  0.00    -0.126 OA
ATOM     19  O   UNL     1       2.649   3.355  -1.987  0.00  0.00    -0.126 OA
ENDBRANCH  12  17
ENDBRANCH   4   7
BRANCH   1  21
ATOM     20  N   UNL     1       5.932  -2.178  -1.547  0.00  0.00    -0.316 N 
ATOM     21  C   UNL     1       5.472  -1.192  -0.751  0.00  0.00    +0.216 C 
ATOM     22  O   UNL     1       6.238  -0.587  -0.031  0.00  0.00    -0.276 OA
ATOM     23  H   UNL     1       5.320  -2.662  -2.123  0.00  0.00    +0.149 HD
BRANCH  20  24
ATOM     24  C   UNL     1       7.357  -2.517  -1.543  0.00  0.00    +0.093 C 
BRANCH  24  25
ATOM     25  C   UNL     1       7.612  -3.660  -2.528  0.00  0.00    -0.021 C 
BRANCH  25  26
ATOM     26  C   UNL     1       9.093  -3.927  -2.615  0.00  0.00    -0.059 A 
ATOM     27  C   UNL     1       9.953  -2.924  -3.019  0.00  0.00    +0.002 A 
ATOM     28  C   UNL     1      11.312  -3.167  -3.095  0.00  0.00    +0.000 A 
ATOM     29  C   UNL     1      11.809  -4.417  -2.776  0.00  0.00    +0.000 A 
ATOM     30  C   UNL     1      10.947  -5.422  -2.377  0.00  0.00    +0.000 A 
ATOM     31  C   UNL     1       9.589  -5.177  -2.297  0.00  0.00    +0.002 A 
ENDBRANCH  25  26
BRANCH  25  34
ATOM     32  C   UNL     1       7.209  -1.837  -4.070  0.00  0.00    -0.096 C 
ATOM     33  C   UNL     1       7.798  -4.029  -4.913  0.00  0.00    -0.096 C 
ATOM     34  N   UNL     1       7.075  -3.293  -3.855  0.00  0.00    +0.382 N 
ATOM     35  H   UNL     1       6.080  -3.546  -3.894  0.00  0.00    -0.082 HD
ENDBRANCH  25  34
ENDBRANCH  24  25
ENDBRANCH  20  24
ENDBRANCH   1  21
TORSDOF 8
