REMARK  Name = ZINC66925985
REMARK  5 active torsions:
REMARK  status: ('A' for Active; 'I' for Inactive)
REMARK    1  A    between atoms: C_5  and  C_7
REMARK    2  A    between atoms: C_7  and  C_8
REMARK    3  A    between atoms: N_10  and  N_11
REMARK    4  A    between atoms: N_14  and  C_15
REMARK    5  A    between atoms: C_15  and  C_16
REMARK                            x       y       z     vdW  Elec       q    Type
REMARK                         _______ _______ _______ _____ _____    ______ ____
ROOT
ATOM      1  N   UNL     1       1.548  -4.494   2.938  0.00  0.00    -0.218 N 
ATOM      2  C   UNL     1       1.590  -5.820   3.176  0.00  0.00    +0.316 C 
ATOM      3  O   UNL     1       1.706  -6.230   4.314  0.00  0.00    -0.251 OA
ATOM      4  N   UNL     1       1.502  -6.691   2.151  0.00  0.00    -0.298 N 
ATOM      5  H   UNL     1       1.611  -3.867   3.676  0.00  0.00    +0.174 HD
ATOM      6  H   UNL     1       1.409  -6.364   1.243  0.00  0.00    +0.150 HD
ENDROOT
BRANCH   1   9
ATOM      7  C   UNL     1       1.372  -2.695   1.389  0.00  0.00    +0.234 C 
ATOM      8  O   UNL     1       1.451  -1.911   2.311  0.00  0.00    -0.274 OA
ATOM      9  N   UNL     1       1.414  -4.021   1.627  0.00  0.00    -0.233 N 
ATOM     10  H   UNL     1       1.351  -4.648   0.889  0.00  0.00    +0.173 HD
BRANCH   7  11
ATOM     11  C   UNL     1       1.228  -2.186  -0.022  0.00  0.00    +0.135 C 
BRANCH  11  16
ATOM     12  C   UNL     1      -0.017   1.378   0.010  0.00  0.00    +0.000 A 
ATOM     13  C   UNL     1       1.171   2.087   0.002  0.00  0.00    +0.003 A 
ATOM     14  C   UNL     1       2.377   1.414  -0.013  0.00  0.00    +0.038 A 
ATOM     15  C   UNL     1       2.397   0.029  -0.021  0.00  0.00    +0.127 A 
ATOM     16  C   UNL     1       1.208  -0.679  -0.013  0.00  0.00    -0.003 A 
ATOM     17  C   UNL     1       0.002  -0.004   0.002  0.00  0.00    +0.007 A 
ATOM     18  F   UNL     1       3.577  -0.630  -0.036  0.00  0.00    -0.205 F 
ENDBRANCH  11  16
ENDBRANCH   7  11
ENDBRANCH   1   9
BRANCH   4  19
ATOM     19  C   UNL     1       1.547  -8.132   2.409  0.00  0.00    +0.109 C 
BRANCH  19  20
ATOM     20  C   UNL     1       1.429  -8.891   1.086  0.00  0.00    +0.010 C 
ATOM     21  C   UNL     1       0.018  -8.707   0.483  0.00  0.00    +0.009 C 
ATOM     22  C   UNL     1      -0.574 -10.148   0.416  0.00  0.00    -0.010 C 
ATOM     23  C   UNL     1       0.231 -10.848  -0.721  0.00  0.00    +0.004 C 
ATOM     24  C   UNL     1       1.650 -11.035  -0.138  0.00  0.00    +0.004 C 
ATOM     25  C   UNL     1       1.560 -10.426   1.326  0.00  0.00    -0.006 C 
ATOM     26  C   UNL     1       0.074 -10.787   1.694  0.00  0.00    +0.007 C 
ENDBRANCH  19  20
ENDBRANCH   4  19
TORSDOF 5
