REMARK  Name = ZINC12904502
REMARK  9 active torsions:
REMARK  status: ('A' for Active; 'I' for Inactive)
REMARK    1  A    between atoms: C_1  and  C_2
REMARK    2  A    between atoms: C_15  and  C_17
REMARK    3  A    between atoms: C_17  and  N_18
REMARK    4  A    between atoms: N_18  and  C_19
REMARK    5  A    between atoms: C_20  and  C_22
REMARK    6  A    between atoms: C_25  and  C_28
REMARK    7  A    between atoms: C_28  and  C_29
REMARK    8  A    between atoms: C_28  and  C_30
REMARK    9  A    between atoms: C_28  and  C_31
REMARK                            x       y       z     vdW  Elec       q    Type
REMARK                         _______ _______ _______ _____ _____    ______ ____
ROOT
ATOM      1  C   UNL     1       1.344  -1.279   2.237  0.00  0.00    +0.029 C 
ATOM      2  C   UNL     1       1.487  -0.775   0.799  0.00  0.00    +0.087 C 
ATOM      3  C   UNL     1       1.704  -1.964  -0.132  0.00  0.00    +0.118 C 
ATOM      4  C   UNL     1       1.460  -1.551  -1.559  0.00  0.00    +0.219 C 
ATOM      5  O   UNL     1       2.401  -1.375  -2.304  0.00  0.00    -0.275 OA
ATOM      6  N   UNL     1       0.201  -1.375  -2.015  0.00  0.00    -0.284 N 
ATOM      7  C   UNL     1      -0.890  -1.481  -1.146  0.00  0.00    +0.055 A 
ATOM      8  C   UNL     1      -2.000  -2.237  -1.486  0.00  0.00    +0.025 A 
ATOM      9  C   UNL     1      -3.089  -2.282  -0.636  0.00  0.00    +0.002 A 
ATOM     10  C   UNL     1      -3.074  -1.576   0.553  0.00  0.00    +0.002 A 
ATOM     11  C   UNL     1      -1.966  -0.828   0.906  0.00  0.00    +0.025 A 
ATOM     12  C   UNL     1      -0.867  -0.784   0.063  0.00  0.00    +0.058 A 
ATOM     13  N   UNL     1       0.274  -0.051   0.414  0.00  0.00    -0.265 N 
ATOM     14  C   UNL     1       0.257   1.297   0.393  0.00  0.00    +0.237 C 
ATOM     15  O   UNL     1       1.252   1.921   0.698  0.00  0.00    -0.274 OA
ATOM     16  H   UNL     1       0.052  -1.175  -2.953  0.00  0.00    +0.155 HD
ENDROOT
BRANCH  14  17
ATOM     17  C   UNL     1      -0.995   2.028  -0.018  0.00  0.00    +0.204 C 
BRANCH  17  18
ATOM     18  N   UNL     1      -0.758   3.473   0.040  0.00  0.00    -0.292 N 
ATOM     19  C   UNL     1      -0.252   4.180  -1.139  0.00  0.00    +0.133 C 
ATOM     20  C   UNL     1      -1.006   4.151   1.179  0.00  0.00    +0.247 C 
ATOM     21  O   UNL     1      -1.303   3.549   2.192  0.00  0.00    -0.270 OA
BRANCH  20  22
ATOM     22  C   UNL     1      -0.915   5.626   1.194  0.00  0.00    +0.037 A 
ATOM     23  C   UNL     1      -0.998   6.346   0.002  0.00  0.00    +0.013 A 
ATOM     24  C   UNL     1      -0.917   7.723   0.024  0.00  0.00    +0.005 A 
ATOM     25  C   UNL     1      -0.746   8.390   1.224  0.00  0.00    -0.042 A 
ATOM     26  C   UNL     1      -0.658   7.682   2.410  0.00  0.00    +0.005 A 
ATOM     27  C   UNL     1      -0.742   6.305   2.402  0.00  0.00    +0.013 A 
BRANCH  25  28
ATOM     28  C   UNL     1      -0.653   9.894   1.240  0.00  0.00    -0.013 C 
ATOM     29  C   UNL     1       0.695  10.316   1.827  0.00  0.00    +0.015 C 
ATOM     30  C   UNL     1      -0.777  10.428  -0.188  0.00  0.00    +0.015 C 
ATOM     31  C   UNL     1      -1.784  10.465   2.098  0.00  0.00    +0.015 C 
ENDBRANCH  25  28
ENDBRANCH  20  22
ENDBRANCH  17  18
ENDBRANCH  14  17
TORSDOF 4
