REMARK  Name = ZINC20764829
REMARK  8 active torsions:
REMARK  status: ('A' for Active; 'I' for Inactive)
REMARK    1  A    between atoms: C_1  and  C_2
REMARK    2  A    between atoms: C_2  and  C_3
REMARK    3  A    between atoms: C_6  and  C_9
REMARK    4  A    between atoms: C_11  and  C_25
REMARK    5  A    between atoms: C_14  and  C_17
REMARK    6  A    between atoms: C_22  and  O_23
REMARK    7  A    between atoms: C_28  and  O_32
REMARK    8  A    between atoms: O_32  and  C_33
REMARK                            x       y       z     vdW  Elec       q    Type
REMARK                         _______ _______ _______ _____ _____    ______ ____
ROOT
ATOM      1  C   UNL     1      -0.048  -1.153   7.542  0.00  0.00    +0.040 C 
ATOM      2  N   UNL     1       0.464  -0.054   7.133  0.00  0.00    -0.299 NA
ATOM      3  C   UNL     1       1.527   0.035   6.140  0.00  0.00    +0.081 C 
ATOM      4  N   UNL     1       2.206  -1.258   5.992  0.00  0.00    +0.401 N 
ATOM      5  C   UNL     1       1.220  -2.328   5.766  0.00  0.00    -0.028 C 
ATOM      6  C   UNL     1       0.400  -2.501   7.048  0.00  0.00    +0.044 C 
ATOM      7  H   UNL     1       2.893  -1.215   5.135  0.00  0.00    -0.081 HD
ATOM      8  H   UNL     1       2.774  -1.481   6.907  0.00  0.00    -0.081 HD
ENDROOT
BRANCH   5   9
ATOM      9  C   UNL     1       1.933  -3.616   5.441  0.00  0.00    -0.018 A 
ATOM     10  C   UNL     1       3.239  -3.805   5.850  0.00  0.00    +0.025 A 
ATOM     11  C   UNL     1       3.892  -4.989   5.556  0.00  0.00    +0.041 A 
ATOM     12  C   UNL     1       3.242  -5.982   4.843  0.00  0.00    +0.023 A 
ATOM     13  C   UNL     1       1.938  -5.794   4.429  0.00  0.00    +0.047 A 
ATOM     14  C   UNL     1       1.280  -4.609   4.727  0.00  0.00    +0.119 A 
ATOM     15 CL   UNL     1       5.531  -5.228   6.077  0.00  0.00    -0.084 Cl
BRANCH  14  16
ATOM     16  O   UNL     1      -0.004  -4.423   4.319  0.00  0.00    -0.507 OA
ATOM     17  H   UNL     1      -0.521  -5.211   3.753  0.00  0.00    +0.292 HD
ENDBRANCH  14  16
ENDBRANCH   5   9
BRANCH   3  18
ATOM     18  C   UNL     1       0.936   0.440   4.815  0.00  0.00    -0.039 A 
ATOM     19  C   UNL     1       1.534   0.028   3.638  0.00  0.00    +0.007 A 
ATOM     20  C   UNL     1       0.991   0.392   2.421  0.00  0.00    +0.047 A 
ATOM     21  C   UNL     1      -0.149   1.182   2.380  0.00  0.00    +0.134 A 
ATOM     22  C   UNL     1      -0.747   1.595   3.562  0.00  0.00    +0.060 A 
ATOM     23  C   UNL     1      -0.203   1.222   4.777  0.00  0.00    +0.022 A 
ATOM     24 BR   UNL     1      -2.305   2.665   3.511  0.00  0.00    -0.047 Br
BRANCH  21  25
ATOM     25  O   UNL     1      -0.682   1.547   1.184  0.00  0.00    -0.494 OA
ATOM     26  C   UNL     1      -0.013   1.086   0.008  0.00  0.00    +0.277 C 
ENDBRANCH  21  25
ENDBRANCH   3  18
BRANCH   1  30
ATOM     27  C   UNL     1      -3.159  -0.988  10.426  0.00  0.00    -0.048 A 
ATOM     28  C   UNL     1      -2.584   0.183   9.965  0.00  0.00    +0.004 A 
ATOM     29  C   UNL     1      -1.573   0.137   9.028  0.00  0.00    +0.010 A 
ATOM     30  C   UNL     1      -1.129  -1.096   8.545  0.00  0.00    -0.004 A 
ATOM     31  C   UNL     1      -1.717  -2.273   9.011  0.00  0.00    +0.010 A 
ATOM     32  C   UNL     1      -2.724  -2.213   9.953  0.00  0.00    +0.004 A 
BRANCH  27  34
ATOM     33  C   UNL     1      -5.615  -0.847  10.738  0.00  0.00    +0.009 C 
ATOM     34  C   UNL     1      -4.263  -0.929  11.450  0.00  0.00    +0.032 C 
ENDBRANCH  27  34
ENDBRANCH   1  30
TORSDOF 6
