REMARK  Name = ZINC01820327
REMARK  13 active torsions:
REMARK  status: ('A' for Active; 'I' for Inactive)
REMARK    1  A    between atoms: C_4  and  C_7
REMARK    2  A    between atoms: C_7  and  N_67
REMARK    3  A    between atoms: C_8  and  C_9
REMARK    4  A    between atoms: C_8  and  N_67
REMARK    5  A    between atoms: C_15  and  C_16
REMARK    6  A    between atoms: C_15  and  N_67
REMARK    7  A    between atoms: C_16  and  C_18
REMARK    8  A    between atoms: C_16  and  O_38
REMARK    9  A    between atoms: C_18  and  N_19
REMARK   10  A    between atoms: N_19  and  C_20
REMARK   11  A    between atoms: N_19  and  S_26
REMARK   12  A    between atoms: S_26  and  C_29
REMARK   13  A    between atoms: C_32  and  N_35
REMARK                            x       y       z     vdW  Elec       q    Type
REMARK                         _______ _______ _______ _____ _____    ______ ____
ROOT
ATOM      1  C   UNL     1      -1.839  -1.040   0.112  0.00  0.00    +0.117 C 
ENDROOT
BRANCH   1   2
ATOM      2  O   UNL     1      -1.467  -1.957  -0.919  0.00  0.00    -0.392 OA
ATOM      3  H   UNL     1      -1.037  -2.760  -0.596  0.00  0.00    +0.210 HD
ENDBRANCH   1   2
BRANCH   1   4
ATOM      4  C   UNL     1      -2.783  -1.735   1.096  0.00  0.00    -0.045 C 
BRANCH   4   5
ATOM      5  N   UNL     1      -4.063  -2.008   0.411  0.00  0.00    +0.387 N 
ATOM      6  H   UNL     1      -4.300  -1.206  -0.185  0.00  0.00    -0.081 HD
BRANCH   5   7
ATOM      7  C   UNL     1      -3.937  -3.214  -0.435  0.00  0.00    -0.042 C 
BRANCH   7  11
ATOM      8  C   UNL     1      -3.187  -6.661   1.973  0.00  0.00    +0.000 A 
ATOM      9  C   UNL     1      -4.478  -6.358   1.584  0.00  0.00    +0.000 A 
ATOM     10  C   UNL     1      -4.721  -5.242   0.805  0.00  0.00    +0.002 A 
ATOM     11  C   UNL     1      -3.672  -4.430   0.414  0.00  0.00    -0.064 A 
ATOM     12  C   UNL     1      -2.381  -4.737   0.799  0.00  0.00    +0.002 A 
ATOM     13  C   UNL     1      -2.138  -5.849   1.583  0.00  0.00    +0.000 A 
ENDBRANCH   7  11
ENDBRANCH   5   7
BRANCH   5  14
ATOM     14  C   UNL     1      -5.138  -2.200   1.407  0.00  0.00    -0.042 C 
BRANCH  14  15
ATOM     15  C   UNL     1      -6.464  -1.927   0.744  0.00  0.00    -0.064 A 
ATOM     16  C   UNL     1      -6.946  -0.634   0.669  0.00  0.00    +0.002 A 
ATOM     17  C   UNL     1      -8.159  -0.383   0.057  0.00  0.00    +0.000 A 
ATOM     18  C   UNL     1      -8.896  -1.426  -0.471  0.00  0.00    +0.000 A 
ATOM     19  C   UNL     1      -8.417  -2.720  -0.391  0.00  0.00    +0.000 A 
ATOM     20  C   UNL     1      -7.201  -2.971   0.216  0.00  0.00    +0.002 A 
ENDBRANCH  14  15
ENDBRANCH   5  14
ENDBRANCH   4   5
ENDBRANCH   1   4
BRANCH   1  21
ATOM     21  C   UNL     1      -0.586  -0.570   0.853  0.00  0.00    +0.161 C 
BRANCH  21  22
ATOM     22  N   UNL     1       0.262   0.199  -0.062  0.00  0.00    -0.201 N 
BRANCH  22  23
ATOM     23  C   UNL     1       0.026   1.562  -0.253  0.00  0.00    +0.051 A 
ATOM     24  C   UNL     1      -1.210   2.107   0.073  0.00  0.00    +0.025 A 
ATOM     25  C   UNL     1      -1.438   3.457  -0.114  0.00  0.00    +0.002 A 
ATOM     26  C   UNL     1      -0.442   4.263  -0.633  0.00  0.00    +0.000 A 
ATOM     27  C   UNL     1       0.787   3.723  -0.963  0.00  0.00    +0.002 A 
ATOM     28  C   UNL     1       1.024   2.375  -0.775  0.00  0.00    +0.025 A 
ENDBRANCH  22  23
BRANCH  22  29
ATOM     29  S   UNL     1       1.500  -0.548  -0.869  0.00  0.00    +0.075 S 
ATOM     30  O   UNL     1       1.124  -1.910  -1.018  0.00  0.00    -0.150 OA
ATOM     31  O   UNL     1       1.820   0.280  -1.978  0.00  0.00    -0.150 OA
BRANCH  29  32
ATOM     32  C   UNL     1       2.903  -0.527   0.197  0.00  0.00    +0.109 A 
ATOM     33  C   UNL     1       3.812   0.511   0.122  0.00  0.00    +0.031 A 
ATOM     34  C   UNL     1       4.911   0.530   0.961  0.00  0.00    +0.034 A 
ATOM     35  C   UNL     1       5.106  -0.495   1.867  0.00  0.00    +0.126 A 
ATOM     36  C   UNL     1       4.199  -1.536   1.938  0.00  0.00    +0.034 A 
ATOM     37  C   UNL     1       3.098  -1.553   1.103  0.00  0.00    +0.031 A 
BRANCH  35  38
ATOM     38  N   UNL     1       6.285  -0.478   2.762  0.00  0.00    +0.056 N 
ATOM     39  O   UNL     1       6.456  -1.381   3.561  0.00  0.00    -0.126 OA
ATOM     40  O   UNL     1       7.083   0.440   2.700  0.00  0.00    -0.126 OA
ENDBRANCH  35  38
ENDBRANCH  29  32
ENDBRANCH  22  29
ENDBRANCH  21  22
ENDBRANCH   1  21
TORSDOF 13
