REMARK  Name = ZINC38497775
REMARK  4 active torsions:
REMARK  status: ('A' for Active; 'I' for Inactive)
REMARK    1  A    between atoms: C_8  and  C_10
REMARK    2  A    between atoms: C_12  and  C_15
REMARK    3  A    between atoms: C_15  and  C_16
REMARK    4  A    between atoms: N_18  and  C_19
REMARK                            x       y       z     vdW  Elec       q    Type
REMARK                         _______ _______ _______ _____ _____    ______ ____
ROOT
ATOM      1  C   UNL     1       3.782  -3.353  -0.075  0.00  0.00    +0.202 A 
ATOM      2  C   UNL     1       5.146  -3.393  -0.083  0.00  0.00    +0.079 A 
ATOM      3  C   UNL     1       5.539  -4.737  -0.084  0.00  0.00    +0.093 A 
ATOM      4  N   UNL     1       4.466  -5.479  -0.077  0.00  0.00    -0.082 NA
ATOM      5  O   UNL     1       3.337  -4.624  -0.066  0.00  0.00    -0.351 OA
ENDROOT
BRANCH   1  13
ATOM      6  C   UNL     1      -0.047   1.322  -0.047  0.00  0.00    +0.001 A 
ATOM      7  C   UNL     1       1.137   2.045  -0.060  0.00  0.00    +0.004 A 
ATOM      8  C   UNL     1       2.356   1.401  -0.071  0.00  0.00    +0.047 A 
ATOM      9  C   UNL     1       2.405   0.012  -0.069  0.00  0.00    +0.136 A 
ATOM     10  C   UNL     1       1.201  -0.716  -0.055  0.00  0.00    +0.021 A 
ATOM     11  C   UNL     1      -0.024  -0.045  -0.044  0.00  0.00    +0.011 A 
ATOM     12  C   UNL     1       1.591  -2.126  -0.056  0.00  0.00    +0.061 A 
ATOM     13  C   UNL     1       2.949  -2.141  -0.070  0.00  0.00    +0.174 A 
ATOM     14  O   UNL     1       3.418  -0.876  -0.077  0.00  0.00    -0.452 OA
ENDBRANCH   1  13
BRANCH   3  15
ATOM     15  C   UNL     1       6.959  -5.241  -0.093  0.00  0.00    +0.155 C 
BRANCH  15  16
ATOM     16  C   UNL     1       7.168  -6.176   1.070  0.00  0.00    +0.223 C 
ATOM     17  O   UNL     1       6.253  -6.411   1.831  0.00  0.00    -0.275 OA
ATOM     18  N   UNL     1       8.370  -6.753   1.265  0.00  0.00    -0.283 N 
ATOM     19  H   UNL     1       9.083  -6.617   0.621  0.00  0.00    +0.155 HD
BRANCH  18  20
ATOM     20  C   UNL     1       8.592  -7.548   2.397  0.00  0.00    +0.072 A 
ATOM     21  C   UNL     1       7.565  -8.329   2.909  0.00  0.00    +0.029 A 
ATOM     22  C   UNL     1       7.783  -9.112   4.026  0.00  0.00    +0.043 A 
ATOM     23  C   UNL     1       9.026  -9.120   4.636  0.00  0.00    +0.161 A 
ATOM     24  C   UNL     1      10.055  -8.342   4.129  0.00  0.00    +0.195 A 
ATOM     25  C   UNL     1       9.841  -7.560   3.006  0.00  0.00    +0.182 A 
ATOM     26  F   UNL     1      10.844  -6.805   2.506  0.00  0.00    -0.200 F 
ATOM     27  F   UNL     1      11.266  -8.350   4.726  0.00  0.00    -0.199 F 
ATOM     28  F   UNL     1       9.236  -9.887   5.729  0.00  0.00    -0.202 F 
ENDBRANCH  18  20
ENDBRANCH  15  16
ENDBRANCH   3  15
TORSDOF 4
