REMARK  Name = ZINC13959696
REMARK  7 active torsions:
REMARK  status: ('A' for Active; 'I' for Inactive)
REMARK    1  A    between atoms: C_1  and  C_2
REMARK    2  A    between atoms: C_2  and  N_3
REMARK    3  A    between atoms: C_6  and  C_8
REMARK    4  A    between atoms: C_15  and  C_35
REMARK    5  A    between atoms: C_16  and  C_26
REMARK    6  A    between atoms: C_17  and  C_19
REMARK    7  A    between atoms: N_28  and  C_29
REMARK                            x       y       z     vdW  Elec       q    Type
REMARK                         _______ _______ _______ _____ _____    ______ ____
ROOT
ATOM      1  C   UNL     1       2.865   0.766   3.655  0.00  0.00    +0.050 C 
ATOM      2  C   UNL     1       2.667  -0.329   2.877  0.00  0.00    +0.082 A 
ATOM      3  C   UNL     1       1.438  -1.101   2.646  0.00  0.00    +0.268 A 
ATOM      4  O   UNL     1       0.391  -0.789   3.183  0.00  0.00    -0.266 OA
ATOM      5  N   UNL     1       1.503  -2.155   1.822  0.00  0.00    -0.275 N 
ATOM      6  C   UNL     1       2.710  -2.461   1.237  0.00  0.00    +0.178 A 
ATOM      7  N   UNL     1       2.893  -3.465   0.418  0.00  0.00    -0.228 NA
ATOM      8  C   UNL     1       1.948  -4.319   0.042  0.00  0.00    +0.051 C 
ATOM      9  C   UNL     1       0.671  -4.192   0.511  0.00  0.00    +0.063 C 
ATOM     10  C   UNL     1       0.373  -3.057   1.464  0.00  0.00    +0.160 C 
ATOM     11  C   UNL     1       2.286  -5.437  -0.909  0.00  0.00    +0.066 C 
ATOM     12  S   UNL     1       3.830  -1.221   1.857  0.00  0.00    -0.046 S 
ENDROOT
BRANCH  10  13
ATOM     13  C   UNL     1      -0.717  -2.214   0.853  0.00  0.00    -0.020 A 
ATOM     14  C   UNL     1      -0.393  -1.068   0.151  0.00  0.00    +0.007 A 
ATOM     15  C   UNL     1      -1.392  -0.298  -0.414  0.00  0.00    +0.020 A 
ATOM     16  C   UNL     1      -2.717  -0.667  -0.267  0.00  0.00    +0.041 A 
ATOM     17  C   UNL     1      -3.041  -1.811   0.441  0.00  0.00    +0.020 A 
ATOM     18  C   UNL     1      -2.041  -2.584   1.001  0.00  0.00    +0.007 A 
ATOM     19 CL   UNL     1      -3.972   0.303  -0.970  0.00  0.00    -0.084 Cl
ENDBRANCH  10  13
BRANCH   1  23
ATOM     20  N   UNL     1      -0.324   2.011   4.878  0.00  0.00    -0.271 N 
ATOM     21  C   UNL     1       0.519   2.859   5.520  0.00  0.00    +0.109 A 
ATOM     22  C   UNL     1       1.782   2.530   5.177  0.00  0.00    +0.049 A 
ATOM     23  C   UNL     1       1.718   1.440   4.280  0.00  0.00    +0.087 A 
ATOM     24  N   UNL     1       0.445   1.130   4.107  0.00  0.00    -0.172 NA
BRANCH  20  26
ATOM     25  C   UNL     1      -2.390   2.125   3.574  0.00  0.00    +0.029 C 
ATOM     26  C   UNL     1      -1.786   2.016   4.975  0.00  0.00    +0.140 C 
ENDBRANCH  20  26
ENDBRANCH   1  23
BRANCH   9  27
ATOM     27  C   UNL     1      -0.337  -5.091   0.118  0.00  0.00    +0.248 C 
ATOM     28  O   UNL     1      -0.850  -5.829   0.942  0.00  0.00    -0.270 OA
ATOM     29  N   UNL     1      -0.735  -5.137  -1.169  0.00  0.00    -0.282 N 
ATOM     30  H   UNL     1      -0.280  -4.600  -1.836  0.00  0.00    +0.155 HD
BRANCH  29  31
ATOM     31  C   UNL     1      -1.804  -5.958  -1.541  0.00  0.00    +0.034 A 
ATOM     32  C   UNL     1      -2.601  -6.547  -0.568  0.00  0.00    +0.023 A 
ATOM     33  C   UNL     1      -3.659  -7.352  -0.939  0.00  0.00    +0.002 A 
ATOM     34  C   UNL     1      -3.918  -7.583  -2.278  0.00  0.00    +0.000 A 
ATOM     35  C   UNL     1      -3.123  -7.003  -3.249  0.00  0.00    +0.002 A 
ATOM     36  C   UNL     1      -2.067  -6.192  -2.885  0.00  0.00    +0.023 A 
ENDBRANCH  29  31
ENDBRANCH   9  27
TORSDOF 5
