REMARK  Name = ZINC08610179
REMARK  5 active torsions:
REMARK  status: ('A' for Active; 'I' for Inactive)
REMARK    1  A    between atoms: C_1  and  C_2
REMARK    2  A    between atoms: C_2  and  C_3
REMARK    3  A    between atoms: C_8  and  N_9
REMARK    4  A    between atoms: N_18  and  C_28
REMARK    5  A    between atoms: C_28  and  C_29
REMARK                            x       y       z     vdW  Elec       q    Type
REMARK                         _______ _______ _______ _____ _____    ______ ____
ROOT
ATOM      1  N   UNL     1       2.227   0.067   0.386  0.00  0.00    -0.269 N 
ATOM      2  C   UNL     1       3.553  -0.105   0.216  0.00  0.00    +0.306 C 
ATOM      3  O   UNL     1       3.994  -0.393  -0.880  0.00  0.00    -0.252 OA
ATOM      4  N   UNL     1       4.390   0.042   1.260  0.00  0.00    -0.285 N 
ATOM      5  C   UNL     1       3.876   0.277   2.616  0.00  0.00    +0.115 C 
ATOM      6  C   UNL     1       4.543   1.509   3.218  0.00  0.00    +0.088 C 
ATOM      7  C   UNL     1       6.055   1.530   3.047  0.00  0.00    +0.184 C 
ATOM      8  C   UNL     1       6.454   1.277   1.590  0.00  0.00    +0.088 C 
ATOM      9  C   UNL     1       5.846  -0.029   1.080  0.00  0.00    +0.115 C 
ATOM     10  N   UNL     1       6.760   0.611   3.931  0.00  0.00    -0.255 N 
ATOM     11  C   UNL     1       8.105   0.755   4.084  0.00  0.00    +0.253 C 
ATOM     12  O   UNL     1       8.780  -0.138   4.551  0.00  0.00    -0.270 OA
ATOM     13  C   UNL     1       8.697   2.052   3.702  0.00  0.00    +0.079 A 
ATOM     14  C   UNL     1      10.074   2.256   3.705  0.00  0.00    +0.017 A 
ATOM     15  C   UNL     1      10.579   3.487   3.336  0.00  0.00    +0.001 A 
ATOM     16  C   UNL     1       9.724   4.511   2.964  0.00  0.00    +0.004 A 
ATOM     17  C   UNL     1       8.355   4.319   2.959  0.00  0.00    +0.046 A 
ATOM     18  C   UNL     1       7.832   3.092   3.332  0.00  0.00    +0.135 A 
ATOM     19  O   UNL     1       6.494   2.875   3.358  0.00  0.00    -0.467 OA
ATOM     20  H   UNL     1       1.882   0.359   1.244  0.00  0.00    +0.156 HD
ENDROOT
BRANCH   1  26
ATOM     21  C   UNL     1      -0.022  -0.186  -0.457  0.00  0.00    -0.026 A 
ATOM     22  C   UNL     1      -0.887  -0.421  -1.508  0.00  0.00    +0.005 A 
ATOM     23  C   UNL     1      -0.388  -0.652  -2.777  0.00  0.00    +0.000 A 
ATOM     24  C   UNL     1       0.977  -0.648  -2.998  0.00  0.00    +0.002 A 
ATOM     25  C   UNL     1       1.847  -0.415  -1.951  0.00  0.00    +0.023 A 
ATOM     26  C   UNL     1       1.349  -0.176  -0.676  0.00  0.00    +0.038 A 
BRANCH  21  28
ATOM     27  C   UNL     1      -0.688   1.572   1.160  0.00  0.00    +0.009 C 
ATOM     28  C   UNL     1      -0.567   0.065   0.926  0.00  0.00    +0.033 C 
ENDBRANCH  21  28
ENDBRANCH   1  26
BRANCH  10  29
ATOM     29  C   UNL     1       6.093  -0.444   4.691  0.00  0.00    +0.150 C 
BRANCH  29  30
ATOM     30  C   UNL     1       6.238  -0.170   6.165  0.00  0.00    +0.005 A 
ATOM     31  C   UNL     1       7.185  -0.852   6.906  0.00  0.00    +0.008 A 
ATOM     32  C   UNL     1       7.319  -0.601   8.258  0.00  0.00    +0.000 A 
ATOM     33  C   UNL     1       6.505   0.333   8.873  0.00  0.00    +0.003 A 
ATOM     34  C   UNL     1       5.558   1.017   8.135  0.00  0.00    +0.038 A 
ATOM     35  C   UNL     1       5.427   0.770   6.778  0.00  0.00    +0.128 A 
ATOM     36  F   UNL     1       4.505   1.442   6.055  0.00  0.00    -0.205 F 
ENDBRANCH  29  30
ENDBRANCH  10  29
TORSDOF 4
