REMARK  Name = ZINC44877738
REMARK  10 active torsions:
REMARK  status: ('A' for Active; 'I' for Inactive)
REMARK    1  A    between atoms: C_1  and  C_2
REMARK    2  A    between atoms: N_7  and  C_9
REMARK    3  A    between atoms: C_9  and  C_10
REMARK    4  A    between atoms: C_13  and  C_16
REMARK    5  A    between atoms: C_16  and  N_17
REMARK    6  A    between atoms: C_18  and  C_20
REMARK    7  A    between atoms: C_20  and  N_21
REMARK    8  A    between atoms: N_21  and  C_22
REMARK    9  A    between atoms: N_21  and  S_29
REMARK   10  A    between atoms: S_29  and  C_32
REMARK                            x       y       z     vdW  Elec       q    Type
REMARK                         _______ _______ _______ _____ _____    ______ ____
ROOT
ATOM      1  N   UNL     1       0.361  -8.720   1.492  0.00  0.00    -0.310 N 
ATOM      2  C   UNL     1       0.161 -10.043   1.328  0.00  0.00    +0.232 C 
ATOM      3  O   UNL     1       0.559 -10.825   2.165  0.00  0.00    -0.274 OA
ATOM      4  H   UNL     1       0.043  -8.094   0.823  0.00  0.00    +0.149 HD
ENDROOT
BRANCH   1   5
ATOM      5  C   UNL     1       1.060  -8.227   2.682  0.00  0.00    +0.139 C 
BRANCH   5   9
ATOM      6  C   UNL     1       1.321  -3.966   2.518  0.00  0.00    -0.064 A 
ATOM      7  C   UNL     1       0.233  -4.569   3.122  0.00  0.00    +0.002 A 
ATOM      8  C   UNL     1       0.149  -5.948   3.174  0.00  0.00    +0.005 A 
ATOM      9  C   UNL     1       1.151  -6.724   2.623  0.00  0.00    -0.030 A 
ATOM     10  C   UNL     1       2.239  -6.121   2.019  0.00  0.00    +0.005 A 
ATOM     11  C   UNL     1       2.321  -4.742   1.963  0.00  0.00    +0.002 A 
BRANCH   6  12
ATOM     12  C   UNL     1       1.413  -2.463   2.461  0.00  0.00    -0.043 C 
BRANCH  12  18
ATOM     13  C   UNL     1      -0.019   1.526   0.010  0.00  0.00    +0.005 C 
ATOM     14  C   UNL     1       0.002  -0.004   0.002  0.00  0.00    -0.031 C 
ATOM     15  C   UNL     1       0.721  -0.499  -1.257  0.00  0.00    -0.001 C 
ATOM     16  C   UNL     1       0.805  -2.027  -1.217  0.00  0.00    -0.018 C 
ATOM     17  C   UNL     1       1.518  -2.460   0.066  0.00  0.00    -0.078 C 
ATOM     18  N   UNL     1       0.768  -1.979   1.233  0.00  0.00    +0.383 N 
ATOM     19  C   UNL     1       0.744  -0.512   1.240  0.00  0.00    -0.075 C 
ATOM     20  H   UNL     1      -0.177  -2.330   1.192  0.00  0.00    -0.081 HD
ENDBRANCH  12  18
ENDBRANCH   6  12
ENDBRANCH   5   9
ENDBRANCH   1   5
BRANCH   2  21
ATOM     21  C   UNL     1      -0.557 -10.550   0.104  0.00  0.00    +0.227 C 
BRANCH  21  22
ATOM     22  N   UNL     1      -0.647 -12.011   0.161  0.00  0.00    -0.191 N 
BRANCH  22  23
ATOM     23  C   UNL     1      -1.691 -12.621   0.863  0.00  0.00    +0.087 A 
ATOM     24  C   UNL     1      -2.915 -12.833   0.243  0.00  0.00    +0.027 A 
ATOM     25  C   UNL     1      -3.945 -13.436   0.938  0.00  0.00    +0.002 A 
ATOM     26  C   UNL     1      -3.760 -13.829   2.251  0.00  0.00    +0.003 A 
ATOM     27  C   UNL     1      -2.542 -13.619   2.873  0.00  0.00    +0.040 A 
ATOM     28  C   UNL     1      -1.505 -13.021   2.181  0.00  0.00    +0.146 A 
ATOM     29  F   UNL     1      -0.314 -12.822   2.787  0.00  0.00    -0.203 F 
ENDBRANCH  22  23
BRANCH  22  30
ATOM     30  S   UNL     1       0.489 -12.940  -0.606  0.00  0.00    +0.075 S 
ATOM     31  O   UNL     1      -0.120 -14.198  -0.862  0.00  0.00    -0.150 OA
ATOM     32  O   UNL     1       1.042 -12.136  -1.639  0.00  0.00    -0.150 OA
BRANCH  30  33
ATOM     33  C   UNL     1       1.787 -13.236   0.549  0.00  0.00    +0.109 A 
ATOM     34  C   UNL     1       2.851 -12.358   0.633  0.00  0.00    +0.029 A 
ATOM     35  C   UNL     1       3.869 -12.590   1.539  0.00  0.00    +0.002 A 
ATOM     36  C   UNL     1       3.822 -13.700   2.363  0.00  0.00    +0.000 A 
ATOM     37  C   UNL     1       2.757 -14.577   2.280  0.00  0.00    +0.002 A 
ATOM     38  C   UNL     1       1.737 -14.343   1.376  0.00  0.00    +0.029 A 
ENDBRANCH  30  33
ENDBRANCH  22  30
ENDBRANCH  21  22
ENDBRANCH   2  21
TORSDOF 9
