REMARK  Name = ZINC63372990
REMARK  12 active torsions:
REMARK  status: ('A' for Active; 'I' for Inactive)
REMARK    1  A    between atoms: C_1  and  C_2
REMARK    2  A    between atoms: C_2  and  C_3
REMARK    3  A    between atoms: C_3  and  C_4
REMARK    4  A    between atoms: C_4  and  N_5
REMARK    5  A    between atoms: C_11  and  C_27
REMARK    6  A    between atoms: C_23  and  C_26
REMARK    7  A    between atoms: C_30  and  O_35
REMARK    8  A    between atoms: C_31  and  O_33
REMARK    9  A    between atoms: O_33  and  C_34
REMARK   10  A    between atoms: O_35  and  C_36
REMARK   11  A    between atoms: C_36  and  C_37
REMARK   12  A    between atoms: C_36  and  C_38
REMARK                            x       y       z     vdW  Elec       q    Type
REMARK                         _______ _______ _______ _____ _____    ______ ____
ROOT
ATOM      1  N   UNL     1       1.688  -2.417  -2.287  0.00  0.00    -0.291 N 
ATOM      2  C   UNL     1       0.844  -2.870  -3.379  0.00  0.00    +0.203 C 
ATOM      3  C   UNL     1       1.640  -3.397  -4.526  0.00  0.00    +0.234 C 
ATOM      4  O   UNL     1       1.031  -3.806  -5.492  0.00  0.00    -0.274 OA
ATOM      5  N   UNL     1       2.976  -3.453  -4.567  0.00  0.00    -0.283 N 
ATOM      6  C   UNL     1       3.611  -4.040  -5.763  0.00  0.00    +0.121 C 
ATOM      7  C   UNL     1       4.541  -2.999  -6.409  0.00  0.00    +0.065 C 
ATOM      8  C   UNL     1       5.357  -2.396  -5.293  0.00  0.00    -0.027 C 
ATOM      9  C   UNL     1       6.666  -2.236  -5.145  0.00  0.00    -0.000 A 
ATOM     10  C   UNL     1       7.793  -2.479  -6.060  0.00  0.00    +0.010 A 
ATOM     11  C   UNL     1       9.033  -2.223  -5.565  0.00  0.00    +0.001 A 
ATOM     12  C   UNL     1       9.261  -1.754  -4.268  0.00  0.00    +0.002 A 
ATOM     13  C   UNL     1       8.285  -1.494  -3.363  0.00  0.00    +0.026 A 
ATOM     14  C   UNL     1       6.937  -1.716  -3.770  0.00  0.00    +0.043 A 
ATOM     15  N   UNL     1       5.822  -1.530  -3.126  0.00  0.00    -0.375 N 
ATOM     16  C   UNL     1       4.712  -1.843  -4.026  0.00  0.00    +0.139 C 
ATOM     17  C   UNL     1       3.818  -2.959  -3.476  0.00  0.00    +0.135 C 
ATOM     18  C   UNL     1       3.019  -2.447  -2.324  0.00  0.00    +0.242 C 
ATOM     19  O   UNL     1       3.622  -2.035  -1.355  0.00  0.00    -0.273 OA
ATOM     20  C   UNL     1       4.704  -4.103  -2.979  0.00  0.00    +0.044 C 
ATOM     21  H   UNL     1       5.741  -1.234  -2.206  0.00  0.00    +0.160 HD
ENDROOT
BRANCH   7  22
ATOM     22  C   UNL     1       5.448  -3.668  -7.410  0.00  0.00    -0.035 A 
ATOM     23  C   UNL     1       6.307  -4.671  -7.000  0.00  0.00    +0.008 A 
ATOM     24  C   UNL     1       7.141  -5.288  -7.914  0.00  0.00    +0.050 A 
ATOM     25  C   UNL     1       7.117  -4.901  -9.244  0.00  0.00    +0.162 A 
ATOM     26  C   UNL     1       6.252  -3.892  -9.657  0.00  0.00    +0.162 A 
ATOM     27  C   UNL     1       5.415  -3.281  -8.737  0.00  0.00    +0.053 A 
BRANCH  26  28
ATOM     28  O   UNL     1       6.225  -3.510 -10.962  0.00  0.00    -0.491 OA
ATOM     29  C   UNL     1       5.312  -2.467 -11.313  0.00  0.00    +0.277 C 
ENDBRANCH  26  28
BRANCH  25  30
ATOM     30  O   UNL     1       7.936  -5.507 -10.144  0.00  0.00    -0.486 OA
BRANCH  30  31
ATOM     31  C   UNL     1       8.709  -6.614  -9.676  0.00  0.00    +0.167 C 
ATOM     32  C   UNL     1       9.059  -7.526 -10.853  0.00  0.00    +0.051 C 
ATOM     33  C   UNL     1       9.997  -6.100  -9.030  0.00  0.00    +0.051 C 
ENDBRANCH  30  31
ENDBRANCH  25  30
ENDBRANCH   7  22
BRANCH   1  34
ATOM     34  C   UNL     1       1.040  -1.892  -1.082  0.00  0.00    +0.108 C 
BRANCH  34  35
ATOM     35  C   UNL     1       0.829  -0.384  -1.232  0.00  0.00    +0.019 C 
BRANCH  35  37
ATOM     36  C   UNL     1      -0.059   1.672  -0.124  0.00  0.00    +0.004 C 
ATOM     37  C   UNL     1       0.152   0.164   0.026  0.00  0.00    -0.002 C 
ENDBRANCH  35  37
ENDBRANCH  34  35
ENDBRANCH   1  34
TORSDOF 7
