REMARK  Name = ZINC09041405
REMARK  9 active torsions:
REMARK  status: ('A' for Active; 'I' for Inactive)
REMARK    1  A    between atoms: C_1  and  C_2
REMARK    2  A    between atoms: C_3  and  C_32
REMARK    3  A    between atoms: C_8  and  S_18
REMARK    4  A    between atoms: N_9  and  C_12
REMARK    5  A    between atoms: S_18  and  C_19
REMARK    6  A    between atoms: C_19  and  C_20
REMARK    7  A    between atoms: N_22  and  C_23
REMARK    8  A    between atoms: C_23  and  C_25
REMARK    9  A    between atoms: C_23  and  C_26
REMARK                            x       y       z     vdW  Elec       q    Type
REMARK                         _______ _______ _______ _____ _____    ______ ____
ROOT
ATOM      1  C   UNL     1      -1.625   2.443  -2.763  0.00  0.00    +0.052 C 
ATOM      2  C   UNL     1      -1.916   2.829  -1.335  0.00  0.00    -0.003 A 
ATOM      3  C   UNL     1      -1.041   3.005  -0.318  0.00  0.00    +0.007 A 
ATOM      4  C   UNL     1      -1.555   3.389   0.993  0.00  0.00    +0.080 A 
ATOM      5  C   UNL     1      -2.951   3.535   1.064  0.00  0.00    +0.117 A 
ATOM      6  S   UNL     1      -3.497   3.161  -0.583  0.00  0.00    -0.073 S 
ATOM      7  N   UNL     1      -3.567   3.881   2.188  0.00  0.00    -0.215 NA
ATOM      8  C   UNL     1      -2.884   4.103   3.293  0.00  0.00    +0.178 A 
ATOM      9  N   UNL     1      -1.523   3.983   3.311  0.00  0.00    -0.255 N 
ATOM     10  C   UNL     1      -0.840   3.636   2.205  0.00  0.00    +0.268 A 
ATOM     11  O   UNL     1       0.375   3.533   2.236  0.00  0.00    -0.267 OA
ENDROOT
BRANCH   9  12
ATOM     12  C   UNL     1      -0.826   4.226   4.502  0.00  0.00    +0.052 A 
ATOM     13  C   UNL     1      -0.372   5.505   4.793  0.00  0.00    +0.026 A 
ATOM     14  C   UNL     1       0.309   5.743   5.971  0.00  0.00    +0.002 A 
ATOM     15  C   UNL     1       0.549   4.706   6.854  0.00  0.00    +0.000 A 
ATOM     16  C   UNL     1       0.103   3.429   6.564  0.00  0.00    +0.002 A 
ATOM     17  C   UNL     1      -0.584   3.187   5.390  0.00  0.00    +0.026 A 
ENDBRANCH   9  12
BRANCH   3  18
ATOM     18  C   UNL     1       0.414   2.817  -0.533  0.00  0.00    -0.016 A 
ATOM     19  C   UNL     1       1.283   3.902  -0.424  0.00  0.00    +0.008 A 
ATOM     20  C   UNL     1       2.635   3.722  -0.631  0.00  0.00    +0.001 A 
ATOM     21  C   UNL     1       3.129   2.469  -0.947  0.00  0.00    +0.000 A 
ATOM     22  C   UNL     1       2.272   1.389  -1.057  0.00  0.00    +0.001 A 
ATOM     23  C   UNL     1       0.917   1.557  -0.852  0.00  0.00    +0.008 A 
ENDBRANCH   3  18
BRANCH   8  24
ATOM     24  S   UNL     1      -3.737   4.560   4.766  0.00  0.00    -0.078 S 
BRANCH  24  25
ATOM     25  C   UNL     1      -5.441   4.558   4.156  0.00  0.00    +0.173 C 
BRANCH  25  26
ATOM     26  C   UNL     1      -6.376   4.932   5.277  0.00  0.00    +0.224 C 
ATOM     27  O   UNL     1      -5.934   5.176   6.380  0.00  0.00    -0.275 OA
ATOM     28  N   UNL     1      -7.704   4.996   5.054  0.00  0.00    -0.308 N 
ATOM     29  H   UNL     1      -8.057   4.801   4.172  0.00  0.00    +0.149 HD
BRANCH  28  30
ATOM     30  C   UNL     1      -8.613   5.360   6.144  0.00  0.00    +0.100 C 
ATOM     31  C   UNL     1      -8.705   6.884   6.245  0.00  0.00    +0.033 C 
BRANCH  30  32
ATOM     32  C   UNL     1      -9.981   4.791   5.868  0.00  0.00    -0.027 A 
ATOM     33  C   UNL     1     -10.493   4.816   4.585  0.00  0.00    +0.005 A 
ATOM     34  C   UNL     1     -11.746   4.290   4.331  0.00  0.00    +0.000 A 
ATOM     35  C   UNL     1     -12.491   3.749   5.362  0.00  0.00    +0.000 A 
ATOM     36  C   UNL     1     -11.980   3.728   6.646  0.00  0.00    +0.000 A 
ATOM     37  C   UNL     1     -10.725   4.250   6.900  0.00  0.00    +0.005 A 
ENDBRANCH  30  32
ENDBRANCH  28  30
ENDBRANCH  25  26
ENDBRANCH  24  25
ENDBRANCH   8  24
TORSDOF 7
