REMARK  Name = ZINC18197721
REMARK  7 active torsions:
REMARK  status: ('A' for Active; 'I' for Inactive)
REMARK    1  A    between atoms: C_1  and  C_2
REMARK    2  A    between atoms: N_5  and  C_7
REMARK    3  A    between atoms: C_16  and  C_18
REMARK    4  A    between atoms: C_23  and  O_24
REMARK    5  A    between atoms: O_24  and  C_25
REMARK    6  A    between atoms: C_25  and  C_26
REMARK    7  A    between atoms: C_31  and  C_34
REMARK                            x       y       z     vdW  Elec       q    Type
REMARK                         _______ _______ _______ _____ _____    ______ ____
ROOT
ATOM      1  C   UNL     1       1.371  -3.272  -0.967  0.00  0.00    +0.068 C 
ATOM      2  C   UNL     1       0.626  -2.074  -0.438  0.00  0.00    +0.066 A 
ATOM      3  C   UNL     1      -0.503  -2.109   0.367  0.00  0.00    +0.027 A 
ATOM      4  C   UNL     1      -0.873  -0.816   0.630  0.00  0.00    +0.131 A 
ATOM      5  N   UNL     1       0.002  -0.004   0.002  0.00  0.00    -0.218 N 
ATOM      6  N   UNL     1       0.932  -0.817  -0.666  0.00  0.00    -0.170 NA
ATOM      7  N   UNL     1      -1.974  -0.525   1.426  0.00  0.00    -0.302 N 
ATOM      8  C   UNL     1      -2.507  -1.528   2.196  0.00  0.00    +0.017 C 
ATOM      9  C   UNL     1      -2.209  -2.830   1.995  0.00  0.00    +0.024 C 
ATOM     10  C   UNL     1      -1.263  -3.288   0.906  0.00  0.00    +0.092 C 
ATOM     11  C   UNL     1      -2.779  -3.833   2.800  0.00  0.00    +0.162 C 
ATOM     12  O   UNL     1      -2.482  -4.995   2.600  0.00  0.00    -0.292 OA
ATOM     13  C   UNL     1      -3.746  -3.502   3.902  0.00  0.00    +0.088 C 
ATOM     14  C   UNL     1      -4.487  -2.210   3.539  0.00  0.00    +0.039 C 
ATOM     15  C   UNL     1      -3.449  -1.111   3.303  0.00  0.00    +0.060 C 
ATOM     16  H   UNL     1      -2.358   0.365   1.436  0.00  0.00    +0.153 HD
ENDROOT
BRANCH   5  17
ATOM     17  C   UNL     1      -0.017   1.397   0.010  0.00  0.00    +0.067 A 
ATOM     18  C   UNL     1      -1.228   2.076   0.019  0.00  0.00    +0.028 A 
ATOM     19  C   UNL     1      -1.243   3.458   0.033  0.00  0.00    +0.002 A 
ATOM     20  C   UNL     1      -0.054   4.164   0.025  0.00  0.00    +0.000 A 
ATOM     21  C   UNL     1       1.153   3.490   0.010  0.00  0.00    +0.002 A 
ATOM     22  C   UNL     1       1.175   2.109   0.002  0.00  0.00    +0.028 A 
ENDBRANCH   5  17
BRANCH  10  23
ATOM     23  C   UNL     1      -2.051  -3.928  -0.207  0.00  0.00    +0.006 A 
ATOM     24  C   UNL     1      -3.010  -3.197  -0.883  0.00  0.00    +0.008 A 
ATOM     25  C   UNL     1      -3.733  -3.783  -1.906  0.00  0.00    +0.001 A 
ATOM     26  C   UNL     1      -3.499  -5.101  -2.254  0.00  0.00    +0.004 A 
ATOM     27  C   UNL     1      -2.542  -5.835  -1.581  0.00  0.00    +0.046 A 
ATOM     28  C   UNL     1      -1.812  -5.248  -0.558  0.00  0.00    +0.125 A 
BRANCH  28  29
ATOM     29  O   UNL     1      -0.865  -5.967   0.102  0.00  0.00    -0.480 OA
BRANCH  29  30
ATOM     30  C   UNL     1      -0.672  -7.320  -0.313  0.00  0.00    +0.353 C 
BRANCH  30  31
ATOM     31  C   UNL     1       0.408  -7.954   0.525  0.00  0.00    +0.393 C 
ATOM     32  O   UNL     1       0.956  -7.311   1.389  0.00  0.00    -0.243 OA
ATOM     33  O   UNL     1       0.761  -9.231   0.312  0.00  0.00    -0.243 OA
ENDBRANCH  30  31
ENDBRANCH  29  30
ENDBRANCH  28  29
ENDBRANCH  10  23
BRANCH  14  34
ATOM     34  C   UNL     1      -5.398  -1.812   4.671  0.00  0.00    -0.006 A 
ATOM     35  C   UNL     1      -6.742  -1.630   4.661  0.00  0.00    +0.011 A 
ATOM     36  C   UNL     1      -7.377  -1.265   5.833  0.00  0.00    +0.008 A 
ATOM     37  C   UNL     1      -6.637  -1.089   6.955  0.00  0.00    +0.045 A 
ATOM     38  S   UNL     1      -4.989  -1.452   6.371  0.00  0.00    -0.101 S 
ENDBRANCH  14  34
TORSDOF 6
