REMARK  Name = ZINC63873975
REMARK  10 active torsions:
REMARK  status: ('A' for Active; 'I' for Inactive)
REMARK    1  A    between atoms: C_1  and  C_2
REMARK    2  A    between atoms: C_7  and  C_36
REMARK    3  A    between atoms: C_10  and  C_12
REMARK    4  A    between atoms: C_12  and  O_13
REMARK    5  A    between atoms: O_13  and  C_14
REMARK    6  A    between atoms: C_17  and  C_22
REMARK    7  A    between atoms: C_19  and  O_20
REMARK    8  A    between atoms: O_20  and  C_21
REMARK    9  A    between atoms: N_23  and  N_24
REMARK   10  A    between atoms: C_25  and  C_27
REMARK                            x       y       z     vdW  Elec       q    Type
REMARK                         _______ _______ _______ _____ _____    ______ ____
ROOT
ATOM      1  C   UNL     1       3.888   0.643   4.667  0.00  0.00    +0.163 A 
ATOM      2  C   UNL     1       4.131  -0.683   4.997  0.00  0.00    +0.050 A 
ATOM      3  C   UNL     1       5.000  -0.994   6.021  0.00  0.00    +0.013 A 
ATOM      4  C   UNL     1       5.639   0.028   6.730  0.00  0.00    -0.002 A 
ATOM      5  C   UNL     1       5.393   1.363   6.397  0.00  0.00    +0.059 A 
ATOM      6  C   UNL     1       4.525   1.667   5.365  0.00  0.00    +0.162 A 
ENDROOT
BRANCH   6   7
ATOM      7  O   UNL     1       4.288   2.965   5.035  0.00  0.00    -0.491 OA
ATOM      8  C   UNL     1       4.975   3.962   5.793  0.00  0.00    +0.277 C 
ENDBRANCH   6   7
BRANCH   4   9
ATOM      9  C   UNL     1       6.568  -0.301   7.824  0.00  0.00    +0.138 C 
ATOM     10  N   UNL     1       6.794  -1.543   8.133  0.00  0.00    -0.187 NA
BRANCH  10  11
ATOM     11  N   UNL     1       7.678  -1.857   9.174  0.00  0.00    -0.203 N 
ATOM     12  C   UNL     1       7.913  -3.145   9.494  0.00  0.00    +0.262 C 
ATOM     13  O   UNL     1       7.357  -4.036   8.878  0.00  0.00    -0.269 OA
ATOM     14  H   UNL     1       8.120  -1.147   9.665  0.00  0.00    +0.178 HD
BRANCH  12  15
ATOM     15  C   UNL     1       8.836  -3.472  10.582  0.00  0.00    +0.044 C 
ATOM     16  C   UNL     1       9.187  -4.730  11.027  0.00  0.00    +0.008 A 
ATOM     17  C   UNL     1       8.810  -6.034  10.623  0.00  0.00    +0.010 A 
ATOM     18  C   UNL     1       9.320  -7.116  11.251  0.00  0.00    +0.001 A 
ATOM     19  C   UNL     1      10.231  -7.010  12.313  0.00  0.00    +0.002 A 
ATOM     20  C   UNL     1      10.655  -5.813  12.775  0.00  0.00    +0.026 A 
ATOM     21  C   UNL     1      10.148  -4.583  12.147  0.00  0.00    +0.043 A 
ATOM     22  N   UNL     1      10.383  -3.323  12.386  0.00  0.00    -0.380 N 
ATOM     23  C   UNL     1       9.609  -2.502  11.449  0.00  0.00    +0.154 C 
ATOM     24  H   UNL     1      10.977  -2.982  13.072  0.00  0.00    +0.160 HD
ENDBRANCH  12  15
ENDBRANCH  10  11
ENDBRANCH   4   9
BRANCH   1  25
ATOM     25  O   UNL     1       3.030   0.943   3.656  0.00  0.00    -0.479 OA
BRANCH  25  26
ATOM     26  C   UNL     1       2.412  -0.154   2.982  0.00  0.00    +0.325 C 
BRANCH  26  34
ATOM     27  C   UNL     1      -0.017   1.526   0.009  0.00  0.00    +0.028 C 
ATOM     28  C   UNL     1       0.003  -0.004   0.001  0.00  0.00    +0.073 C 
ATOM     29  C   UNL     1      -1.426  -0.537   0.144  0.00  0.00    +0.022 C 
ATOM     30  C   UNL     1      -1.387  -2.061   0.276  0.00  0.00    +0.004 C 
ATOM     31  C   UNL     1      -0.600  -2.447   1.530  0.00  0.00    +0.022 C 
ATOM     32  C   UNL     1       0.839  -1.935   1.403  0.00  0.00    +0.073 C 
ATOM     33  N   UNL     1       0.808  -0.492   1.130  0.00  0.00    -0.293 N 
ATOM     34  C   UNL     1       1.502   0.368   1.901  0.00  0.00    +0.254 C 
ATOM     35  O   UNL     1       1.393   1.563   1.725  0.00  0.00    -0.272 OA
ATOM     36  C   UNL     1       1.541  -2.661   0.253  0.00  0.00    +0.028 C 
ENDBRANCH  26  34
ENDBRANCH  25  26
ENDBRANCH   1  25
TORSDOF 7
