REMARK  Name = ZINC13445146
REMARK  10 active torsions:
REMARK  status: ('A' for Active; 'I' for Inactive)
REMARK    1  A    between atoms: C_1  and  C_2
REMARK    2  A    between atoms: C_2  and  O_3
REMARK    3  A    between atoms: O_3  and  C_4
REMARK    4  A    between atoms: C_9  and  N_10
REMARK    5  A    between atoms: C_11  and  C_13
REMARK    6  A    between atoms: C_13  and  S_14
REMARK    7  A    between atoms: S_14  and  C_15
REMARK    8  A    between atoms: N_25  and  C_26
REMARK    9  A    between atoms: C_26  and  C_27
REMARK   10  A    between atoms: C_30  and  C_33
REMARK                            x       y       z     vdW  Elec       q    Type
REMARK                         _______ _______ _______ _____ _____    ______ ____
ROOT
ATOM      1  N   UNL     1      -0.077  -2.779  -0.021  0.00  0.00    -0.282 N 
ATOM      2  C   UNL     1      -0.129  -4.123   0.069  0.00  0.00    +0.228 C 
ATOM      3  O   UNL     1      -1.201  -4.689   0.073  0.00  0.00    -0.275 OA
ATOM      4  H   UNL     1       0.779  -2.331  -0.105  0.00  0.00    +0.155 HD
ENDROOT
BRANCH   1  10
ATOM      5  C   UNL     1      -1.295  -0.765  -0.575  0.00  0.00    +0.142 A 
ATOM      6  C   UNL     1      -2.470  -0.029  -0.545  0.00  0.00    +0.055 A 
ATOM      7  C   UNL     1      -3.593  -0.548   0.064  0.00  0.00    +0.001 A 
ATOM      8  C   UNL     1      -3.571  -1.808   0.649  0.00  0.00    +0.126 A 
ATOM      9  C   UNL     1      -2.390  -2.544   0.622  0.00  0.00    +0.073 A 
ATOM     10  C   UNL     1      -1.260  -2.029   0.009  0.00  0.00    +0.079 A 
ATOM     11  O   UNL     1      -4.785  -2.128   1.176  0.00  0.00    -0.488 OA
ATOM     12  C   UNL     1      -5.555  -0.928   1.356  0.00  0.00    +0.175 C 
ATOM     13  C   UNL     1      -4.989   0.009   0.262  0.00  0.00    +0.083 C 
ATOM     14  C   UNL     1      -5.323  -0.338   2.748  0.00  0.00    +0.052 C 
BRANCH   5  15
ATOM     15  O   UNL     1      -0.185  -0.257  -1.176  0.00  0.00    -0.490 OA
BRANCH  15  17
ATOM     16  C   UNL     1       1.039   1.443  -2.381  0.00  0.00    +0.048 C 
ATOM     17  C   UNL     1      -0.300   1.043  -1.758  0.00  0.00    +0.226 C 
ENDBRANCH  15  17
ENDBRANCH   5  15
ENDBRANCH   1  10
BRANCH   2  18
ATOM     18  C   UNL     1       1.146  -4.921   0.163  0.00  0.00    +0.173 C 
BRANCH  18  19
ATOM     19  S   UNL     1       0.747  -6.684   0.270  0.00  0.00    -0.078 S 
BRANCH  19  20
ATOM     20  C   UNL     1       2.371  -7.360   0.367  0.00  0.00    +0.173 A 
ATOM     21  N   UNL     1       3.392  -6.539   0.338  0.00  0.00    -0.223 NA
ATOM     22  C   UNL     1       4.661  -6.987   0.413  0.00  0.00    +0.079 A 
ATOM     23  C   UNL     1       5.751  -6.111   0.387  0.00  0.00    +0.028 A 
ATOM     24  C   UNL     1       7.021  -6.608   0.460  0.00  0.00    +0.002 A 
ATOM     25  C   UNL     1       7.248  -7.975   0.559  0.00  0.00    +0.001 A 
ATOM     26  C   UNL     1       6.204  -8.857   0.587  0.00  0.00    +0.015 A 
ATOM     27  C   UNL     1       4.897  -8.377   0.514  0.00  0.00    +0.065 A 
ATOM     28  C   UNL     1       3.736  -9.277   0.539  0.00  0.00    +0.263 A 
ATOM     29  O   UNL     1       3.875 -10.484   0.625  0.00  0.00    -0.267 OA
ATOM     30  N   UNL     1       2.508  -8.715   0.463  0.00  0.00    -0.276 N 
BRANCH  30  31
ATOM     31  C   UNL     1       1.316  -9.567   0.483  0.00  0.00    +0.252 C 
BRANCH  31  32
ATOM     32  C   UNL     1       0.951  -9.955  -0.926  0.00  0.00    +0.375 C 
ATOM     33  O   UNL     1       1.619  -9.560  -1.853  0.00  0.00    -0.244 OA
ATOM     34  O   UNL     1      -0.115 -10.738  -1.153  0.00  0.00    -0.244 OA
ENDBRANCH  31  32
ENDBRANCH  30  31
ENDBRANCH  19  20
ENDBRANCH  18  19
ENDBRANCH   2  18
TORSDOF 8
