REMARK  Name = ZINC24860026
REMARK  4 active torsions:
REMARK  status: ('A' for Active; 'I' for Inactive)
REMARK    1  A    between atoms: C_6  and  N_7
REMARK    2  A    between atoms: C_8  and  C_10
REMARK    3  A    between atoms: C_10  and  C_11
REMARK    4  A    between atoms: C_11  and  N_12
REMARK                            x       y       z     vdW  Elec       q    Type
REMARK                         _______ _______ _______ _____ _____    ______ ____
ROOT
ATOM      1  N   UNL     1       0.064  -2.709   2.597  0.00  0.00    -0.285 N 
ATOM      2  C   UNL     1       0.042  -2.029   1.433  0.00  0.00    +0.219 C 
ATOM      3  O   UNL     1       0.031  -2.629   0.380  0.00  0.00    -0.275 OA
ATOM      4  H   UNL     1       0.150  -2.166   3.550  0.00  0.00    +0.155 HD
ENDROOT
BRANCH   1  10
ATOM      5  C   UNL     1      -0.696  -4.763   3.614  0.00  0.00    +0.027 A 
ATOM      6  C   UNL     1      -0.788  -6.143   3.611  0.00  0.00    +0.051 A 
ATOM      7  C   UNL     1      -0.198  -6.870   2.591  0.00  0.00    +0.162 A 
ATOM      8  C   UNL     1       0.480  -6.217   1.571  0.00  0.00    +0.164 A 
ATOM      9  C   UNL     1       0.570  -4.836   1.569  0.00  0.00    +0.072 A 
ATOM     10  C   UNL     1      -0.023  -4.107   2.592  0.00  0.00    +0.037 A 
ATOM     11  O   UNL     1       1.056  -6.945   0.570  0.00  0.00    -0.488 OA
ATOM     12  C   UNL     1       2.179  -7.744   0.947  0.00  0.00    +0.232 C 
ATOM     13  C   UNL     1       1.724  -9.083   1.506  0.00  0.00    +0.082 C 
ATOM     14  C   UNL     1       0.945  -8.934   2.804  0.00  0.00    +0.232 C 
ATOM     15  O   UNL     1      -0.280  -8.233   2.581  0.00  0.00    -0.488 OA
ENDBRANCH   1  10
BRANCH   2  16
ATOM     16  C   UNL     1       0.030  -0.522   1.442  0.00  0.00    +0.118 C 
BRANCH  16  17
ATOM     17  C   UNL     1       0.005  -0.004   0.002  0.00  0.00    +0.135 C 
BRANCH  17  18
ATOM     18  N   UNL     1      -0.007   1.461   0.010  0.00  0.00    -0.298 N 
ATOM     19  C   UNL     1      -1.192   2.125   0.025  0.00  0.00    +0.202 A 
ATOM     20  N   UNL     1      -1.285   3.420   0.038  0.00  0.00    -0.237 NA
ATOM     21  C   UNL     1      -0.184   4.212   0.027  0.00  0.00    +0.078 A 
ATOM     22  C   UNL     1      -0.284   5.605   0.035  0.00  0.00    +0.029 A 
ATOM     23  C   UNL     1       0.860   6.371   0.022  0.00  0.00    +0.017 A 
ATOM     24  C   UNL     1       2.115   5.775   0.002  0.00  0.00    +0.019 A 
ATOM     25  C   UNL     1       2.239   4.403  -0.007  0.00  0.00    +0.030 A 
ATOM     26  C   UNL     1       1.093   3.610   0.006  0.00  0.00    +0.066 A 
ATOM     27  C   UNL     1       1.164   2.141  -0.003  0.00  0.00    +0.262 A 
ATOM     28  O   UNL     1       2.233   1.559  -0.021  0.00  0.00    -0.267 OA
ATOM     29 BR   UNL     1       3.666   6.857  -0.015  0.00  0.00    -0.050 Br
ENDBRANCH  17  18
ENDBRANCH  16  17
ENDBRANCH   2  16
TORSDOF 4
