REMARK  Name = ZINC09578503
REMARK  8 active torsions:
REMARK  status: ('A' for Active; 'I' for Inactive)
REMARK    1  A    between atoms: C_1  and  C_2
REMARK    2  A    between atoms: C_2  and  C_3
REMARK    3  A    between atoms: C_3  and  C_35
REMARK    4  A    between atoms: N_6  and  C_10
REMARK    5  A    between atoms: C_10  and  C_11
REMARK    6  A    between atoms: C_14  and  C_30
REMARK    7  A    between atoms: C_22  and  C_23
REMARK    8  A    between atoms: C_35  and  C_36
REMARK                            x       y       z     vdW  Elec       q    Type
REMARK                         _______ _______ _______ _____ _____    ______ ____
ROOT
ATOM      1  C   UNL     1       4.536  -1.692   0.420  0.00  0.00    +0.253 C 
ATOM      2  O   UNL     1       5.737  -1.810   0.545  0.00  0.00    -0.272 OA
ATOM      3  N   UNL     1       3.985  -0.464   0.346  0.00  0.00    -0.183 N 
ATOM      4  C   UNL     1       4.712   0.823   0.390  0.00  0.00    +0.147 C 
ATOM      5  C   UNL     1       3.704   1.775  -0.275  0.00  0.00    +0.067 C 
ATOM      6  C   UNL     1       3.616   3.116   0.456  0.00  0.00    +0.012 C 
ATOM      7  C   UNL     1       2.474   3.921  -0.160  0.00  0.00    +0.005 C 
ATOM      8  C   UNL     1       1.117   3.267   0.009  0.00  0.00    +0.037 C 
ATOM      9  C   UNL     1       1.150   1.769   0.001  0.00  0.00    -0.023 C 
ATOM     10  C   UNL     1      -0.013   1.076   0.008  0.00  0.00    +0.020 C 
ATOM     11  C   UNL     1       2.376   1.069  -0.009  0.00  0.00    +0.068 C 
ATOM     12  N   UNL     1       2.621  -0.179   0.203  0.00  0.00    -0.181 NA
ENDROOT
BRANCH  10  13
ATOM     13  C   UNL     1      -1.289   1.790   0.018  0.00  0.00    +0.012 A 
ATOM     14  C   UNL     1      -2.578   1.277   0.015  0.00  0.00    +0.015 A 
ATOM     15  C   UNL     1      -3.631   2.160   0.030  0.00  0.00    +0.008 A 
ATOM     16  C   UNL     1      -3.379   3.497   0.036  0.00  0.00    +0.046 A 
ATOM     17  S   UNL     1      -1.595   3.549   0.028  0.00  0.00    -0.097 S 
ENDBRANCH  10  13
BRANCH   4  18
ATOM     18  C   UNL     1       5.995   0.757  -0.399  0.00  0.00    +0.013 A 
ATOM     19  C   UNL     1       7.170   1.392  -0.172  0.00  0.00    +0.013 A 
ATOM     20  C   UNL     1       8.226   1.178  -1.038  0.00  0.00    +0.008 A 
ATOM     21  C   UNL     1       8.054   0.340  -2.089  0.00  0.00    +0.045 A 
ATOM     22  S   UNL     1       6.361  -0.183  -1.871  0.00  0.00    -0.100 S 
ENDBRANCH   4  18
BRANCH   1  23
ATOM     23  C   UNL     1       3.662  -2.917   0.348  0.00  0.00    +0.215 C 
BRANCH  23  27
ATOM     24  C   UNL     1       5.676  -5.909   1.235  0.00  0.00    +0.112 C 
ATOM     25  C   UNL     1       4.811  -4.723   1.613  0.00  0.00    +0.247 C 
ATOM     26  O   UNL     1       4.474  -4.388   2.728  0.00  0.00    -0.273 OA
ATOM     27  N   UNL     1       4.494  -4.118   0.451  0.00  0.00    -0.215 N 
ATOM     28  C   UNL     1       5.029  -4.753  -0.598  0.00  0.00    +0.310 C 
ATOM     29  O   UNL     1       4.880  -4.398  -1.751  0.00  0.00    -0.252 OA
ATOM     30  N   UNL     1       5.753  -5.827  -0.234  0.00  0.00    -0.285 N 
ATOM     31  H   UNL     1       6.230  -6.431  -0.824  0.00  0.00    +0.151 HD
BRANCH  24  33
ATOM     32  C   UNL     1       7.728  -4.489   1.363  0.00  0.00    +0.006 C 
ATOM     33  C   UNL     1       7.068  -5.779   1.855  0.00  0.00    +0.032 C 
ENDBRANCH  24  33
BRANCH  24  34
ATOM     34  C   UNL     1       5.012  -7.218   1.667  0.00  0.00    +0.032 C 
ATOM     35  C   UNL     1       3.705  -7.406   0.894  0.00  0.00    +0.006 C 
ENDBRANCH  24  34
ENDBRANCH  23  27
ENDBRANCH   1  23
TORSDOF 6
