REMARK  Name = ZINC36628674
REMARK  7 active torsions:
REMARK  status: ('A' for Active; 'I' for Inactive)
REMARK    1  A    between atoms: C_1  and  C_2
REMARK    2  A    between atoms: C_2  and  C_3
REMARK    3  A    between atoms: C_2  and  N_4
REMARK    4  A    between atoms: C_10  and  N_15
REMARK    5  A    between atoms: C_11  and  C_12
REMARK    6  A    between atoms: C_16  and  C_18
REMARK    7  A    between atoms: C_19  and  C_20
REMARK                            x       y       z     vdW  Elec       q    Type
REMARK                         _______ _______ _______ _____ _____    ______ ____
ROOT
ATOM      1  N   UNL     1       0.818  -0.233   1.202  0.00  0.00    +0.384 N 
ATOM      2  C   UNL     1       1.165  -1.657   1.293  0.00  0.00    -0.073 C 
ATOM      3  C   UNL     1       2.260  -1.869   2.344  0.00  0.00    +0.018 C 
ATOM      4  C   UNL     1       1.806  -1.198   3.633  0.00  0.00    -0.027 A 
ATOM      5  C   UNL     1       0.806  -0.287   3.610  0.00  0.00    -0.021 A 
ATOM      6  S   UNL     1       0.618   0.213   5.294  0.00  0.00    -0.079 S 
ATOM      7  C   UNL     1       1.808  -0.733   6.008  0.00  0.00    +0.085 A 
ATOM      8  C   UNL     1       2.358  -1.443   4.950  0.00  0.00    +0.068 A 
ATOM      9  C   UNL     1       0.055   0.168   2.398  0.00  0.00    -0.035 C 
ATOM     10  H   UNL     1       1.663   0.315   1.143  0.00  0.00    -0.081 HD
ENDROOT
BRANCH   8  11
ATOM     11  C   UNL     1       3.449  -2.400   5.156  0.00  0.00    +0.244 C 
ATOM     12  O   UNL     1       4.606  -2.027   5.090  0.00  0.00    -0.270 OA
ATOM     13  N   UNL     1       3.172  -3.692   5.419  0.00  0.00    -0.325 N 
ATOM     14  H   UNL     1       2.250  -3.990   5.471  0.00  0.00    +0.145 HD
ATOM     15  H   UNL     1       3.894  -4.325   5.555  0.00  0.00    +0.145 HD
ENDBRANCH   8  11
BRANCH   7  16
ATOM     16  N   UNL     1       2.160  -0.791   7.346  0.00  0.00    -0.276 N 
ATOM     17  C   UNL     1       1.514  -0.024   8.247  0.00  0.00    +0.241 C 
ATOM     18  O   UNL     1       0.621   0.720   7.884  0.00  0.00    -0.270 OA
ATOM     19  H   UNL     1       2.871  -1.383   7.636  0.00  0.00    +0.156 HD
BRANCH  17  20
ATOM     20  C   UNL     1       1.885  -0.085   9.659  0.00  0.00    +0.068 C 
ATOM     21  C   UNL     1       1.238   0.683  10.562  0.00  0.00    +0.013 C 
BRANCH  21  22
ATOM     22  C   UNL     1       1.611   0.622  11.982  0.00  0.00    -0.021 A 
ATOM     23  C   UNL     1       2.642  -0.228  12.401  0.00  0.00    +0.012 A 
ATOM     24  C   UNL     1       2.990  -0.283  13.732  0.00  0.00    +0.050 A 
ATOM     25  C   UNL     1       2.322   0.502  14.663  0.00  0.00    +0.166 A 
ATOM     26  C   UNL     1       1.293   1.352  14.253  0.00  0.00    +0.167 A 
ATOM     27  C   UNL     1       0.942   1.417  12.919  0.00  0.00    +0.057 A 
ATOM     28  O   UNL     1       0.806   2.006  15.348  0.00  0.00    -0.453 OA
ATOM     29  C   UNL     1       1.266   1.249  16.483  0.00  0.00    +0.466 C 
ATOM     30  O   UNL     1       2.476   0.627  16.012  0.00  0.00    -0.453 OA
ENDBRANCH  21  22
ENDBRANCH  17  20
ENDBRANCH   7  16
BRANCH   1  32
ATOM     31  C   UNL     1      -0.448   1.458  -0.038  0.00  0.00    -0.014 C 
ATOM     32  C   UNL     1       0.002  -0.004   0.002  0.00  0.00    -0.074 C 
ATOM     33  C   UNL     1       0.831  -0.317  -1.246  0.00  0.00    -0.014 C 
ENDBRANCH   1  32
TORSDOF 5
