REMARK  Name = ZINC00892582
REMARK  5 active torsions:
REMARK  status: ('A' for Active; 'I' for Inactive)
REMARK    1  A    between atoms: C_1  and  C_2
REMARK    2  A    between atoms: C_7  and  C_14
REMARK    3  A    between atoms: C_14  and  C_16
REMARK    4  A    between atoms: C_14  and  N_27
REMARK    5  A    between atoms: N_20  and  C_21
REMARK                            x       y       z     vdW  Elec       q    Type
REMARK                         _______ _______ _______ _____ _____    ______ ____
ROOT
ATOM      1  C   UNL     1       1.688   3.140   0.002  0.00  0.00    +0.179 C 
ENDROOT
BRANCH   1   8
ATOM      2  C   UNL     1       3.488   7.240  -6.599  0.00  0.00    +0.044 C 
ATOM      3  C   UNL     1       3.376   6.418  -5.341  0.00  0.00    -0.048 A 
ATOM      4  C   UNL     1       4.516   5.848  -4.790  0.00  0.00    +0.004 A 
ATOM      5  C   UNL     1       4.437   5.098  -3.650  0.00  0.00    +0.010 A 
ATOM      6  C   UNL     1       3.197   4.905  -3.032  0.00  0.00    -0.001 A 
ATOM      7  C   UNL     1       3.077   4.112  -1.807  0.00  0.00    +0.021 A 
ATOM      8  C   UNL     1       1.848   3.954  -1.256  0.00  0.00    +0.045 A 
ATOM      9  C   UNL     1       0.719   4.554  -1.853  0.00  0.00    +0.255 A 
ATOM     10  O   UNL     1      -0.376   4.403  -1.339  0.00  0.00    -0.268 OA
ATOM     11  N   UNL     1       0.820   5.288  -2.975  0.00  0.00    -0.322 N 
ATOM     12  H   UNL     1       0.023   5.687  -3.359  0.00  0.00    +0.169 HD
ATOM     13  C   UNL     1       2.039   5.482  -3.588  0.00  0.00    +0.049 A 
ATOM     14  C   UNL     1       2.145   6.241  -4.749  0.00  0.00    +0.029 A 
ENDBRANCH   1   8
BRANCH   1  15
ATOM     15  N   UNL     1       0.989   3.939   1.017  0.00  0.00    -0.315 N 
ATOM     16  C   UNL     1       1.646   5.251   1.204  0.00  0.00    +0.111 C 
ATOM     17  C   UNL     1       1.369   5.559   2.694  0.00  0.00    +0.056 C 
ATOM     18  C   UNL     1       1.192   4.178   3.295  0.00  0.00    -0.025 A 
ATOM     19  C   UNL     1       0.979   3.282   2.254  0.00  0.00    +0.034 A 
ATOM     20  C   UNL     1       0.796   1.933   2.549  0.00  0.00    +0.023 A 
ATOM     21  C   UNL     1       0.820   1.499   3.858  0.00  0.00    +0.002 A 
ATOM     22  C   UNL     1       1.026   2.400   4.887  0.00  0.00    +0.000 A 
ATOM     23  C   UNL     1       1.212   3.740   4.602  0.00  0.00    +0.005 A 
ENDBRANCH   1  15
BRANCH   1  24
ATOM     24  C   UNL     1       0.888   1.900  -0.300  0.00  0.00    +0.177 A 
ATOM     25  N   UNL     1      -0.406   1.833  -0.503  0.00  0.00    -0.111 NA
ATOM     26  N   UNL     1      -0.710   0.602  -0.731  0.00  0.00    -0.023 NA
ATOM     27  N   UNL     1       0.356  -0.118  -0.679  0.00  0.00    -0.044 NA
ATOM     28  N   UNL     1       1.362   0.645  -0.416  0.00  0.00    -0.224 N 
BRANCH  28  29
ATOM     29  C   UNL     1       2.758   0.226  -0.270  0.00  0.00    +0.111 C 
ATOM     30  C   UNL     1       3.235  -0.422  -1.571  0.00  0.00    +0.027 C 
ATOM     31  C   UNL     1       4.693  -0.860  -1.419  0.00  0.00    +0.002 C 
ATOM     32  C   UNL     1       4.805  -1.870  -0.275  0.00  0.00    +0.000 C 
ATOM     33  C   UNL     1       4.328  -1.222   1.026  0.00  0.00    +0.002 C 
ATOM     34  C   UNL     1       2.870  -0.784   0.874  0.00  0.00    +0.027 C 
ENDBRANCH  28  29
ENDBRANCH   1  24
TORSDOF 4
