REMARK  Name = ZINC39469811
REMARK  8 active torsions:
REMARK  status: ('A' for Active; 'I' for Inactive)
REMARK    1  A    between atoms: C_1  and  C_2
REMARK    2  A    between atoms: C_2  and  C_3
REMARK    3  A    between atoms: C_2  and  S_4
REMARK    4  A    between atoms: S_4  and  P_7
REMARK    5  A    between atoms: C_15  and  C_32
REMARK    6  A    between atoms: C_16  and  C_25
REMARK    7  A    between atoms: C_25  and  C_26
REMARK    8  A    between atoms: C_37  and  O_38
REMARK                            x       y       z     vdW  Elec       q    Type
REMARK                         _______ _______ _______ _____ _____    ______ ____
ROOT
ATOM      1  P   UNL     1       2.806   0.221  -1.358  0.00  0.00    +0.392 P 
ATOM      2  O   UNL     1       3.496  -0.300  -0.157  0.00  0.00    -0.249 OA
ATOM      3  N   UNL     1       3.668  -0.139  -2.719  0.00  0.00    -0.274 NA
ATOM      4  N   UNL     1       4.771   0.637  -3.005  0.00  0.00    +0.398 N 
ATOM      5  C   UNL     1       5.268   0.173  -4.310  0.00  0.00    -0.046 C 
ATOM      6  C   UNL     1       6.508   0.950  -4.730  0.00  0.00    +0.005 C 
ATOM      7  C   UNL     1       7.613   0.762  -3.723  0.00  0.00    -0.016 C 
ATOM      8  C   UNL     1       8.595   1.677  -3.647  0.00  0.00    -0.015 C 
ATOM      9  C   UNL     1       8.573   2.838  -4.562  0.00  0.00    -0.039 C 
ATOM     10  C   UNL     1       7.431   3.211  -5.127  0.00  0.00    -0.019 C 
ATOM     11  C   UNL     1       6.169   2.441  -4.823  0.00  0.00    +0.016 C 
ATOM     12  C   UNL     1       5.615   2.899  -3.473  0.00  0.00    -0.003 C 
ATOM     13  C   UNL     1       4.401   2.052  -3.074  0.00  0.00    -0.020 C 
ATOM     14  C   UNL     1       3.916   2.573  -1.715  0.00  0.00    +0.158 C 
ATOM     15  O   UNL     1       2.741   1.846  -1.312  0.00  0.00    -0.304 OA
ATOM     16  H   UNL     1       3.407  -0.872  -3.298  0.00  0.00    +0.112 HD
ATOM     17  H   UNL     1       5.474   0.504  -2.293  0.00  0.00    -0.055 HD
ENDROOT
BRANCH   8  18
ATOM     18  C   UNL     1       9.687   1.523  -2.655  0.00  0.00    +0.024 A 
ATOM     19  C   UNL     1      10.955   1.119  -3.068  0.00  0.00    +0.012 A 
ATOM     20  C   UNL     1      11.968   0.978  -2.142  0.00  0.00    +0.001 A 
ATOM     21  C   UNL     1      11.729   1.236  -0.803  0.00  0.00    +0.004 A 
ATOM     22  C   UNL     1      10.475   1.637  -0.383  0.00  0.00    +0.046 A 
ATOM     23  C   UNL     1       9.450   1.789  -1.303  0.00  0.00    +0.125 A 
BRANCH  23  24
ATOM     24  O   UNL     1       8.219   2.189  -0.892  0.00  0.00    -0.506 OA
ATOM     25  H   UNL     1       7.630   1.462  -0.648  0.00  0.00    +0.292 HD
ENDBRANCH  23  24
ENDBRANCH   8  18
BRANCH   1  26
ATOM     26  S   UNL     1       0.851  -0.589  -1.490  0.00  0.00    +0.056 S 
ATOM     27  O   UNL     1       1.037  -1.996  -1.428  0.00  0.00    -0.164 OA
ATOM     28  O   UNL     1       0.285   0.016  -2.645  0.00  0.00    -0.164 OA
BRANCH  26  30
ATOM     29  C   UNL     1      -0.019   1.526   0.010  0.00  0.00    +0.032 C 
ATOM     30  C   UNL     1       0.002  -0.004   0.002  0.00  0.00    +0.135 C 
ATOM     31  C   UNL     1      -1.433  -0.534   0.013  0.00  0.00    +0.032 C 
ENDBRANCH  26  30
ENDBRANCH   1  26
BRANCH   9  32
ATOM     32  C   UNL     1       9.843   3.596  -4.852  0.00  0.00    +0.070 C 
BRANCH  32  33
ATOM     33  C   UNL     1      10.066   4.631  -3.780  0.00  0.00    -0.043 A 
ATOM     34  C   UNL     1       9.542   5.902  -3.925  0.00  0.00    +0.004 A 
ATOM     35  C   UNL     1       9.747   6.850  -2.940  0.00  0.00    +0.000 A 
ATOM     36  C   UNL     1      10.476   6.529  -1.811  0.00  0.00    +0.000 A 
ATOM     37  C   UNL     1      11.001   5.258  -1.666  0.00  0.00    +0.000 A 
ATOM     38  C   UNL     1      10.792   4.307  -2.648  0.00  0.00    +0.004 A 
ENDBRANCH  32  33
ENDBRANCH   9  32
TORSDOF 6
