REMARK  Name = ZINC12131180
REMARK  10 active torsions:
REMARK  status: ('A' for Active; 'I' for Inactive)
REMARK    1  A    between atoms: C_1  and  C_2
REMARK    2  A    between atoms: C_2  and  C_3
REMARK    3  A    between atoms: C_3  and  C_5
REMARK    4  A    between atoms: C_3  and  C_6
REMARK    5  A    between atoms: C_6  and  N_63
REMARK    6  A    between atoms: C_9  and  C_12
REMARK    7  A    between atoms: C_12  and  C_29
REMARK    8  A    between atoms: N_15  and  C_19
REMARK    9  A    between atoms: C_19  and  C_20
REMARK   10  A    between atoms: C_29  and  C_30
REMARK                            x       y       z     vdW  Elec       q    Type
REMARK                         _______ _______ _______ _____ _____    ______ ____
ROOT
ATOM      1  C   UNL     1       3.162  -0.249  -3.511  0.00  0.00    +0.115 C 
ATOM      2  C   UNL     1       2.528  -0.418  -2.145  0.00  0.00    +0.247 C 
ATOM      3  O   UNL     1       1.822  -1.331  -1.772  0.00  0.00    -0.273 OA
ATOM      4  N   UNL     1       2.910   0.658  -1.430  0.00  0.00    -0.220 N 
ATOM      5  C   UNL     1       3.696   1.472  -2.145  0.00  0.00    +0.310 C 
ATOM      6  O   UNL     1       4.169   2.505  -1.715  0.00  0.00    -0.252 OA
ATOM      7  N   UNL     1       3.903   1.018  -3.395  0.00  0.00    -0.285 N 
ATOM      8  H   UNL     1       4.437   1.443  -4.085  0.00  0.00    +0.151 HD
ENDROOT
BRANCH   1  11
ATOM      9  C   UNL     1       0.084   1.121  -5.373  0.00  0.00    -0.078 C 
ATOM     10  C   UNL     1       1.118   0.985  -4.253  0.00  0.00    -0.013 C 
ATOM     11  C   UNL     1       2.089  -0.148  -4.598  0.00  0.00    +0.018 C 
ATOM     12  C   UNL     1       2.753   0.150  -5.945  0.00  0.00    -0.013 C 
ATOM     13  C   UNL     1       1.671   0.313  -7.016  0.00  0.00    -0.078 C 
ATOM     14  N   UNL     1       0.784   1.433  -6.637  0.00  0.00    +0.380 N 
ATOM     15  H   UNL     1       1.353   2.278  -6.503  0.00  0.00    -0.082 HD
BRANCH  14  16
ATOM     16  C   UNL     1      -0.200   1.683  -7.711  0.00  0.00    -0.076 C 
BRANCH  16  17
ATOM     17  C   UNL     1       0.545   1.883  -9.033  0.00  0.00    -0.031 C 
ATOM     18  C   UNL     1       1.473   3.094  -8.917  0.00  0.00    +0.005 C 
BRANCH  17  20
ATOM     19  C   UNL     1       0.269   2.197 -11.496  0.00  0.00    +0.004 C 
ATOM     20  C   UNL     1      -0.466   2.121 -10.156  0.00  0.00    -0.002 C 
ENDBRANCH  17  20
ENDBRANCH  16  17
ENDBRANCH  14  16
ENDBRANCH   1  11
BRANCH   1  21
ATOM     21  C   UNL     1       4.117  -1.407  -3.807  0.00  0.00    +0.032 C 
ATOM     22  C   UNL     1       5.146  -1.520  -2.680  0.00  0.00    +0.006 C 
ENDBRANCH   1  21
BRANCH   4  23
ATOM     23  C   UNL     1       2.520   0.905  -0.040  0.00  0.00    +0.153 C 
BRANCH  23  24
ATOM     24  C   UNL     1       1.240   1.700  -0.011  0.00  0.00    -0.026 A 
ATOM     25  C   UNL     1       1.288   3.082   0.001  0.00  0.00    +0.009 A 
ATOM     26  C   UNL     1       0.117   3.817   0.027  0.00  0.00    +0.050 A 
ATOM     27  C   UNL     1      -1.108   3.169   0.041  0.00  0.00    +0.166 A 
ATOM     28  C   UNL     1      -1.156   1.777   0.026  0.00  0.00    +0.167 A 
ATOM     29  C   UNL     1       0.022   1.047   0.005  0.00  0.00    +0.054 A 
ATOM     30  O   UNL     1      -2.463   1.385   0.049  0.00  0.00    -0.453 OA
ATOM     31  C   UNL     1      -3.204   2.540   0.483  0.00  0.00    +0.466 C 
ATOM     32  O   UNL     1      -2.385   3.649   0.067  0.00  0.00    -0.453 OA
ENDBRANCH  23  24
ENDBRANCH   4  23
TORSDOF 7
