REMARK  Name = ZINC01749465
REMARK  6 active torsions:
REMARK  status: ('A' for Active; 'I' for Inactive)
REMARK    1  A    between atoms: C_1  and  C_2
REMARK    2  A    between atoms: C_8  and  C_9
REMARK    3  A    between atoms: C_8  and  N_55
REMARK    4  A    between atoms: C_10  and  O_32
REMARK    5  A    between atoms: C_18  and  C_20
REMARK    6  A    between atoms: C_22  and  C_25
REMARK                            x       y       z     vdW  Elec       q    Type
REMARK                         _______ _______ _______ _____ _____    ______ ____
ROOT
ATOM      1  C   UNL     1       1.221  -0.668  -0.013  0.00  0.00    +0.020 A 
ATOM      2  C   UNL     1       2.402   0.055  -0.021  0.00  0.00    +0.122 A 
ATOM      3  C   UNL     1       2.378   1.449  -0.013  0.00  0.00    +0.046 A 
ATOM      4  C   UNL     1       1.190   2.118   0.002  0.00  0.00    +0.015 A 
ATOM      5  C   UNL     1      -0.017   1.403   0.010  0.00  0.00    +0.019 A 
ATOM      6  C   UNL     1       0.002  -0.004   0.002  0.00  0.00    +0.144 A 
ATOM      7  O   UNL     1      -1.149  -0.712   0.010  0.00  0.00    -0.421 OA
ATOM      8  C   UNL     1      -2.345  -0.101   0.024  0.00  0.00    +0.347 A 
ATOM      9  O   UNL     1      -3.365  -0.765   0.031  0.00  0.00    -0.244 OA
ATOM     10  C   UNL     1      -2.426   1.363   0.032  0.00  0.00    +0.092 A 
ATOM     11  C   UNL     1      -1.254   2.095   0.031  0.00  0.00    +0.029 A 
ENDROOT
BRANCH  10  12
ATOM     12  C   UNL     1      -3.735   2.042   0.048  0.00  0.00    +0.116 A 
ATOM     13  N   UNL     1      -4.952   1.518   0.057  0.00  0.00    -0.239 NA
ATOM     14  C   UNL     1      -6.027   2.283   0.071  0.00  0.00    +0.079 A 
ATOM     15  C   UNL     1      -5.884   3.646   0.076  0.00  0.00    +0.075 A 
ATOM     16  S   UNL     1      -4.102   3.792   0.068  0.00  0.00    -0.075 S 
BRANCH  14  17
ATOM     17  C   UNL     1      -7.380   1.673   0.082  0.00  0.00    +0.001 A 
ATOM     18  C   UNL     1      -8.513   2.485   0.102  0.00  0.00    +0.011 A 
ATOM     19  C   UNL     1      -9.768   1.912   0.107  0.00  0.00    +0.016 A 
ATOM     20  C   UNL     1      -9.903   0.534   0.102  0.00  0.00    +0.018 A 
ATOM     21  C   UNL     1      -8.781  -0.276   0.086  0.00  0.00    +0.016 A 
ATOM     22  C   UNL     1      -7.521   0.287   0.076  0.00  0.00    +0.011 A 
ATOM     23 BR   UNL     1     -11.627  -0.243   0.116  0.00  0.00    -0.050 Br
ENDBRANCH  14  17
ENDBRANCH  10  12
BRANCH   2  24
ATOM     24  O   UNL     1       3.592  -0.598  -0.035  0.00  0.00    -0.506 OA
ATOM     25  H   UNL     1       3.928  -0.783  -0.922  0.00  0.00    +0.292 HD
ENDBRANCH   2  24
BRANCH   1  26
ATOM     26  C   UNL     1       1.259  -2.174  -0.021  0.00  0.00    -0.036 C 
BRANCH  26  33
ATOM     27  C   UNL     1      -1.192  -2.297  -4.284  0.00  0.00    +0.005 C 
ATOM     28  C   UNL     1       0.030  -2.814  -3.523  0.00  0.00    -0.031 C 
ATOM     29  C   UNL     1       1.304  -2.444  -4.288  0.00  0.00    -0.001 C 
ATOM     30  C   UNL     1       2.523  -2.913  -3.490  0.00  0.00    -0.018 C 
ATOM     31  C   UNL     1       2.494  -2.273  -2.100  0.00  0.00    -0.078 C 
ATOM     32  C   UNL     1       0.073  -2.176  -2.132  0.00  0.00    -0.075 C 
ATOM     33  N   UNL     1       1.256  -2.687  -1.407  0.00  0.00    +0.383 N 
ATOM     34  H   UNL     1       1.215  -3.712  -1.383  0.00  0.00    -0.081 HD
ENDBRANCH  26  33
ENDBRANCH   1  26
TORSDOF 5
