REMARK  Name = ZINC36591807
REMARK  17 active torsions:
REMARK  status: ('A' for Active; 'I' for Inactive)
REMARK    1  A    between atoms: C_1  and  C_2
REMARK    2  A    between atoms: C_2  and  C_3
REMARK    3  A    between atoms: C_3  and  C_4
REMARK    4  A    between atoms: C_4  and  C_5
REMARK    5  A    between atoms: C_5  and  C_6
REMARK    6  A    between atoms: C_6  and  C_8
REMARK    7  A    between atoms: C_6  and  N_22
REMARK    8  A    between atoms: N_10  and  C_11
REMARK    9  A    between atoms: C_11  and  S_12
REMARK   10  A    between atoms: S_12  and  C_15
REMARK   11  A    between atoms: C_18  and  C_21
REMARK   12  A    between atoms: N_22  and  C_34
REMARK   13  A    between atoms: C_23  and  C_25
REMARK   14  A    between atoms: C_29  and  N_31
REMARK   15  A    between atoms: C_34  and  C_35
REMARK   16  A    between atoms: C_34  and  C_36
REMARK   17  A    between atoms: C_34  and  C_37
REMARK                            x       y       z     vdW  Elec       q    Type
REMARK                         _______ _______ _______ _____ _____    ______ ____
ROOT
ATOM      1  C   UNL     1      -1.210  -2.849   1.172  0.00  0.00    +0.163 C 
ENDROOT
BRANCH   1   2
ATOM      2  C   UNL     1      -1.439  -3.946   0.164  0.00  0.00    +0.235 C 
ATOM      3  O   UNL     1      -1.791  -5.046   0.534  0.00  0.00    -0.274 OA
ATOM      4  N   UNL     1      -1.253  -3.704  -1.149  0.00  0.00    -0.295 N 
ATOM      5  H   UNL     1      -0.972  -2.825  -1.445  0.00  0.00    +0.150 HD
BRANCH   4   6
ATOM      6  C   UNL     1      -1.476  -4.770  -2.129  0.00  0.00    +0.278 C 
BRANCH   6   7
ATOM      7  S   UNL     1      -3.162  -4.644  -2.787  0.00  0.00    +0.013 S 
ATOM      8  O   UNL     1      -3.373  -5.633  -3.785  0.00  0.00    -0.168 OA
ATOM      9  O   UNL     1      -4.091  -4.477  -1.725  0.00  0.00    -0.168 OA
BRANCH   7  10
ATOM     10  C   UNL     1      -3.194  -3.112  -3.657  0.00  0.00    +0.090 A 
ATOM     11  C   UNL     1      -3.549  -1.950  -2.998  0.00  0.00    +0.027 A 
ATOM     12  C   UNL     1      -3.574  -0.748  -3.681  0.00  0.00    +0.005 A 
ATOM     13  C   UNL     1      -3.244  -0.709  -5.023  0.00  0.00    -0.050 A 
ATOM     14  C   UNL     1      -2.888  -1.871  -5.682  0.00  0.00    +0.005 A 
ATOM     15  C   UNL     1      -2.858  -3.071  -4.998  0.00  0.00    +0.027 A 
ATOM     16  C   UNL     1      -3.272   0.601  -5.768  0.00  0.00    +0.044 C 
ENDBRANCH   7  10
ENDBRANCH   6   7
ENDBRANCH   4   6
ENDBRANCH   1   2
BRANCH   1  17
ATOM     17  N   UNL     1      -2.067  -3.071   2.339  0.00  0.00    -0.281 N 
ATOM     18  C   UNL     1      -1.516  -3.261   3.554  0.00  0.00    +0.248 C 
ATOM     19  O   UNL     1      -0.472  -3.874   3.659  0.00  0.00    -0.270 OA
BRANCH  18  20
ATOM     20  C   UNL     1      -2.181  -2.722   4.759  0.00  0.00    +0.039 A 
ATOM     21  C   UNL     1      -3.542  -2.409   4.729  0.00  0.00    +0.013 A 
ATOM     22  C   UNL     1      -4.156  -1.908   5.857  0.00  0.00    +0.003 A 
ATOM     23  C   UNL     1      -3.428  -1.714   7.018  0.00  0.00    +0.033 A 
ATOM     24  C   UNL     1      -2.079  -2.021   7.054  0.00  0.00    +0.127 A 
ATOM     25  C   UNL     1      -1.454  -2.530   5.934  0.00  0.00    +0.045 A 
BRANCH  24  26
ATOM     26  N   UNL     1      -1.307  -1.810   8.300  0.00  0.00    +0.056 N 
ATOM     27  O   UNL     1      -1.855  -1.370   9.283  0.00  0.00    -0.126 OA
ATOM     28  O   UNL     1      -0.129  -2.079   8.333  0.00  0.00    -0.126 OA
ENDBRANCH  24  26
ENDBRANCH  18  20
BRANCH  17  29
ATOM     29  C   UNL     1      -3.524  -3.087   2.185  0.00  0.00    +0.030 C 
ATOM     30  C   UNL     1      -3.883  -3.579   0.781  0.00  0.00    +0.031 C 
ATOM     31  C   UNL     1      -4.137  -4.026   3.226  0.00  0.00    +0.031 C 
ATOM     32  C   UNL     1      -4.074  -1.674   2.386  0.00  0.00    +0.031 C 
ENDBRANCH  17  29
ENDBRANCH   1  17
BRANCH   1  33
ATOM     33  C   UNL     1      -1.548  -1.497   0.540  0.00  0.00    +0.032 C 
BRANCH  33  34
ATOM     34  C   UNL     1      -1.244  -0.378   1.538  0.00  0.00    +0.002 C 
BRANCH  34  35
ATOM     35  C   UNL     1      -1.582   0.974   0.907  0.00  0.00    -0.000 C 
BRANCH  35  37
ATOM     36  C   UNL     1      -1.616   3.445   1.273  0.00  0.00    +0.004 C 
ATOM     37  C   UNL     1      -1.278   2.093   1.905  0.00  0.00    -0.003 C 
ENDBRANCH  35  37
ENDBRANCH  34  35
ENDBRANCH  33  34
ENDBRANCH   1  33
TORSDOF 12
