REMARK  Name = ZINC36027626
REMARK  15 active torsions:
REMARK  status: ('A' for Active; 'I' for Inactive)
REMARK    1  A    between atoms: C_1  and  C_2
REMARK    2  A    between atoms: C_2  and  O_3
REMARK    3  A    between atoms: O_3  and  C_4
REMARK    4  A    between atoms: C_4  and  C_6
REMARK    5  A    between atoms: C_7  and  C_24
REMARK    6  A    between atoms: N_8  and  C_21
REMARK    7  A    between atoms: C_12  and  C_14
REMARK    8  A    between atoms: C_19  and  C_20
REMARK    9  A    between atoms: C_21  and  C_22
REMARK   10  A    between atoms: C_24  and  N_25
REMARK   11  A    between atoms: C_29  and  C_32
REMARK   12  A    between atoms: N_35  and  C_36
REMARK   13  A    between atoms: C_36  and  C_37
REMARK   14  A    between atoms: C_36  and  C_38
REMARK   15  A    between atoms: C_36  and  C_39
REMARK                            x       y       z     vdW  Elec       q    Type
REMARK                         _______ _______ _______ _____ _____    ______ ____
ROOT
ATOM      1  C   UNL     1      -2.780  -2.362   0.160  0.00  0.00    +0.080 C 
ATOM      2  C   UNL     1      -2.963  -3.694   0.030  0.00  0.00    +0.041 C 
ATOM      3  N   UNL     1      -4.215  -4.223  -0.101  0.00  0.00    -0.254 N 
ATOM      4  C   UNL     1      -5.335  -3.489  -0.114  0.00  0.00    +0.307 C 
ATOM      5  O   UNL     1      -6.405  -4.051  -0.236  0.00  0.00    -0.252 OA
ATOM      6  N   UNL     1      -5.313  -2.147   0.005  0.00  0.00    -0.288 N 
ATOM      7  C   UNL     1      -4.010  -1.477   0.159  0.00  0.00    +0.144 C 
ATOM      8  H   UNL     1      -6.136  -1.634  -0.007  0.00  0.00    +0.151 HD
ENDROOT
BRANCH   7   9
ATOM      9  C   UNL     1      -4.029  -0.707   1.454  0.00  0.00    -0.020 A 
ATOM     10  C   UNL     1      -4.678  -1.226   2.559  0.00  0.00    +0.006 A 
ATOM     11  C   UNL     1      -4.694  -0.519   3.746  0.00  0.00    +0.000 A 
ATOM     12  C   UNL     1      -4.062   0.708   3.829  0.00  0.00    +0.000 A 
ATOM     13  C   UNL     1      -3.413   1.227   2.725  0.00  0.00    +0.004 A 
ATOM     14  C   UNL     1      -3.392   0.517   1.539  0.00  0.00    -0.045 A 
ATOM     15  C   UNL     1      -2.680   1.081   0.336  0.00  0.00    +0.044 C 
ENDBRANCH   7   9
BRANCH   1  16
ATOM     16  C   UNL     1      -1.484  -1.812   0.297  0.00  0.00    +0.339 C 
ATOM     17  O   UNL     1      -1.100  -1.425   1.385  0.00  0.00    -0.245 OA
BRANCH  16  18
ATOM     18  O   UNL     1      -0.674  -1.717  -0.778  0.00  0.00    -0.462 OA
BRANCH  18  20
ATOM     19  C   UNL     1       1.382  -1.097  -1.886  0.00  0.00    +0.048 C 
ATOM     20  C   UNL     1       0.658  -1.256  -0.548  0.00  0.00    +0.229 C 
ENDBRANCH  18  20
ENDBRANCH  16  18
ENDBRANCH   1  16
BRANCH   3  21
ATOM     21  C   UNL     1      -4.340  -5.677  -0.237  0.00  0.00    +0.141 C 
BRANCH  21  22
ATOM     22  C   UNL     1      -4.480  -6.299   1.128  0.00  0.00    -0.015 C 
ATOM     23  C   UNL     1      -5.502  -7.074   1.393  0.00  0.00    +0.005 C 
ENDBRANCH  21  22
ENDBRANCH   3  21
BRANCH   2  24
ATOM     24  C   UNL     1      -1.767  -4.610   0.031  0.00  0.00    +0.136 C 
BRANCH  24  25
ATOM     25  N   UNL     1      -1.788  -5.441   1.242  0.00  0.00    -0.294 NA
ATOM     26  C   UNL     1      -1.609  -4.620   2.447  0.00  0.00    +0.104 C 
ATOM     27  C   UNL     1      -1.817  -5.492   3.691  0.00  0.00    +0.125 C 
ATOM     28  N   UNL     1      -0.928  -6.660   3.596  0.00  0.00    -0.280 N 
ATOM     29  C   UNL     1      -0.952  -7.454   2.359  0.00  0.00    +0.088 C 
ATOM     30  C   UNL     1      -0.778  -6.506   1.168  0.00  0.00    +0.107 C 
ATOM     31  C   UNL     1       0.189  -8.473   2.380  0.00  0.00    +0.029 C 
ATOM     32  C   UNL     1      -0.114  -6.994   4.617  0.00  0.00    +0.303 C 
ATOM     33  O   UNL     1       0.681  -7.904   4.487  0.00  0.00    -0.253 OA
ATOM     34  N   UNL     1      -0.181  -6.319   5.781  0.00  0.00    -0.294 N 
ATOM     35  H   UNL     1      -0.864  -5.642   5.911  0.00  0.00    +0.151 HD
BRANCH  34  36
ATOM     36  C   UNL     1       0.777  -6.606   6.851  0.00  0.00    +0.028 C 
ATOM     37  C   UNL     1       2.197  -6.337   6.350  0.00  0.00    +0.031 C 
ATOM     38  C   UNL     1       0.483  -5.708   8.055  0.00  0.00    +0.031 C 
ATOM     39  C   UNL     1       0.652  -8.073   7.267  0.00  0.00    +0.031 C 
ENDBRANCH  34  36
ENDBRANCH  24  25
ENDBRANCH   2  24
TORSDOF 9
