REMARK  Name = ZINC38994185
REMARK  7 active torsions:
REMARK  status: ('A' for Active; 'I' for Inactive)
REMARK    1  A    between atoms: C_1  and  C_2
REMARK    2  A    between atoms: C_2  and  O_3
REMARK    3  A    between atoms: O_3  and  C_4
REMARK    4  A    between atoms: C_4  and  C_6
REMARK    5  A    between atoms: C_8  and  N_17
REMARK    6  A    between atoms: C_18  and  C_20
REMARK    7  A    between atoms: C_21  and  C_22
REMARK                            x       y       z     vdW  Elec       q    Type
REMARK                         _______ _______ _______ _____ _____    ______ ____
ROOT
ATOM      1  C   UNL     1       1.466  -2.379  -2.341  0.00  0.00    +0.234 C 
ATOM      2  C   UNL     1       2.968  -2.213  -2.421  0.00  0.00    +0.053 C 
ATOM      3  C   UNL     1       3.471  -3.477  -2.682  0.00  0.00    +0.019 A 
ATOM      4  C   UNL     1       4.789  -3.961  -2.864  0.00  0.00    +0.031 A 
ATOM      5  C   UNL     1       4.993  -5.279  -3.112  0.00  0.00    +0.042 A 
ATOM      6  C   UNL     1       3.929  -6.182  -3.195  0.00  0.00    +0.022 A 
ATOM      7  C   UNL     1       2.643  -5.789  -3.031  0.00  0.00    +0.027 A 
ATOM      8  C   UNL     1       2.349  -4.426  -2.768  0.00  0.00    +0.045 A 
ATOM      9  N   UNL     1       1.202  -3.802  -2.575  0.00  0.00    -0.367 N 
ATOM     10 CL   UNL     1       6.615  -5.858  -3.334  0.00  0.00    -0.084 Cl
ATOM     11  H   UNL     1       0.325  -4.217  -2.584  0.00  0.00    +0.161 HD
ENDROOT
BRANCH   2  12
ATOM     12  N   UNL     1       3.676  -1.062  -2.269  0.00  0.00    -0.283 N 
ATOM     13  C   UNL     1       3.031   0.115  -2.151  0.00  0.00    +0.241 C 
ATOM     14  O   UNL     1       1.817   0.139  -2.075  0.00  0.00    -0.271 OA
ATOM     15  H   UNL     1       4.645  -1.089  -2.246  0.00  0.00    +0.155 HD
BRANCH  13  16
ATOM     16  C   UNL     1       3.768   1.327  -2.116  0.00  0.00    +0.068 C 
ATOM     17  C   UNL     1       3.121   2.507  -1.998  0.00  0.00    +0.013 C 
BRANCH  17  18
ATOM     18  C   UNL     1       3.884   3.762  -1.962  0.00  0.00    -0.021 A 
ATOM     19  C   UNL     1       5.281   3.738  -2.055  0.00  0.00    +0.012 A 
ATOM     20  C   UNL     1       5.993   4.916  -2.021  0.00  0.00    +0.050 A 
ATOM     21  C   UNL     1       5.331   6.131  -1.894  0.00  0.00    +0.166 A 
ATOM     22  C   UNL     1       3.939   6.163  -1.800  0.00  0.00    +0.167 A 
ATOM     23  C   UNL     1       3.217   4.987  -1.839  0.00  0.00    +0.057 A 
ATOM     24  O   UNL     1       3.541   7.464  -1.684  0.00  0.00    -0.453 OA
ATOM     25  C   UNL     1       4.720   8.193  -1.296  0.00  0.00    +0.466 C 
ATOM     26  O   UNL     1       5.800   7.410  -1.837  0.00  0.00    -0.453 OA
ENDBRANCH  17  18
ENDBRANCH  13  16
ENDBRANCH   2  12
BRANCH   1  27
ATOM     27  C   UNL     1       0.972  -1.977  -0.975  0.00  0.00    +0.336 C 
ATOM     28  O   UNL     1       1.151  -2.706  -0.029  0.00  0.00    -0.248 OA
BRANCH  27  29
ATOM     29  O   UNL     1       0.333  -0.808  -0.810  0.00  0.00    -0.463 OA
BRANCH  29  31
ATOM     30  C   UNL     1      -0.810   0.869   0.503  0.00  0.00    +0.048 C 
ATOM     31  C   UNL     1      -0.108  -0.491   0.512  0.00  0.00    +0.229 C 
ENDBRANCH  29  31
ENDBRANCH  27  29
ENDBRANCH   1  27
TORSDOF 6
