REMARK  Name = ZINC09343757
REMARK  9 active torsions:
REMARK  status: ('A' for Active; 'I' for Inactive)
REMARK    1  A    between atoms: C_4  and  C_7
REMARK    2  A    between atoms: C_7  and  C_8
REMARK    3  A    between atoms: C_8  and  N_9
REMARK    4  A    between atoms: C_10  and  C_25
REMARK    5  A    between atoms: C_13  and  S_14
REMARK    6  A    between atoms: S_14  and  C_15
REMARK    7  A    between atoms: C_15  and  C_16
REMARK    8  A    between atoms: N_18  and  C_19
REMARK    9  A    between atoms: C_25  and  N_26
REMARK                            x       y       z     vdW  Elec       q    Type
REMARK                         _______ _______ _______ _____ _____    ______ ____
ROOT
ATOM      1  N   UNL     1       4.821  -1.771  -1.640  0.00  0.00    -0.304 N 
ATOM      2  C   UNL     1       6.069  -1.214  -1.578  0.00  0.00    +0.154 A 
ATOM      3  N   UNL     1       6.925  -2.191  -1.479  0.00  0.00    -0.132 NA
ATOM      4  N   UNL     1       6.309  -3.320  -1.482  0.00  0.00    -0.122 NA
ATOM      5  C   UNL     1       5.015  -3.121  -1.579  0.00  0.00    +0.192 A 
ENDROOT
BRANCH   1   6
ATOM      6  C   UNL     1       3.542  -1.065  -1.754  0.00  0.00    +0.130 C 
BRANCH   6   7
ATOM      7  C   UNL     1       3.057  -0.659  -0.361  0.00  0.00    +0.057 C 
BRANCH   7  11
ATOM      8  C   UNL     1      -0.830   1.088  -0.660  0.00  0.00    +0.000 A 
ATOM      9  C   UNL     1       0.292   1.895  -0.650  0.00  0.00    +0.000 A 
ATOM     10  C   UNL     1       1.550   1.330  -0.553  0.00  0.00    +0.004 A 
ATOM     11  C   UNL     1       1.686  -0.043  -0.466  0.00  0.00    -0.046 A 
ATOM     12  C   UNL     1       0.564  -0.850  -0.476  0.00  0.00    +0.004 A 
ATOM     13  C   UNL     1      -0.694  -0.285  -0.573  0.00  0.00    +0.000 A 
ENDBRANCH   7  11
ENDBRANCH   6   7
ENDBRANCH   1   6
BRANCH   5  14
ATOM     14  S   UNL     1       3.764  -4.362  -1.621  0.00  0.00    -0.077 S 
BRANCH  14  15
ATOM     15  C   UNL     1       4.792  -5.847  -1.498  0.00  0.00    +0.173 C 
BRANCH  15  16
ATOM     16  C   UNL     1       3.911  -7.070  -1.516  0.00  0.00    +0.227 C 
ATOM     17  O   UNL     1       2.707  -6.949  -1.603  0.00  0.00    -0.275 OA
ATOM     18  N   UNL     1       4.461  -8.298  -1.435  0.00  0.00    -0.285 N 
ATOM     19  H   UNL     1       5.414  -8.393  -1.284  0.00  0.00    +0.155 HD
BRANCH  18  20
ATOM     20  C   UNL     1       3.656  -9.435  -1.567  0.00  0.00    +0.033 A 
ATOM     21  C   UNL     1       3.947 -10.582  -0.840  0.00  0.00    +0.023 A 
ATOM     22  C   UNL     1       3.147 -11.700  -0.969  0.00  0.00    +0.002 A 
ATOM     23  C   UNL     1       2.065 -11.683  -1.830  0.00  0.00    +0.000 A 
ATOM     24  C   UNL     1       1.777 -10.545  -2.560  0.00  0.00    +0.002 A 
ATOM     25  C   UNL     1       2.569  -9.421  -2.431  0.00  0.00    +0.023 A 
ENDBRANCH  18  20
ENDBRANCH  15  16
ENDBRANCH  14  15
ENDBRANCH   5  14
BRANCH   2  26
ATOM     26  C   UNL     1       6.393   0.257  -1.615  0.00  0.00    +0.202 C 
BRANCH  26  27
ATOM     27  N   UNL     1       6.726   0.649  -2.986  0.00  0.00    -0.294 N 
ATOM     28  C   UNL     1       8.018   0.478  -3.454  0.00  0.00    +0.060 A 
ATOM     29  C   UNL     1       9.117  -0.059  -2.763  0.00  0.00    +0.027 A 
ATOM     30  C   UNL     1      10.345  -0.170  -3.370  0.00  0.00    +0.002 A 
ATOM     31  C   UNL     1      10.540   0.238  -4.678  0.00  0.00    +0.001 A 
ATOM     32  C   UNL     1       9.473   0.766  -5.385  0.00  0.00    +0.017 A 
ATOM     33  C   UNL     1       8.246   0.877  -4.779  0.00  0.00    +0.041 A 
ATOM     34  S   UNL     1       6.657   1.478  -5.300  0.00  0.00    -0.027 S 
ATOM     35  C   UNL     1       5.772   1.179  -3.778  0.00  0.00    +0.292 A 
ATOM     36  O   UNL     1       4.603   1.397  -3.521  0.00  0.00    -0.259 OA
ENDBRANCH  26  27
ENDBRANCH   2  26
TORSDOF 9
