REMARK  Name = ZINC12767983
REMARK  5 active torsions:
REMARK  status: ('A' for Active; 'I' for Inactive)
REMARK    1  A    between atoms: C_5  and  C_7
REMARK    2  A    between atoms: C_7  and  N_8
REMARK    3  A    between atoms: C_14  and  C_17
REMARK    4  A    between atoms: N_19  and  C_20
REMARK    5  A    between atoms: C_25  and  O_26
REMARK                            x       y       z     vdW  Elec       q    Type
REMARK                         _______ _______ _______ _____ _____    ______ ____
ROOT
ATOM      1  N   UNL     1      -6.256  -0.683  -2.525  0.00  0.00    -0.295 N 
ATOM      2  C   UNL     1      -6.119   0.313  -1.627  0.00  0.00    +0.302 C 
ATOM      3  O   UNL     1      -6.950   1.198  -1.569  0.00  0.00    -0.253 OA
ATOM      4  N   UNL     1      -5.059   0.328  -0.794  0.00  0.00    -0.286 N 
ATOM      5  C   UNL     1      -4.954   1.341   0.265  0.00  0.00    +0.110 C 
ATOM      6  C   UNL     1      -3.601   2.048   0.137  0.00  0.00    +0.032 C 
ATOM      7  C   UNL     1      -2.481   1.005   0.152  0.00  0.00    +0.078 C 
ATOM      8  C   UNL     1      -2.647   0.060  -1.041  0.00  0.00    +0.032 C 
ATOM      9  C   UNL     1      -3.989  -0.670  -0.926  0.00  0.00    +0.110 C 
ATOM     10  H   UNL     1      -5.558  -1.349  -2.621  0.00  0.00    +0.151 HD
ENDROOT
BRANCH   7  11
ATOM     11  C   UNL     1      -1.147   1.699   0.060  0.00  0.00    +0.220 C 
ATOM     12  O   UNL     1      -1.096   2.909  -0.009  0.00  0.00    -0.275 OA
ATOM     13  N   UNL     1      -0.010   0.976   0.057  0.00  0.00    -0.282 N 
ATOM     14  H   UNL     1      -0.051   0.007   0.029  0.00  0.00    +0.155 HD
BRANCH  13  15
ATOM     15  C   UNL     1       1.233   1.623   0.086  0.00  0.00    +0.075 A 
ATOM     16  C   UNL     1       1.340   2.899   0.621  0.00  0.00    +0.027 A 
ATOM     17  C   UNL     1       2.566   3.535   0.649  0.00  0.00    +0.002 A 
ATOM     18  C   UNL     1       3.688   2.904   0.146  0.00  0.00    +0.004 A 
ATOM     19  C   UNL     1       3.590   1.633  -0.388  0.00  0.00    +0.047 A 
ATOM     20  C   UNL     1       2.365   0.986  -0.415  0.00  0.00    +0.138 A 
BRANCH  20  21
ATOM     21  O   UNL     1       2.267  -0.267  -0.935  0.00  0.00    -0.505 OA
ATOM     22  H   UNL     1       2.079  -0.286  -1.883  0.00  0.00    +0.292 HD
ENDBRANCH  20  21
ENDBRANCH  13  15
ENDBRANCH   7  11
BRANCH   1  23
ATOM     23  C   UNL     1      -7.460  -0.759  -3.355  0.00  0.00    +0.144 C 
BRANCH  23  28
ATOM     24  C   UNL     1      -6.900  -2.886  -6.424  0.00  0.00    +0.000 A 
ATOM     25  C   UNL     1      -7.193  -4.149  -5.943  0.00  0.00    +0.003 A 
ATOM     26  C   UNL     1      -7.574  -4.316  -4.625  0.00  0.00    +0.038 A 
ATOM     27  C   UNL     1      -7.660  -3.219  -3.786  0.00  0.00    +0.128 A 
ATOM     28  C   UNL     1      -7.366  -1.955  -4.268  0.00  0.00    +0.005 A 
ATOM     29  C   UNL     1      -6.992  -1.789  -5.588  0.00  0.00    +0.008 A 
ATOM     30  F   UNL     1      -8.033  -3.381  -2.497  0.00  0.00    -0.205 F 
ENDBRANCH  23  28
ENDBRANCH   1  23
TORSDOF 5
