REMARK  Name = ZINC13626825
REMARK  6 active torsions:
REMARK  status: ('A' for Active; 'I' for Inactive)
REMARK    1  A    between atoms: C_1  and  C_2
REMARK    2  A    between atoms: N_4  and  C_5
REMARK    3  A    between atoms: N_13  and  C_14
REMARK    4  A    between atoms: C_14  and  C_16
REMARK    5  A    between atoms: N_23  and  C_24
REMARK    6  A    between atoms: C_24  and  C_25
REMARK                            x       y       z     vdW  Elec       q    Type
REMARK                         _______ _______ _______ _____ _____    ______ ____
ROOT
ATOM      1  C   UNL     1       2.648  -9.064  -0.077  0.00  0.00    +0.035 A 
ATOM      2  C   UNL     1       3.969  -8.669  -0.261  0.00  0.00    +0.025 A 
ATOM      3  C   UNL     1       4.319  -7.341  -0.264  0.00  0.00    +0.029 A 
ATOM      4  C   UNL     1       3.350  -6.340  -0.081  0.00  0.00    +0.058 A 
ATOM      5  C   UNL     1       2.026  -6.766   0.102  0.00  0.00    +0.041 A 
ATOM      6  C   UNL     1       1.671  -8.093   0.106  0.00  0.00    +0.040 A 
ATOM      7  S   UNL     1       1.132  -5.244   0.292  0.00  0.00    -0.052 S 
ATOM      8  C   UNL     1       2.464  -4.145   0.133  0.00  0.00    +0.167 A 
ATOM      9  N   UNL     1       2.447  -2.817   0.184  0.00  0.00    -0.152 NA
ATOM     10  N   UNL     1       3.529  -4.968  -0.063  0.00  0.00    -0.317 N 
ENDROOT
BRANCH   1  14
ATOM     11  C   UNL     1       2.860 -12.805   0.294  0.00  0.00    +0.109 C 
ATOM     12  C   UNL     1       3.175 -11.335   0.402  0.00  0.00    +0.214 C 
ATOM     13  O   UNL     1       4.211 -10.974   0.921  0.00  0.00    -0.276 OA
ATOM     14  N   UNL     1       2.307 -10.423  -0.077  0.00  0.00    -0.286 N 
ATOM     15  H   UNL     1       1.446 -10.707  -0.422  0.00  0.00    +0.155 HD
ENDBRANCH   1  14
BRANCH   9  16
ATOM     16  C   UNL     1       1.294  -2.171   0.381  0.00  0.00    +0.270 C 
ATOM     17  O   UNL     1       0.258  -2.799   0.514  0.00  0.00    -0.268 OA
BRANCH  16  18
ATOM     18  C   UNL     1       1.275  -0.691   0.438  0.00  0.00    +0.042 A 
ATOM     19  C   UNL     1       0.073  -0.013   0.643  0.00  0.00    +0.013 A 
ATOM     20  C   UNL     1       0.061   1.365   0.696  0.00  0.00    +0.004 A 
ATOM     21  C   UNL     1       1.237   2.077   0.545  0.00  0.00    +0.038 A 
ATOM     22  C   UNL     1       2.434   1.411   0.341  0.00  0.00    +0.124 A 
ATOM     23  C   UNL     1       2.459   0.030   0.286  0.00  0.00    +0.051 A 
ATOM     24  F   UNL     1       3.580   2.113   0.195  0.00  0.00    -0.205 F 
ENDBRANCH  16  18
ENDBRANCH   9  16
BRANCH  10  25
ATOM     25  C   UNL     1       4.866  -4.401  -0.251  0.00  0.00    +0.151 C 
BRANCH  25  26
ATOM     26  C   UNL     1       4.751  -3.047  -0.903  0.00  0.00    -0.013 C 
ATOM     27  C   UNL     1       5.298  -2.000  -0.337  0.00  0.00    +0.005 C 
ENDBRANCH  25  26
ENDBRANCH  10  25
TORSDOF 5
