REMARK  Name = ZINC16465676
REMARK  8 active torsions:
REMARK  status: ('A' for Active; 'I' for Inactive)
REMARK    1  A    between atoms: C_3  and  C_6
REMARK    2  A    between atoms: C_8  and  C_11
REMARK    3  A    between atoms: C_11  and  O_12
REMARK    4  A    between atoms: O_12  and  C_13
REMARK    5  A    between atoms: C_13  and  C_15
REMARK    6  A    between atoms: C_15  and  O_16
REMARK    7  A    between atoms: O_16  and  C_17
REMARK    8  A    between atoms: C_20  and  N_23
REMARK                            x       y       z     vdW  Elec       q    Type
REMARK                         _______ _______ _______ _____ _____    ______ ____
ROOT
ATOM      1  C   UNL     1       7.396  -3.318  -0.119  0.00  0.00    +0.345 C 
ATOM      2  O   UNL     1       8.562  -3.002  -0.113  0.00  0.00    -0.247 OA
ENDROOT
BRANCH   1   3
ATOM      3  O   UNL     1       6.445  -2.371  -0.114  0.00  0.00    -0.456 OA
BRANCH   3   4
ATOM      4  C   UNL     1       6.883  -1.011  -0.102  0.00  0.00    +0.291 C 
BRANCH   4   7
ATOM      5  C   UNL     1       3.566   0.619  -0.096  0.00  0.00    +0.202 A 
ATOM      6  C   UNL     1       4.345  -0.502  -0.104  0.00  0.00    +0.082 A 
ATOM      7  C   UNL     1       5.685  -0.097  -0.097  0.00  0.00    +0.121 A 
ATOM      8  N   UNL     1       5.720   1.208  -0.086  0.00  0.00    -0.079 NA
ATOM      9  O   UNL     1       4.388   1.687  -0.091  0.00  0.00    -0.351 OA
BRANCH   5  12
ATOM     10  C   UNL     1      -0.017   1.346  -0.102  0.00  0.00    +0.042 A 
ATOM     11  C   UNL     1       1.323   1.777  -0.097  0.00  0.00    +0.053 A 
ATOM     12  C   UNL     1       2.096   0.654  -0.099  0.00  0.00    +0.172 A 
ATOM     13  O   UNL     1       1.278  -0.417  -0.106  0.00  0.00    -0.460 OA
ATOM     14  C   UNL     1       0.002  -0.003  -0.107  0.00  0.00    +0.196 A 
ENDBRANCH   5  12
ENDBRANCH   4   7
ENDBRANCH   3   4
ENDBRANCH   1   3
BRANCH   1  15
ATOM     15  C   UNL     1       7.009  -4.774  -0.132  0.00  0.00    +0.349 C 
BRANCH  15  16
ATOM     16  O   UNL     1       8.189  -5.580  -0.135  0.00  0.00    -0.481 OA
BRANCH  16  17
ATOM     17  C   UNL     1       8.015  -6.929  -0.146  0.00  0.00    +0.121 A 
ATOM     18  C   UNL     1       6.735  -7.463  -0.160  0.00  0.00    +0.047 A 
ATOM     19  C   UNL     1       6.558  -8.832  -0.171  0.00  0.00    +0.027 A 
ATOM     20  C   UNL     1       7.661  -9.675  -0.169  0.00  0.00    +0.036 A 
ATOM     21  C   UNL     1       8.943  -9.140  -0.156  0.00  0.00    +0.027 A 
ATOM     22  C   UNL     1       9.118  -7.770  -0.150  0.00  0.00    +0.047 A 
BRANCH  20  23
ATOM     23  N   UNL     1       7.482 -11.064  -0.180  0.00  0.00    -0.271 N 
ATOM     24  C   UNL     1       8.574 -12.039  -0.294  0.00  0.00    +0.114 C 
ATOM     25  C   UNL     1       7.974 -13.385   0.170  0.00  0.00    +0.029 C 
ATOM     26  C   UNL     1       6.470 -13.178  -0.123  0.00  0.00    +0.098 C 
ATOM     27  C   UNL     1       6.289 -11.676  -0.083  0.00  0.00    +0.220 C 
ATOM     28  O   UNL     1       5.223 -11.107   0.020  0.00  0.00    -0.275 OA
ENDBRANCH  20  23
ENDBRANCH  16  17
ENDBRANCH  15  16
ENDBRANCH   1  15
TORSDOF 8
