REMARK  Name = ZINC39525662
REMARK  6 active torsions:
REMARK  status: ('A' for Active; 'I' for Inactive)
REMARK    1  A    between atoms: C_1  and  C_2
REMARK    2  A    between atoms: C_2  and  C_3
REMARK    3  A    between atoms: C_2  and  S_4
REMARK    4  A    between atoms: S_4  and  C_7
REMARK    5  A    between atoms: C_17  and  S_21
REMARK    6  A    between atoms: S_21  and  C_24
REMARK                            x       y       z     vdW  Elec       q    Type
REMARK                         _______ _______ _______ _____ _____    ______ ____
ROOT
ATOM      1  C   UNL     1      -1.797  -2.084  -0.019  0.00  0.00    +0.132 C 
ATOM      2  C   UNL     1      -1.100  -2.104   1.344  0.00  0.00    +0.026 C 
ATOM      3  C   UNL     1      -0.647  -3.534   1.639  0.00  0.00    +0.004 C 
ATOM      4  C   UNL     1      -1.829  -4.487   1.657  0.00  0.00    +0.023 C 
ATOM      5  C   UNL     1      -2.733  -4.392   0.434  0.00  0.00    +0.036 C 
ATOM      6  C   UNL     1      -3.049  -2.952   0.054  0.00  0.00    +0.049 C 
ATOM      7  C   UNL     1      -4.074  -5.061   0.829  0.00  0.00    +0.023 C 
ATOM      8  C   UNL     1      -5.032  -4.998  -0.359  0.00  0.00    +0.005 C 
ATOM      9  C   UNL     1      -4.414  -5.737  -1.548  0.00  0.00    +0.043 C 
ATOM     10  C   UNL     1      -3.050  -5.124  -1.876  0.00  0.00    +0.216 C 
ATOM     11  N   UNL     1      -2.191  -5.147  -0.691  0.00  0.00    -0.212 NA
ATOM     12 BR   UNL     1      -0.449  -4.711  -1.108  0.00  0.00    +0.015 Br
ENDROOT
BRANCH   1  13
ATOM     13  S   UNL     1      -2.267  -0.378  -0.424  0.00  0.00    -0.026 S 
ATOM     14  O   UNL     1      -2.986   0.164   0.675  0.00  0.00    -0.174 OA
ATOM     15  O   UNL     1      -2.866  -0.371  -1.713  0.00  0.00    -0.174 OA
BRANCH  13  17
ATOM     16  C   UNL     1       0.162  -0.153  -1.663  0.00  0.00    +0.031 C 
ATOM     17  C   UNL     1      -0.664   0.465  -0.532  0.00  0.00    +0.125 C 
ATOM     18  C   UNL     1      -0.887   1.951  -0.817  0.00  0.00    +0.031 C 
ENDBRANCH  13  17
ENDBRANCH   1  13
BRANCH  10  19
ATOM     19  S   UNL     1      -2.268  -6.087  -3.203  0.00  0.00    +0.014 S 
ATOM     20  O   UNL     1      -1.041  -6.641  -2.748  0.00  0.00    -0.168 OA
ATOM     21  O   UNL     1      -3.235  -6.902  -3.852  0.00  0.00    -0.168 OA
BRANCH  19  22
ATOM     22  C   UNL     1      -1.801  -4.894  -4.413  0.00  0.00    +0.090 A 
ATOM     23  C   UNL     1      -2.728  -4.447  -5.337  0.00  0.00    +0.027 A 
ATOM     24  C   UNL     1      -2.361  -3.512  -6.286  0.00  0.00    +0.002 A 
ATOM     25  C   UNL     1      -1.069  -3.023  -6.311  0.00  0.00    +0.000 A 
ATOM     26  C   UNL     1      -0.142  -3.469  -5.388  0.00  0.00    +0.002 A 
ATOM     27  C   UNL     1      -0.510  -4.402  -4.436  0.00  0.00    +0.027 A 
ENDBRANCH  19  22
ENDBRANCH  10  19
TORSDOF 4
