REMARK  Name = ZINC09358985
REMARK  5 active torsions:
REMARK  status: ('A' for Active; 'I' for Inactive)
REMARK    1  A    between atoms: C_1  and  N_49
REMARK    2  A    between atoms: C_14  and  C_16
REMARK    3  A    between atoms: C_17  and  O_31
REMARK    4  A    between atoms: C_19  and  O_30
REMARK    5  A    between atoms: N_20  and  C_23
REMARK                            x       y       z     vdW  Elec       q    Type
REMARK                         _______ _______ _______ _____ _____    ______ ____
ROOT
ATOM      1  C   UNL     1       2.272   5.575   0.110  0.00  0.00    +0.071 A 
ATOM      2  C   UNL     1       1.042   6.202   0.018  0.00  0.00    +0.224 A 
ATOM      3  N   UNL     1      -0.072   5.467  -0.074  0.00  0.00    -0.161 NA
ATOM      4  C   UNL     1      -0.024   4.154  -0.079  0.00  0.00    +0.306 A 
ATOM      5  N   UNL     1       1.160   3.488   0.009  0.00  0.00    -0.231 N 
ATOM      6  C   UNL     1       2.317   4.176   0.109  0.00  0.00    +0.267 A 
ATOM      7  O   UNL     1       3.383   3.588   0.194  0.00  0.00    -0.267 OA
ENDROOT
BRANCH   1  21
ATOM      8  C   UNL     1       3.566   6.242   2.634  0.00  0.00    -0.095 C 
ATOM      9  C   UNL     1       5.639   6.567   1.425  0.00  0.00    -0.073 C 
ATOM     10  C   UNL     1       6.512   5.942   0.328  0.00  0.00    +0.019 C 
ATOM     11  C   UNL     1       5.726   5.958  -0.959  0.00  0.00    -0.022 A 
ATOM     12  C   UNL     1       6.187   5.779  -2.317  0.00  0.00    +0.003 A 
ATOM     13  C   UNL     1       7.450   5.541  -2.869  0.00  0.00    +0.010 A 
ATOM     14  C   UNL     1       7.519   5.425  -4.235  0.00  0.00    +0.001 A 
ATOM     15  C   UNL     1       6.398   5.536  -5.041  0.00  0.00    +0.002 A 
ATOM     16  C   UNL     1       5.136   5.771  -4.522  0.00  0.00    +0.026 A 
ATOM     17  C   UNL     1       5.035   5.893  -3.138  0.00  0.00    +0.047 A 
ATOM     18  N   UNL     1       3.969   6.121  -2.315  0.00  0.00    -0.359 N 
ATOM     19  H   UNL     1       3.053   6.239  -2.609  0.00  0.00    +0.166 HD
ATOM     20  C   UNL     1       4.389   6.158  -1.014  0.00  0.00    +0.011 A 
ATOM     21  C   UNL     1       3.540   6.384   0.215  0.00  0.00    +0.021 C 
ATOM     22  N   UNL     1       4.307   5.923   1.396  0.00  0.00    +0.387 N 
ATOM     23  H   UNL     1       4.431   4.905   1.335  0.00  0.00    -0.081 HD
ENDBRANCH   1  21
BRANCH   5  24
ATOM     24  C   UNL     1       1.177   2.086   0.002  0.00  0.00    +0.054 A 
ATOM     25  C   UNL     1       1.089   1.384   1.196  0.00  0.00    +0.029 A 
ATOM     26  C   UNL     1       1.105   0.003   1.187  0.00  0.00    +0.040 A 
ATOM     27  C   UNL     1       1.210  -0.681  -0.012  0.00  0.00    +0.124 A 
ATOM     28  C   UNL     1       1.298   0.018  -1.205  0.00  0.00    +0.040 A 
ATOM     29  C   UNL     1       1.281   1.399  -1.200  0.00  0.00    +0.029 A 
ATOM     30  F   UNL     1       1.226  -2.032  -0.019  0.00  0.00    -0.205 F 
ENDBRANCH   5  24
BRANCH   4  31
ATOM     31  O   UNL     1      -1.171   3.451  -0.173  0.00  0.00    -0.479 OA
ATOM     32  H   UNL     1      -1.993   3.958  -0.234  0.00  0.00    +0.295 HD
ENDBRANCH   4  31
BRANCH   2  33
ATOM     33  O   UNL     1       0.965   7.553   0.020  0.00  0.00    -0.492 OA
ATOM     34  H   UNL     1       0.064   7.896  -0.049  0.00  0.00    +0.294 HD
ENDBRANCH   2  33
TORSDOF 4
