REMARK  Name = ZINC20882151
REMARK  9 active torsions:
REMARK  status: ('A' for Active; 'I' for Inactive)
REMARK    1  A    between atoms: C_1  and  O_2
REMARK    2  A    between atoms: O_2  and  C_3
REMARK    3  A    between atoms: C_6  and  O_37
REMARK    4  A    between atoms: C_7  and  C_9
REMARK    5  A    between atoms: C_14  and  C_24
REMARK    6  A    between atoms: C_26  and  O_32
REMARK    7  A    between atoms: C_27  and  O_31
REMARK    8  A    between atoms: O_32  and  C_33
REMARK    9  A    between atoms: O_37  and  C_38
REMARK                            x       y       z     vdW  Elec       q    Type
REMARK                         _______ _______ _______ _____ _____    ______ ____
ROOT
ATOM      1  C   UNL     1       4.371   2.182   4.219  0.00  0.00    +0.036 C 
ATOM      2  C   UNL     1       5.620   1.920   3.380  0.00  0.00    +0.060 C 
ATOM      3  C   UNL     1       5.234   1.695   1.928  0.00  0.00    +0.017 C 
ATOM      4  C   UNL     1       4.164   2.316   1.401  0.00  0.00    +0.036 C 
ATOM      5  C   UNL     1       3.676   2.187  -0.021  0.00  0.00    +0.136 C 
ATOM      6  N   UNL     1       4.599   1.522  -0.916  0.00  0.00    -0.331 N 
ATOM      7  C   UNL     1       4.934   0.181  -0.735  0.00  0.00    +0.049 A 
ATOM      8  C   UNL     1       4.538  -0.792  -1.638  0.00  0.00    +0.025 A 
ATOM      9  C   UNL     1       4.794  -2.123  -1.358  0.00  0.00    +0.002 A 
ATOM     10  C   UNL     1       5.441  -2.482  -0.190  0.00  0.00    +0.002 A 
ATOM     11  C   UNL     1       5.858  -1.510   0.704  0.00  0.00    +0.025 A 
ATOM     12  C   UNL     1       5.618  -0.177   0.417  0.00  0.00    +0.052 A 
ATOM     13  N   UNL     1       6.050   0.852   1.246  0.00  0.00    -0.316 N 
ATOM     14  C   UNL     1       3.379   3.181   2.200  0.00  0.00    +0.163 C 
ATOM     15  O   UNL     1       2.429   3.746   1.694  0.00  0.00    -0.292 OA
ATOM     16  C   UNL     1       3.679   3.426   3.648  0.00  0.00    +0.088 C 
ATOM     17  H   UNL     1       5.046   2.075  -1.755  0.00  0.00    +0.147 HD
ATOM     18  H   UNL     1       7.142   0.957   1.329  0.00  0.00    +0.152 HD
ENDROOT
BRANCH   5  19
ATOM     19  C   UNL     1       2.381   1.416  -0.013  0.00  0.00    -0.018 A 
ATOM     20  C   UNL     1       1.215   2.022  -0.443  0.00  0.00    +0.055 A 
ATOM     21  C   UNL     1       0.023   1.316  -0.436  0.00  0.00    +0.163 A 
ATOM     22  C   UNL     1       0.002  -0.004   0.004  0.00  0.00    +0.177 A 
ATOM     23  C   UNL     1       1.174  -0.606   0.434  0.00  0.00    +0.086 A 
ATOM     24  C   UNL     1       2.361   0.105   0.424  0.00  0.00    +0.029 A 
ATOM     25 CL   UNL     1       1.153  -2.253   0.983  0.00  0.00    -0.080 Cl
BRANCH  22  26
ATOM     26  O   UNL     1      -1.166  -0.701   0.013  0.00  0.00    -0.502 OA
ATOM     27  H   UNL     1      -1.181  -1.744   0.361  0.00  0.00    +0.292 HD
ENDBRANCH  22  26
BRANCH  21  28
ATOM     28  O   UNL     1      -1.123   1.910  -0.864  0.00  0.00    -0.491 OA
ATOM     29  C   UNL     1      -1.027   3.267  -1.302  0.00  0.00    +0.277 C 
ENDBRANCH  21  28
ENDBRANCH   5  19
BRANCH   1  34
ATOM     30  C   UNL     1       5.958   3.706   7.291  0.00  0.00    +0.121 A 
ATOM     31  C   UNL     1       5.479   2.875   8.293  0.00  0.00    +0.049 A 
ATOM     32  C   UNL     1       4.642   1.823   7.975  0.00  0.00    +0.049 A 
ATOM     33  C   UNL     1       4.282   1.597   6.655  0.00  0.00    +0.124 A 
ATOM     34  C   UNL     1       4.762   2.428   5.654  0.00  0.00    +0.002 A 
ATOM     35  C   UNL     1       5.603   3.477   5.970  0.00  0.00    +0.053 A 
BRANCH  30  37
ATOM     36  C   UNL     1       7.112   4.915   8.983  0.00  0.00    +0.277 C 
ATOM     37  O   UNL     1       6.782   4.742   7.604  0.00  0.00    -0.495 OA
ENDBRANCH  30  37
BRANCH  33  38
ATOM     38  O   UNL     1       3.458   0.561   6.342  0.00  0.00    -0.495 OA
ATOM     39  C   UNL     1       3.002  -0.254   7.424  0.00  0.00    +0.277 C 
ENDBRANCH  33  38
ENDBRANCH   1  34
TORSDOF 6
