REMARK  Name = ZINC04571436
REMARK  6 active torsions:
REMARK  status: ('A' for Active; 'I' for Inactive)
REMARK    1  A    between atoms: C_1  and  C_2
REMARK    2  A    between atoms: C_11  and  O_25
REMARK    3  A    between atoms: C_13  and  C_16
REMARK    4  A    between atoms: C_19  and  O_23
REMARK    5  A    between atoms: C_20  and  O_22
REMARK    6  A    between atoms: O_23  and  C_24
REMARK                            x       y       z     vdW  Elec       q    Type
REMARK                         _______ _______ _______ _____ _____    ______ ____
ROOT
ATOM      1  C   UNL     1      -0.019   1.526   0.010  0.00  0.00    +0.008 C 
ATOM      2  C   UNL     1       0.002  -0.004   0.002  0.00  0.00    -0.009 C 
ATOM      3  C   UNL     1       0.724  -0.500  -1.254  0.00  0.00    +0.008 C 
ATOM      4  C   UNL     1       0.537  -2.012  -1.399  0.00  0.00    +0.037 C 
ATOM      5  C   UNL     1       0.939  -2.682  -0.093  0.00  0.00    -0.023 A 
ATOM      6  C   UNL     1       1.022  -1.976   1.058  0.00  0.00    -0.004 A 
ATOM      7  S   UNL     1       1.515  -3.161   2.281  0.00  0.00    -0.078 S 
ATOM      8  C   UNL     1       1.602  -4.516   1.329  0.00  0.00    +0.080 A 
ATOM      9  C   UNL     1       1.260  -4.091   0.040  0.00  0.00    +0.068 A 
ATOM     10  C   UNL     1       1.270  -5.109  -1.042  0.00  0.00    +0.220 C 
ATOM     11  N   UNL     1       1.347  -6.365  -0.692  0.00  0.00    -0.223 NA
ATOM     12  C   UNL     1       1.361  -6.839   0.686  0.00  0.00    +0.224 C 
ATOM     13  N   UNL     1       1.918  -5.828   1.603  0.00  0.00    -0.313 N 
ATOM     14  C   UNL     1       0.750  -0.515   1.242  0.00  0.00    +0.046 C 
ATOM     15  H   UNL     1       2.476  -6.073   2.358  0.00  0.00    +0.149 HD
ENDROOT
BRANCH  12  16
ATOM     16  C   UNL     1      -0.050  -7.161   1.109  0.00  0.00    -0.002 A 
ATOM     17  C   UNL     1      -0.421  -7.021   2.434  0.00  0.00    +0.011 A 
ATOM     18  C   UNL     1      -1.713  -7.315   2.827  0.00  0.00    +0.050 A 
ATOM     19  C   UNL     1      -2.640  -7.750   1.893  0.00  0.00    +0.161 A 
ATOM     20  C   UNL     1      -2.266  -7.891   0.560  0.00  0.00    +0.159 A 
ATOM     21  C   UNL     1      -0.970  -7.590   0.172  0.00  0.00    +0.056 A 
BRANCH  20  22
ATOM     22  O   UNL     1      -3.171  -8.318  -0.360  0.00  0.00    -0.503 OA
ATOM     23  H   UNL     1      -3.671  -7.605  -0.781  0.00  0.00    +0.292 HD
ENDBRANCH  20  22
BRANCH  19  24
ATOM     24  O   UNL     1      -3.911  -8.040   2.278  0.00  0.00    -0.491 OA
ATOM     25  C   UNL     1      -4.224  -7.874   3.663  0.00  0.00    +0.277 C 
ENDBRANCH  19  24
ENDBRANCH  12  16
BRANCH  10  26
ATOM     26  O   UNL     1       1.200  -4.748  -2.344  0.00  0.00    -0.492 OA
ATOM     27  H   UNL     1       1.214  -5.493  -2.960  0.00  0.00    +0.294 HD
ENDBRANCH  10  26
TORSDOF 4
