REMARK  Name = ZINC39324320
REMARK  9 active torsions:
REMARK  status: ('A' for Active; 'I' for Inactive)
REMARK    1  A    between atoms: C_1  and  C_2
REMARK    2  A    between atoms: C_2  and  C_3
REMARK    3  A    between atoms: C_2  and  C_4
REMARK    4  A    between atoms: C_5  and  C_21
REMARK    5  A    between atoms: C_6  and  C_14
REMARK    6  A    between atoms: C_8  and  C_12
REMARK    7  A    between atoms: C_9  and  N_11
REMARK    8  A    between atoms: C_21  and  O_23
REMARK    9  A    between atoms: O_23  and  C_24
REMARK                            x       y       z     vdW  Elec       q    Type
REMARK                         _______ _______ _______ _____ _____    ______ ____
ROOT
ATOM      1  C   UNL     1       0.755  -0.599   1.175  0.00  0.00    +0.121 C 
ATOM      2  C   UNL     1       0.055  -1.206   2.142  0.00  0.00    +0.087 C 
ATOM      3  C   UNL     1       0.707  -1.620   3.432  0.00  0.00    +0.107 C 
ATOM      4  C   UNL     1       2.028  -0.917   3.589  0.00  0.00    +0.098 C 
ATOM      5  C   UNL     1       2.626  -0.320   2.530  0.00  0.00    +0.198 C 
ATOM      6  O   UNL     1       2.065  -0.336   1.305  0.00  0.00    -0.445 OA
ENDROOT
BRANCH   3   7
ATOM      7  C   UNL     1       0.933  -3.110   3.422  0.00  0.00    +0.001 A 
ATOM      8  C   UNL     1       1.732  -3.682   2.450  0.00  0.00    +0.007 A 
ATOM      9  C   UNL     1       1.940  -5.048   2.441  0.00  0.00    +0.000 A 
ATOM     10  C   UNL     1       1.348  -5.845   3.405  0.00  0.00    +0.003 A 
ATOM     11  C   UNL     1       0.550  -5.275   4.378  0.00  0.00    +0.038 A 
ATOM     12  C   UNL     1       0.345  -3.906   4.391  0.00  0.00    +0.127 A 
ATOM     13  F   UNL     1      -0.432  -3.347   5.345  0.00  0.00    -0.205 F 
ENDBRANCH   3   7
BRANCH   1  15
ATOM     14  C   UNL     1       0.058   1.320  -0.233  0.00  0.00    +0.015 C 
ATOM     15  C   UNL     1       0.054  -0.204  -0.099  0.00  0.00    +0.050 C 
ATOM     16  C   UNL     1       0.781  -0.823  -1.295  0.00  0.00    +0.015 C 
ENDBRANCH   1  15
BRANCH   5  17
ATOM     17  N   UNL     1       3.831   0.312   2.708  0.00  0.00    -0.328 N 
ATOM     18  H   UNL     1       4.246   0.328   3.585  0.00  0.00    +0.145 HD
ATOM     19  H   UNL     1       4.269   0.744   1.957  0.00  0.00    +0.145 HD
ENDBRANCH   5  17
BRANCH   4  20
ATOM     20  C   UNL     1       2.661  -0.879   4.873  0.00  0.00    +0.101 C 
ATOM     21  N   UNL     1       3.163  -0.849   5.891  0.00  0.00    -0.191 NA
ENDBRANCH   4  20
BRANCH   2  22
ATOM     22  C   UNL     1      -1.324  -1.461   1.945  0.00  0.00    +0.339 C 
ATOM     23  O   UNL     1      -2.156  -0.728   2.446  0.00  0.00    -0.245 OA
BRANCH  22  24
ATOM     24  O   UNL     1      -1.716  -2.518   1.203  0.00  0.00    -0.465 OA
ATOM     25  C   UNL     1      -3.122  -2.716   1.047  0.00  0.00    +0.280 C 
ENDBRANCH  22  24
ENDBRANCH   2  22
TORSDOF 6
