REMARK  Name = ZINC08567135
REMARK  10 active torsions:
REMARK  status: ('A' for Active; 'I' for Inactive)
REMARK    1  A    between atoms: C_1  and  C_2
REMARK    2  A    between atoms: C_6  and  C_25
REMARK    3  A    between atoms: C_7  and  O_8
REMARK    4  A    between atoms: O_8  and  C_9
REMARK    5  A    between atoms: C_9  and  C_11
REMARK    6  A    between atoms: C_9  and  C_12
REMARK    7  A    between atoms: N_14  and  C_15
REMARK    8  A    between atoms: C_20  and  C_21
REMARK    9  A    between atoms: C_21  and  O_23
REMARK   10  A    between atoms: O_23  and  C_24
REMARK                            x       y       z     vdW  Elec       q    Type
REMARK                         _______ _______ _______ _____ _____    ______ ____
ROOT
ATOM      1  C   UNL     1      -4.140   5.289  -1.561  0.00  0.00    +0.258 C 
ATOM      2  O   UNL     1      -4.265   5.897  -0.519  0.00  0.00    -0.271 OA
ATOM      3  N   UNL     1      -4.398   5.901  -2.733  0.00  0.00    -0.282 N 
ATOM      4  H   UNL     1      -4.224   5.441  -3.569  0.00  0.00    +0.155 HD
ENDROOT
BRANCH   3   5
ATOM      5  C   UNL     1      -4.915   7.194  -2.745  0.00  0.00    +0.048 A 
ATOM      6  C   UNL     1      -5.689   7.646  -1.685  0.00  0.00    +0.024 A 
ATOM      7  C   UNL     1      -6.196   8.930  -1.696  0.00  0.00    +0.002 A 
ATOM      8  C   UNL     1      -5.946   9.773  -2.767  0.00  0.00    +0.001 A 
ATOM      9  C   UNL     1      -5.184   9.341  -3.830  0.00  0.00    +0.017 A 
ATOM     10  C   UNL     1      -4.660   8.046  -3.831  0.00  0.00    +0.080 A 
BRANCH  10  11
ATOM     11  C   UNL     1      -3.845   7.577  -4.966  0.00  0.00    +0.341 C 
ATOM     12  O   UNL     1      -3.304   6.489  -4.917  0.00  0.00    -0.245 OA
BRANCH  11  13
ATOM     13  O   UNL     1      -3.699   8.353  -6.057  0.00  0.00    -0.464 OA
ATOM     14  C   UNL     1      -2.882   7.827  -7.136  0.00  0.00    +0.280 C 
ENDBRANCH  11  13
ENDBRANCH  10  11
ENDBRANCH   3   5
BRANCH   1  15
ATOM     15  C   UNL     1      -3.695   3.850  -1.544  0.00  0.00    +0.256 C 
ATOM     16  C   UNL     1      -4.773   2.975  -2.188  0.00  0.00    +0.062 C 
BRANCH  15  17
ATOM     17  O   UNL     1      -3.486   3.431  -0.194  0.00  0.00    -0.479 OA
BRANCH  17  24
ATOM     18  C   UNL     1      -0.909   4.556   0.078  0.00  0.00    +0.047 C 
ATOM     19  C   UNL     1      -1.163   3.074   0.178  0.00  0.00    -0.007 A 
ATOM     20  C   UNL     1      -0.113   2.207   0.406  0.00  0.00    +0.022 A 
ATOM     21  C   UNL     1      -0.346   0.847   0.503  0.00  0.00    +0.019 A 
ATOM     22  C   UNL     1      -1.631   0.352   0.366  0.00  0.00    +0.022 A 
ATOM     23  C   UNL     1      -2.683   1.216   0.133  0.00  0.00    -0.007 A 
ATOM     24  C   UNL     1      -2.451   2.580   0.035  0.00  0.00    +0.127 A 
ATOM     25  C   UNL     1      -4.083   0.676  -0.015  0.00  0.00    +0.047 C 
ATOM     26 BR   UNL     1       1.093  -0.338   0.823  0.00  0.00    -0.050 Br
ENDBRANCH  17  24
ENDBRANCH  15  17
ENDBRANCH   1  15
TORSDOF 6
