REMARK  Name = ZINC16900808
REMARK  9 active torsions:
REMARK  status: ('A' for Active; 'I' for Inactive)
REMARK    1  A    between atoms: C_1  and  C_2
REMARK    2  A    between atoms: C_2  and  C_3
REMARK    3  A    between atoms: C_6  and  N_8
REMARK    4  A    between atoms: N_8  and  S_9
REMARK    5  A    between atoms: S_9  and  C_12
REMARK    6  A    between atoms: C_15  and  N_18
REMARK    7  A    between atoms: C_22  and  S_26
REMARK    8  A    between atoms: S_26  and  C_27
REMARK    9  A    between atoms: C_27  and  C_28
REMARK                            x       y       z     vdW  Elec       q    Type
REMARK                         _______ _______ _______ _____ _____    ______ ____
ROOT
ATOM      1  C   UNL     1       2.377   1.415  -0.013  0.00  0.00    +0.111 A 
ATOM      2  C   UNL     1       1.171   2.089  -0.045  0.00  0.00    +0.031 A 
ATOM      3  C   UNL     1      -0.017   1.383  -0.038  0.00  0.00    +0.026 A 
ATOM      4  C   UNL     1       0.002  -0.004   0.002  0.00  0.00    +0.044 A 
ATOM      5  C   UNL     1       1.215  -0.678   0.034  0.00  0.00    +0.026 A 
ATOM      6  C   UNL     1       2.399   0.033   0.027  0.00  0.00    +0.031 A 
ENDROOT
BRANCH   4   7
ATOM      7  N   UNL     1      -1.202  -0.723   0.010  0.00  0.00    -0.209 N 
ATOM      8  C   UNL     1      -1.593  -1.493  -1.013  0.00  0.00    +0.228 C 
ATOM      9  O   UNL     1      -0.975  -1.660  -2.042  0.00  0.00    -0.275 OA
ATOM     10  C   UNL     1      -2.926  -2.125  -0.679  0.00  0.00    +0.120 C 
ATOM     11  C   UNL     1      -3.247  -1.573   0.725  0.00  0.00    +0.142 C 
ATOM     12  C   UNL     1      -2.057  -0.691   1.039  0.00  0.00    +0.240 C 
ATOM     13  O   UNL     1      -1.904  -0.057   2.061  0.00  0.00    -0.274 OA
BRANCH  11  14
ATOM     14  S   UNL     1      -3.376  -2.924   1.928  0.00  0.00    -0.136 S 
BRANCH  14  15
ATOM     15  C   UNL     1      -3.768  -2.086   3.488  0.00  0.00    +0.194 C 
BRANCH  15  16
ATOM     16  C   UNL     1      -3.904  -3.109   4.587  0.00  0.00    +0.366 C 
ATOM     17  O   UNL     1      -3.752  -4.282   4.343  0.00  0.00    -0.245 OA
ATOM     18  O   UNL     1      -4.194  -2.716   5.837  0.00  0.00    -0.245 OA
ENDBRANCH  15  16
ENDBRANCH  14  15
ENDBRANCH  11  14
ENDBRANCH   4   7
BRANCH   1  19
ATOM     19  S   UNL     1       3.890   2.318  -0.022  0.00  0.00    +0.094 S 
ATOM     20  O   UNL     1       3.594   3.610   0.490  0.00  0.00    -0.148 OA
ATOM     21  O   UNL     1       4.871   1.473   0.564  0.00  0.00    -0.148 OA
BRANCH  19  22
ATOM     22  N   UNL     1       4.328   2.525  -1.605  0.00  0.00    -0.068 NA
BRANCH  22  26
ATOM     23  C   UNL     1       2.271   4.686  -4.330  0.00  0.00    +0.104 A 
ATOM     24  N   UNL     1       1.812   4.601  -3.098  0.00  0.00    -0.145 NA
ATOM     25  N   UNL     1       2.406   3.938  -2.204  0.00  0.00    -0.123 NA
ATOM     26  C   UNL     1       3.538   3.292  -2.449  0.00  0.00    +0.224 A 
ATOM     27  S   UNL     1       3.751   3.689  -4.181  0.00  0.00    -0.032 S 
BRANCH  23  29
ATOM     28  C   UNL     1       2.275   6.836  -5.565  0.00  0.00    +0.011 C 
ATOM     29  C   UNL     1       1.710   5.415  -5.524  0.00  0.00    +0.061 C 
ENDBRANCH  23  29
ENDBRANCH  22  26
ENDBRANCH  19  22
ENDBRANCH   1  19
TORSDOF 8
