REMARK  Name = ZINC06348456
REMARK  7 active torsions:
REMARK  status: ('A' for Active; 'I' for Inactive)
REMARK    1  A    between atoms: C_1  and  C_2
REMARK    2  A    between atoms: C_3  and  C_19
REMARK    3  A    between atoms: C_4  and  C_10
REMARK    4  A    between atoms: C_13  and  C_16
REMARK    5  A    between atoms: C_16  and  C_17
REMARK    6  A    between atoms: C_16  and  C_18
REMARK    7  A    between atoms: N_21  and  C_22
REMARK                            x       y       z     vdW  Elec       q    Type
REMARK                         _______ _______ _______ _____ _____    ______ ____
ROOT
ATOM      1  C   UNL     1      -5.319   5.005   4.319  0.00  0.00    +0.061 C 
ATOM      2  C   UNL     1      -3.936   4.450   4.540  0.00  0.00    +0.017 C 
ATOM      3  C   UNL     1      -3.658   3.186   4.159  0.00  0.00    +0.056 C 
ATOM      4  C   UNL     1      -2.255   2.668   4.399  0.00  0.00    +0.139 C 
ATOM      5  N   UNL     1      -1.302   3.594   5.035  0.00  0.00    -0.315 N 
ATOM      6  C   UNL     1      -1.729   4.830   5.360  0.00  0.00    +0.135 C 
ATOM      7  S   UNL     1      -0.632   5.917   6.099  0.00  0.00    -0.019 S 
ATOM      8  N   UNL     1      -2.983   5.236   5.124  0.00  0.00    -0.300 N 
ATOM      9  H   UNL     1      -0.389   3.320   5.215  0.00  0.00    +0.149 HD
ATOM     10  H   UNL     1      -3.228   6.138   5.382  0.00  0.00    +0.154 HD
ENDROOT
BRANCH   4  11
ATOM     11  C   UNL     1      -1.680   2.248   3.071  0.00  0.00    -0.023 A 
ATOM     12  C   UNL     1      -1.923   0.978   2.583  0.00  0.00    +0.006 A 
ATOM     13  C   UNL     1      -1.395   0.594   1.364  0.00  0.00    +0.004 A 
ATOM     14  C   UNL     1      -0.626   1.480   0.633  0.00  0.00    -0.045 A 
ATOM     15  C   UNL     1      -0.380   2.748   1.124  0.00  0.00    +0.004 A 
ATOM     16  C   UNL     1      -0.910   3.134   2.340  0.00  0.00    +0.006 A 
BRANCH  14  17
ATOM     17  C   UNL     1      -0.051   1.060  -0.695  0.00  0.00    +0.013 C 
ATOM     18  C   UNL     1       1.475   1.151  -0.642  0.00  0.00    +0.012 C 
ATOM     19  C   UNL     1      -0.579   1.985  -1.794  0.00  0.00    +0.012 C 
ENDBRANCH  14  17
ENDBRANCH   4  11
BRANCH   3  20
ATOM     20  C   UNL     1      -4.646   2.371   3.553  0.00  0.00    +0.248 C 
ATOM     21  O   UNL     1      -5.049   1.375   4.127  0.00  0.00    -0.270 OA
ATOM     22  N   UNL     1      -5.138   2.696   2.342  0.00  0.00    -0.282 N 
ATOM     23  H   UNL     1      -4.895   3.541   1.930  0.00  0.00    +0.155 HD
BRANCH  22  24
ATOM     24  C   UNL     1      -6.001   1.817   1.677  0.00  0.00    +0.034 A 
ATOM     25  C   UNL     1      -6.848   0.991   2.405  0.00  0.00    +0.026 A 
ATOM     26  C   UNL     1      -7.701   0.127   1.748  0.00  0.00    +0.040 A 
ATOM     27  C   UNL     1      -7.707   0.077   0.364  0.00  0.00    +0.124 A 
ATOM     28  C   UNL     1      -6.860   0.896  -0.364  0.00  0.00    +0.040 A 
ATOM     29  C   UNL     1      -6.008   1.765   0.290  0.00  0.00    +0.026 A 
ATOM     30  F   UNL     1      -8.539  -0.772  -0.277  0.00  0.00    -0.205 F 
ENDBRANCH  22  24
ENDBRANCH   3  20
TORSDOF 4
