REMARK  Name = ZINC38546370
REMARK  11 active torsions:
REMARK  status: ('A' for Active; 'I' for Inactive)
REMARK    1  A    between atoms: C_1  and  C_2
REMARK    2  A    between atoms: C_2  and  O_3
REMARK    3  A    between atoms: O_3  and  C_4
REMARK    4  A    between atoms: C_4  and  C_6
REMARK    5  A    between atoms: N_9  and  C_12
REMARK    6  A    between atoms: C_12  and  C_14
REMARK    7  A    between atoms: C_12  and  C_21
REMARK    8  A    between atoms: C_17  and  C_20
REMARK    9  A    between atoms: C_23  and  C_34
REMARK   10  A    between atoms: C_25  and  N_26
REMARK   11  A    between atoms: C_27  and  C_29
REMARK                            x       y       z     vdW  Elec       q    Type
REMARK                         _______ _______ _______ _____ _____    ______ ____
ROOT
ATOM      1  C   UNL     1       4.369  -4.570  -4.747  0.00  0.00    -0.004 C 
ENDROOT
BRANCH   1   5
ATOM      2  C   UNL     1       1.468  -2.353  -2.550  0.00  0.00    +0.094 C 
ATOM      3  C   UNL     1       2.921  -1.871  -2.579  0.00  0.00    -0.004 C 
ATOM      4  C   UNL     1       3.640  -2.506  -3.772  0.00  0.00    -0.077 C 
ATOM      5  N   UNL     1       3.611  -3.968  -3.642  0.00  0.00    +0.387 N 
ATOM      6  C   UNL     1       2.223  -4.444  -3.685  0.00  0.00    -0.077 C 
ATOM      7  C   UNL     1       1.450  -3.884  -2.490  0.00  0.00    -0.004 C 
ATOM      8  H   UNL     1       4.030  -4.235  -2.764  0.00  0.00    -0.080 HD
BRANCH   2   9
ATOM      9  C   UNL     1       0.775  -1.794  -1.334  0.00  0.00    +0.310 C 
ATOM     10  O   UNL     1       0.314  -2.540  -0.504  0.00  0.00    -0.251 OA
BRANCH   9  11
ATOM     11  O   UNL     1       0.671  -0.465  -1.174  0.00  0.00    -0.465 OA
BRANCH  11  13
ATOM     12  C   UNL     1      -0.019   1.526   0.010  0.00  0.00    +0.048 C 
ATOM     13  C   UNL     1       0.002  -0.004   0.002  0.00  0.00    +0.229 C 
ENDBRANCH  11  13
ENDBRANCH   9  11
ENDBRANCH   2   9
ENDBRANCH   1   5
BRANCH   1  14
ATOM     14  C   UNL     1       4.340  -6.071  -4.616  0.00  0.00    -0.057 A 
ATOM     15  C   UNL     1       4.454  -6.659  -3.369  0.00  0.00    +0.002 A 
ATOM     16  C   UNL     1       4.428  -8.035  -3.249  0.00  0.00    +0.003 A 
ATOM     17  C   UNL     1       4.287  -8.825  -4.375  0.00  0.00    -0.050 A 
ATOM     18  C   UNL     1       4.173  -8.238  -5.621  0.00  0.00    +0.003 A 
ATOM     19  C   UNL     1       4.194  -6.861  -5.741  0.00  0.00    +0.002 A 
ATOM     20  C   UNL     1       4.260 -10.326  -4.244  0.00  0.00    +0.044 C 
ENDBRANCH   1  14
BRANCH   1  21
ATOM     21  C   UNL     1       5.796  -4.089  -4.699  0.00  0.00    -0.028 A 
ATOM     22  C   UNL     1       6.357  -3.667  -3.507  0.00  0.00    +0.015 A 
ATOM     23  C   UNL     1       7.642  -3.241  -3.499  0.00  0.00    -0.011 A 
ATOM     24  S   UNL     1       8.108  -3.428  -5.212  0.00  0.00    -0.078 S 
ATOM     25  C   UNL     1       6.559  -4.067  -5.827  0.00  0.00    +0.074 A 
ATOM     26  C   UNL     1       8.467  -2.738  -2.342  0.00  0.00    +0.051 C 
BRANCH  25  27
ATOM     27  N   UNL     1       6.218  -4.444  -7.128  0.00  0.00    -0.273 N 
ATOM     28  C   UNL     1       7.126  -4.346  -8.118  0.00  0.00    +0.284 C 
ATOM     29  O   UNL     1       8.244  -3.929  -7.880  0.00  0.00    -0.266 OA
ATOM     30  H   UNL     1       5.327  -4.777  -7.318  0.00  0.00    +0.156 HD
BRANCH  28  31
ATOM     31  C   UNL     1       6.768  -4.742  -9.484  0.00  0.00    +0.189 A 
ATOM     32  C   UNL     1       7.589  -4.699 -10.574  0.00  0.00    +0.054 A 
ATOM     33  C   UNL     1       6.838  -5.167 -11.664  0.00  0.00    +0.042 A 
ATOM     34  C   UNL     1       5.607  -5.472 -11.197  0.00  0.00    +0.196 A 
ATOM     35  O   UNL     1       5.570  -5.219  -9.882  0.00  0.00    -0.458 OA
ENDBRANCH  28  31
ENDBRANCH  25  27
ENDBRANCH   1  21
TORSDOF 8
