REMARK  Name = ZINC14475702
REMARK  3 active torsions:
REMARK  status: ('A' for Active; 'I' for Inactive)
REMARK    1  A    between atoms: C_3  and  O_27
REMARK    2  A    between atoms: C_4  and  C_10
REMARK    3  A    between atoms: C_6  and  N_7
REMARK                            x       y       z     vdW  Elec       q    Type
REMARK                         _______ _______ _______ _____ _____    ______ ____
ROOT
ATOM      1  C   UNL     1       3.710  -0.717  -0.038  0.00  0.00    +0.108 C 
ATOM      2  C   UNL     1       4.219  -0.913   1.379  0.00  0.00    +0.029 C 
ATOM      3  C   UNL     1       4.361   0.340   2.252  0.00  0.00    +0.033 C 
ATOM      4  C   UNL     1       4.136  -0.233   3.653  0.00  0.00    -0.030 C 
ATOM      5  C   UNL     1       3.398  -1.334   3.579  0.00  0.00    -0.023 C 
ATOM      6  C   UNL     1       3.052  -1.599   2.150  0.00  0.00    +0.049 C 
ATOM      7  C   UNL     1       2.886  -2.962   1.600  0.00  0.00    -0.018 A 
ATOM      8  C   UNL     1       2.521  -4.036   2.384  0.00  0.00    +0.021 A 
ATOM      9  C   UNL     1       2.366  -5.290   1.820  0.00  0.00    +0.018 A 
ATOM     10  C   UNL     1       2.576  -5.469   0.464  0.00  0.00    +0.017 A 
ATOM     11  C   UNL     1       2.946  -4.401  -0.327  0.00  0.00    +0.024 A 
ATOM     12  C   UNL     1       3.112  -3.139   0.231  0.00  0.00    +0.031 A 
ATOM     13  N   UNL     1       3.524  -2.077  -0.589  0.00  0.00    -0.336 N 
ATOM     14 BR   UNL     1       1.867  -6.758   2.903  0.00  0.00    -0.050 Br
ATOM     15  H   UNL     1       3.691  -2.236  -1.531  0.00  0.00    +0.147 HD
ENDROOT
BRANCH   1  19
ATOM     16  C   UNL     1      -0.017   1.378   0.010  0.00  0.00    +0.036 A 
ATOM     17  C   UNL     1       1.170   2.086   0.002  0.00  0.00    +0.048 A 
ATOM     18  C   UNL     1       2.380   1.409  -0.013  0.00  0.00    +0.122 A 
ATOM     19  C   UNL     1       2.396   0.022  -0.021  0.00  0.00    +0.017 A 
ATOM     20  C   UNL     1       1.208  -0.681  -0.013  0.00  0.00    +0.041 A 
ATOM     21  C   UNL     1       0.002  -0.004   0.002  0.00  0.00    +0.127 A 
BRANCH  21  22
ATOM     22  N   UNL     1      -1.270  -0.760   0.011  0.00  0.00    +0.056 N 
ATOM     23  O   UNL     1      -2.325  -0.169   0.024  0.00  0.00    -0.126 OA
ATOM     24  O   UNL     1      -1.255  -1.969   0.004  0.00  0.00    -0.126 OA
ENDBRANCH  21  22
BRANCH  18  25
ATOM     25  O   UNL     1       3.548   2.104  -0.021  0.00  0.00    -0.506 OA
ATOM     26  H   UNL     1       3.895   2.300   0.860  0.00  0.00    +0.292 HD
ENDBRANCH  18  25
ENDBRANCH   1  19
TORSDOF 3
