REMARK  Name = ZINC31077480
REMARK  13 active torsions:
REMARK  status: ('A' for Active; 'I' for Inactive)
REMARK    1  A    between atoms: C_1  and  C_2
REMARK    2  A    between atoms: C_2  and  C_3
REMARK    3  A    between atoms: C_2  and  C_4
REMARK    4  A    between atoms: C_4  and  C_6
REMARK    5  A    between atoms: C_4  and  N_26
REMARK    6  A    between atoms: N_8  and  C_9
REMARK    7  A    between atoms: C_9  and  C_10
REMARK    8  A    between atoms: C_15  and  C_16
REMARK    9  A    between atoms: C_19  and  C_22
REMARK   10  A    between atoms: C_22  and  N_23
REMARK   11  A    between atoms: N_23  and  C_24
REMARK   12  A    between atoms: N_23  and  C_25
REMARK   13  A    between atoms: C_27  and  C_29
REMARK                            x       y       z     vdW  Elec       q    Type
REMARK                         _______ _______ _______ _____ _____    ______ ____
ROOT
ATOM      1  C   UNL     1      -3.233  -4.405   0.881  0.00  0.00    +0.234 C 
ATOM      2  O   UNL     1      -2.039  -4.603   0.966  0.00  0.00    -0.274 OA
ATOM      3  N   UNL     1      -4.101  -5.281   1.424  0.00  0.00    -0.310 N 
ATOM      4  H   UNL     1      -5.183  -5.149   1.273  0.00  0.00    +0.149 HD
ENDROOT
BRANCH   1   5
ATOM      5  C   UNL     1      -3.745  -3.180   0.169  0.00  0.00    +0.162 C 
BRANCH   5   6
ATOM      6  N   UNL     1      -2.673  -2.186   0.074  0.00  0.00    -0.300 N 
ATOM      7  C   UNL     1      -2.975  -0.878  -0.043  0.00  0.00    +0.247 C 
ATOM      8  O   UNL     1      -4.137  -0.522  -0.070  0.00  0.00    -0.270 OA
ATOM      9  H   UNL     1      -1.621  -2.508   0.099  0.00  0.00    +0.150 HD
BRANCH   7  10
ATOM     10  C   UNL     1      -1.894   0.124  -0.139  0.00  0.00    +0.072 A 
ATOM     11  C   UNL     1      -0.558  -0.280  -0.108  0.00  0.00    +0.016 A 
ATOM     12  C   UNL     1       0.447   0.660  -0.199  0.00  0.00    +0.001 A 
ATOM     13  C   UNL     1       0.135   2.003  -0.320  0.00  0.00    +0.003 A 
ATOM     14  C   UNL     1      -1.185   2.413  -0.350  0.00  0.00    +0.039 A 
ATOM     15  C   UNL     1      -2.204   1.482  -0.261  0.00  0.00    +0.135 A 
ATOM     16  F   UNL     1      -3.493   1.883  -0.297  0.00  0.00    -0.205 F 
ENDBRANCH   7  10
ENDBRANCH   5   6
BRANCH   5  18
ATOM     17  C   UNL     1      -5.398  -4.523  -1.137  0.00  0.00    +0.009 C 
ATOM     18  C   UNL     1      -4.210  -3.564  -1.237  0.00  0.00    +0.012 C 
ATOM     19  C   UNL     1      -4.634  -2.305  -1.996  0.00  0.00    +0.009 C 
ENDBRANCH   5  18
ENDBRANCH   1   5
BRANCH   3  20
ATOM     20  C   UNL     1      -3.604  -6.410   2.216  0.00  0.00    +0.140 C 
BRANCH  20  21
ATOM     21  C   UNL     1      -4.770  -7.160   2.807  0.00  0.00    -0.023 A 
ATOM     22  C   UNL     1      -5.139  -8.385   2.288  0.00  0.00    +0.006 A 
ATOM     23  C   UNL     1      -6.208  -9.075   2.830  0.00  0.00    +0.000 A 
ATOM     24  C   UNL     1      -6.912  -8.543   3.895  0.00  0.00    +0.001 A 
ATOM     25  C   UNL     1      -6.552  -7.319   4.422  0.00  0.00    +0.009 A 
ATOM     26  C   UNL     1      -5.473  -6.622   3.883  0.00  0.00    -0.013 A 
BRANCH  26  27
ATOM     27  C   UNL     1      -5.077  -5.309   4.449  0.00  0.00    -0.018 A 
ATOM     28  C   UNL     1      -3.777  -5.109   4.909  0.00  0.00    +0.009 A 
ATOM     29  C   UNL     1      -3.412  -3.884   5.429  0.00  0.00    +0.002 A 
ATOM     30  C   UNL     1      -4.338  -2.859   5.505  0.00  0.00    -0.064 A 
ATOM     31  C   UNL     1      -5.631  -3.053   5.055  0.00  0.00    +0.002 A 
ATOM     32  C   UNL     1      -6.005  -4.272   4.527  0.00  0.00    +0.009 A 
BRANCH  30  33
ATOM     33  C   UNL     1      -3.935  -1.525   6.080  0.00  0.00    -0.044 C 
BRANCH  33  34
ATOM     34  N   UNL     1      -4.179  -1.523   7.529  0.00  0.00    +0.379 N 
ATOM     35  C   UNL     1      -3.297  -2.479   8.213  0.00  0.00    -0.096 C 
ATOM     36  C   UNL     1      -4.025  -0.173   8.087  0.00  0.00    -0.096 C 
ATOM     37  H   UNL     1      -5.218  -1.841   7.697  0.00  0.00    -0.082 HD
ENDBRANCH  33  34
ENDBRANCH  30  33
ENDBRANCH  26  27
ENDBRANCH  20  21
ENDBRANCH   3  20
TORSDOF 9
