REMARK  Name = ZINC63480119
REMARK  4 active torsions:
REMARK  status: ('A' for Active; 'I' for Inactive)
REMARK    1  A    between atoms: C_7  and  C_10
REMARK    2  A    between atoms: C_10  and  C_11
REMARK    3  A    between atoms: N_19  and  C_22
REMARK    4  A    between atoms: C_26  and  N_28
REMARK                            x       y       z     vdW  Elec       q    Type
REMARK                         _______ _______ _______ _____ _____    ______ ____
ROOT
ATOM      1  C   UNL     1       0.457  -3.653  -1.462  0.00  0.00    +0.072 C 
ATOM      2  C   UNL     1      -0.428  -4.896  -1.497  0.00  0.00    +0.107 C 
ATOM      3  C   UNL     1       0.623  -5.913  -0.916  0.00  0.00    +0.123 C 
ATOM      4  C   UNL     1      -0.211  -7.031  -0.547  0.00  0.00    +0.233 C 
ATOM      5  O   UNL     1       0.079  -8.208  -0.572  0.00  0.00    -0.274 OA
ATOM      6  N   UNL     1      -1.405  -6.470  -0.162  0.00  0.00    -0.210 N 
ATOM      7  C   UNL     1      -1.492  -5.125  -0.470  0.00  0.00    +0.232 C 
ATOM      8  O   UNL     1      -2.257  -4.304  -0.010  0.00  0.00    -0.274 OA
ATOM      9  C   UNL     1       1.893  -5.577  -1.552  0.00  0.00    +0.136 C 
ATOM     10  N   UNL     1       1.729  -4.177  -2.074  0.00  0.00    -0.295 NA
ATOM     11  C   UNL     1       3.086  -5.606  -0.630  0.00  0.00    +0.003 A 
ATOM     12  C   UNL     1       3.361  -4.991   0.571  0.00  0.00    +0.008 A 
ATOM     13  C   UNL     1       4.574  -5.211   1.198  0.00  0.00    +0.000 A 
ATOM     14  C   UNL     1       5.508  -6.050   0.617  0.00  0.00    +0.002 A 
ATOM     15  C   UNL     1       5.235  -6.668  -0.586  0.00  0.00    +0.023 A 
ATOM     16  C   UNL     1       4.015  -6.452  -1.224  0.00  0.00    +0.039 A 
ATOM     17  N   UNL     1       3.513  -6.953  -2.425  0.00  0.00    -0.283 N 
ATOM     18  C   UNL     1       2.278  -6.492  -2.692  0.00  0.00    +0.243 C 
ATOM     19  O   UNL     1       1.602  -6.760  -3.662  0.00  0.00    -0.273 OA
ATOM     20  H   UNL     1       1.672  -4.178  -3.081  0.00  0.00    +0.124 HD
ATOM     21  H   UNL     1       3.998  -7.563  -3.002  0.00  0.00    +0.155 HD
ENDROOT
BRANCH   6  22
ATOM     22  C   UNL     1      -2.434  -7.186   0.466  0.00  0.00    +0.046 A 
ATOM     23  C   UNL     1      -2.275  -8.539   0.737  0.00  0.00    +0.024 A 
ATOM     24  C   UNL     1      -3.290  -9.241   1.356  0.00  0.00    +0.004 A 
ATOM     25  C   UNL     1      -4.464  -8.599   1.706  0.00  0.00    +0.033 A 
ATOM     26  C   UNL     1      -4.625  -7.252   1.437  0.00  0.00    +0.128 A 
ATOM     27  C   UNL     1      -3.611  -6.543   0.824  0.00  0.00    +0.056 A 
BRANCH  26  28
ATOM     28  N   UNL     1      -5.883  -6.569   1.813  0.00  0.00    +0.056 N 
ATOM     29  O   UNL     1      -6.769  -7.188   2.355  0.00  0.00    -0.126 OA
ATOM     30  O   UNL     1      -6.024  -5.391   1.578  0.00  0.00    -0.126 OA
ENDBRANCH  26  28
ENDBRANCH   6  22
BRANCH   1  31
ATOM     31  C   UNL     1       0.691  -3.186  -0.024  0.00  0.00    +0.052 C 
BRANCH  31  38
ATOM     32  C   UNL     1      -0.121   1.331   0.032  0.00  0.00    +0.001 A 
ATOM     33  C   UNL     1       1.043   2.111   0.019  0.00  0.00    +0.002 A 
ATOM     34  C   UNL     1       2.281   1.573  -0.007  0.00  0.00    +0.026 A 
ATOM     35  C   UNL     1       2.452   0.162  -0.023  0.00  0.00    +0.043 A 
ATOM     36  N   UNL     1       3.527  -0.588  -0.049  0.00  0.00    -0.380 N 
ATOM     37  C   UNL     1       3.116  -1.996  -0.055  0.00  0.00    +0.144 C 
ATOM     38  C   UNL     1       1.604  -1.987  -0.028  0.00  0.00    -0.040 C 
ATOM     39  C   UNL     1       1.237  -0.685  -0.009  0.00  0.00    -0.001 A 
ATOM     40  C   UNL     1      -0.071  -0.021   0.019  0.00  0.00    +0.010 A 
ATOM     41  H   UNL     1       4.442  -0.265  -0.062  0.00  0.00    +0.160 HD
ENDBRANCH  31  38
ENDBRANCH   1  31
TORSDOF 4
