REMARK  Name = ZINC02408237
REMARK  10 active torsions:
REMARK  status: ('A' for Active; 'I' for Inactive)
REMARK    1  A    between atoms: C_1  and  C_2
REMARK    2  A    between atoms: C_10  and  C_27
REMARK    3  A    between atoms: C_11  and  N_12
REMARK    4  A    between atoms: C_13  and  C_15
REMARK    5  A    between atoms: C_15  and  N_60
REMARK    6  A    between atoms: C_17  and  C_26
REMARK    7  A    between atoms: C_22  and  C_24
REMARK    8  A    between atoms: C_22  and  C_25
REMARK    9  A    between atoms: C_27  and  O_29
REMARK   10  A    between atoms: O_29  and  C_30
REMARK                            x       y       z     vdW  Elec       q    Type
REMARK                         _______ _______ _______ _____ _____    ______ ____
ROOT
ATOM      1  N   UNL     1      -3.793   1.337   3.310  0.00  0.00    -0.285 N 
ATOM      2  C   UNL     1      -2.885   1.961   2.533  0.00  0.00    +0.201 C 
ATOM      3  O   UNL     1      -2.414   3.022   2.884  0.00  0.00    -0.278 OA
ATOM      4  H   UNL     1      -4.242   0.540   2.987  0.00  0.00    +0.155 HD
ENDROOT
BRANCH   1  15
ATOM      5  C   UNL     1      -1.240   2.741   9.438  0.00  0.00    +0.044 C 
ATOM      6  C   UNL     1      -1.925   2.475   8.122  0.00  0.00    -0.048 A 
ATOM      7  C   UNL     1      -1.200   1.935   7.067  0.00  0.00    +0.004 A 
ATOM      8  C   UNL     1      -1.803   1.686   5.868  0.00  0.00    +0.012 A 
ATOM      9  C   UNL     1      -3.160   1.977   5.698  0.00  0.00    +0.022 A 
ATOM     10  C   UNL     1      -3.899   2.524   6.764  0.00  0.00    +0.049 A 
ATOM     11  C   UNL     1      -3.261   2.769   7.978  0.00  0.00    +0.029 A 
ATOM     12  N   UNL     1      -5.191   2.711   6.332  0.00  0.00    -0.348 N 
ATOM     13  H   UNL     1      -5.911   3.076   6.870  0.00  0.00    +0.166 HD
ATOM     14  C   UNL     1      -5.311   2.304   5.011  0.00  0.00    +0.147 A 
ATOM     15  C   UNL     1      -4.088   1.837   4.574  0.00  0.00    +0.073 A 
BRANCH  14  16
ATOM     16  C   UNL     1      -6.498   2.357   4.237  0.00  0.00    +0.357 C 
ATOM     17  O   UNL     1      -6.458   2.112   3.046  0.00  0.00    -0.243 OA
BRANCH  16  18
ATOM     18  O   UNL     1      -7.671   2.679   4.821  0.00  0.00    -0.463 OA
ATOM     19  C   UNL     1      -8.826   2.713   3.981  0.00  0.00    +0.280 C 
ENDBRANCH  16  18
ENDBRANCH  14  16
ENDBRANCH   1  15
BRANCH   2  20
ATOM     20  C   UNL     1      -2.455   1.339   1.230  0.00  0.00    +0.019 C 
BRANCH  20  31
ATOM     21  C   UNL     1      -1.995   3.515   0.194  0.00  0.00    -0.071 C 
ATOM     22  C   UNL     1      -1.347   3.848  -1.171  0.00  0.00    -0.048 C 
ATOM     23  C   UNL     1      -0.148   2.863  -1.258  0.00  0.00    -0.011 C 
ATOM     24  C   UNL     1      -0.793   1.619  -0.584  0.00  0.00    -0.067 C 
ATOM     25  C   UNL     1      -1.773   1.018  -1.577  0.00  0.00    -0.009 C 
ATOM     26  C   UNL     1      -2.689   1.983  -2.297  0.00  0.00    -0.036 C 
ATOM     27  C   UNL     1      -2.319   3.453  -2.281  0.00  0.00    +0.011 C 
ATOM     28  C   UNL     1      -4.126   1.818  -1.768  0.00  0.00    +0.011 C 
ATOM     29  C   UNL     1      -2.731   1.545  -3.785  0.00  0.00    +0.011 C 
ATOM     30  C   UNL     1      -0.904   5.316  -1.264  0.00  0.00    +0.009 C 
ATOM     31  N   UNL     1      -1.421   2.235   0.606  0.00  0.00    +0.388 N 
ATOM     32  H   UNL     1      -0.693   2.411   1.308  0.00  0.00    -0.081 HD
ENDBRANCH  20  31
ENDBRANCH   2  20
TORSDOF 5
