REMARK  Name = ZINC39491765
REMARK  15 active torsions:
REMARK  status: ('A' for Active; 'I' for Inactive)
REMARK    1  A    between atoms: C_1  and  C_2
REMARK    2  A    between atoms: C_2  and  C_3
REMARK    3  A    between atoms: C_2  and  S_4
REMARK    4  A    between atoms: S_4  and  C_7
REMARK    5  A    between atoms: C_7  and  C_9
REMARK    6  A    between atoms: C_7  and  C_32
REMARK    7  A    between atoms: C_9  and  N_10
REMARK    8  A    between atoms: C_12  and  C_23
REMARK    9  A    between atoms: C_17  and  C_19
REMARK   10  A    between atoms: C_19  and  O_21
REMARK   11  A    between atoms: O_21  and  C_22
REMARK   12  A    between atoms: C_23  and  N_24
REMARK   13  A    between atoms: N_24  and  C_25
REMARK   14  A    between atoms: C_30  and  O_31
REMARK   15  A    between atoms: C_37  and  O_38
REMARK                            x       y       z     vdW  Elec       q    Type
REMARK                         _______ _______ _______ _____ _____    ______ ____
ROOT
ATOM      1  N   UNL     1      -1.064  -2.300  -2.643  0.00  0.00    -0.344 N 
ATOM      2  C   UNL     1      -1.808  -3.185  -3.376  0.00  0.00    +0.092 A 
ATOM      3  C   UNL     1      -2.395  -2.550  -4.402  0.00  0.00    -0.005 A 
ATOM      4  C   UNL     1      -1.993  -1.143  -4.319  0.00  0.00    +0.005 A 
ATOM      5  C   UNL     1      -1.159  -1.042  -3.187  0.00  0.00    +0.049 A 
ATOM      6  C   UNL     1      -0.616   0.193  -2.839  0.00  0.00    +0.027 A 
ATOM      7  C   UNL     1      -0.891   1.300  -3.585  0.00  0.00    +0.017 A 
ATOM      8  C   UNL     1      -1.722   1.214  -4.711  0.00  0.00    +0.060 A 
ATOM      9  C   UNL     1      -2.269  -0.012  -5.083  0.00  0.00    +0.025 A 
ENDROOT
BRANCH   8  10
ATOM     10  C   UNL     1      -2.011   2.421  -5.508  0.00  0.00    +0.339 C 
ATOM     11  O   UNL     1      -2.731   2.348  -6.484  0.00  0.00    -0.245 OA
BRANCH  10  12
ATOM     12  O   UNL     1      -1.476   3.606  -5.154  0.00  0.00    -0.464 OA
ATOM     13  C   UNL     1      -1.799   4.734  -5.970  0.00  0.00    +0.280 C 
ENDBRANCH  10  12
ENDBRANCH   8  10
BRANCH   1  14
ATOM     14  C   UNL     1      -0.286  -2.643  -1.449  0.00  0.00    +0.153 C 
BRANCH  14  15
ATOM     15  C   UNL     1      -1.199  -2.619  -0.222  0.00  0.00    +0.184 C 
BRANCH  15  16
ATOM     16  C   UNL     1      -0.440  -3.124   0.978  0.00  0.00    +0.020 A 
ATOM     17  C   UNL     1       0.213  -2.233   1.808  0.00  0.00    +0.009 A 
ATOM     18  C   UNL     1       0.911  -2.695   2.909  0.00  0.00    +0.001 A 
ATOM     19  C   UNL     1       0.956  -4.050   3.183  0.00  0.00    +0.004 A 
ATOM     20  C   UNL     1       0.304  -4.945   2.356  0.00  0.00    +0.046 A 
ATOM     21  C   UNL     1      -0.401  -4.483   1.254  0.00  0.00    +0.122 A 
BRANCH  21  22
ATOM     22  O   UNL     1      -1.047  -5.361   0.443  0.00  0.00    -0.506 OA
ATOM     23  H   UNL     1      -0.507  -5.694  -0.286  0.00  0.00    +0.292 HD
ENDBRANCH  21  22
ENDBRANCH  15  16
BRANCH  15  24
ATOM     24  S   UNL     1      -1.756  -0.920   0.086  0.00  0.00    -0.020 S 
ATOM     25  O   UNL     1      -2.707  -0.572  -0.911  0.00  0.00    -0.173 OA
ATOM     26  O   UNL     1      -0.611  -0.098   0.266  0.00  0.00    -0.173 OA
BRANCH  24  28
ATOM     27  C   UNL     1      -3.276   0.275   2.020  0.00  0.00    +0.031 C 
ATOM     28  C   UNL     1      -2.617  -1.062   1.676  0.00  0.00    +0.125 C 
ATOM     29  C   UNL     1      -3.688  -2.150   1.581  0.00  0.00    +0.031 C 
ENDBRANCH  24  28
ENDBRANCH  15  24
ENDBRANCH  14  15
ENDBRANCH   1  14
BRANCH   3  30
ATOM     30  C   UNL     1      -3.294  -3.166  -5.442  0.00  0.00    +0.139 C 
BRANCH  30  31
ATOM     31  N   UNL     1      -2.527  -3.415  -6.665  0.00  0.00    -0.337 N 
ATOM     32  H   UNL     1      -1.586  -3.183  -6.703  0.00  0.00    +0.147 HD
BRANCH  31  33
ATOM     33  C   UNL     1      -3.153  -3.987  -7.779  0.00  0.00    +0.069 A 
ATOM     34  C   UNL     1      -4.500  -4.314  -7.729  0.00  0.00    +0.026 A 
ATOM     35  C   UNL     1      -5.116  -4.878  -8.830  0.00  0.00    +0.002 A 
ATOM     36  C   UNL     1      -4.392  -5.118  -9.984  0.00  0.00    +0.004 A 
ATOM     37  C   UNL     1      -3.049  -4.795 -10.041  0.00  0.00    +0.047 A 
ATOM     38  C   UNL     1      -2.425  -4.224  -8.944  0.00  0.00    +0.138 A 
BRANCH  38  39
ATOM     39  O   UNL     1      -1.105  -3.901  -9.001  0.00  0.00    -0.505 OA
ATOM     40  H   UNL     1      -0.514  -4.614  -8.722  0.00  0.00    +0.292 HD
ENDBRANCH  38  39
ENDBRANCH  31  33
ENDBRANCH  30  31
ENDBRANCH   3  30
TORSDOF 12
