REMARK  Name = ZINC04914774
REMARK  3 active torsions:
REMARK  status: ('A' for Active; 'I' for Inactive)
REMARK    1  A    between atoms: C_3  and  C_10
REMARK    2  A    between atoms: C_5  and  N_7
REMARK    3  A    between atoms: C_21  and  C_24
REMARK                            x       y       z     vdW  Elec       q    Type
REMARK                         _______ _______ _______ _____ _____    ______ ____
ROOT
ATOM      1  C   UNL     1      -2.784   2.282  -2.430  0.00  0.00    +0.063 C 
ATOM      2  C   UNL     1      -1.869   3.247  -3.187  0.00  0.00    +0.109 C 
ATOM      3  C   UNL     1      -0.504   2.626  -3.327  0.00  0.00    +0.218 C 
ATOM      4  O   UNL     1       0.162   2.844  -4.316  0.00  0.00    -0.275 OA
ATOM      5  N   UNL     1      -0.021   1.830  -2.357  0.00  0.00    -0.289 N 
ATOM      6  C   UNL     1      -0.741   1.585  -1.215  0.00  0.00    +0.018 C 
ATOM      7  C   UNL     1      -2.075   1.788  -1.191  0.00  0.00    +0.020 C 
ATOM      8  C   UNL     1      -2.830   1.550  -0.030  0.00  0.00    +0.162 C 
ATOM      9  O   UNL     1      -4.032   1.731  -0.051  0.00  0.00    -0.292 OA
ATOM     10  C   UNL     1      -2.174   1.076   1.238  0.00  0.00    +0.088 C 
ATOM     11  C   UNL     1      -0.728   1.579   1.268  0.00  0.00    +0.032 C 
ATOM     12  C   UNL     1      -0.013   1.086   0.008  0.00  0.00    +0.059 C 
ATOM     13  H   UNL     1       0.852   1.422  -2.466  0.00  0.00    +0.155 HD
ENDROOT
BRANCH  11  14
ATOM     14  C   UNL     1      -0.030   1.038   2.490  0.00  0.00    -0.043 A 
ATOM     15  C   UNL     1       0.068  -0.327   2.682  0.00  0.00    +0.007 A 
ATOM     16  C   UNL     1       0.713  -0.824   3.799  0.00  0.00    +0.038 A 
ATOM     17  C   UNL     1       1.250   0.047   4.732  0.00  0.00    +0.123 A 
ATOM     18  C   UNL     1       1.146   1.415   4.541  0.00  0.00    +0.038 A 
ATOM     19  C   UNL     1       0.506   1.909   3.420  0.00  0.00    +0.007 A 
ATOM     20  F   UNL     1       1.874  -0.437   5.827  0.00  0.00    -0.205 F 
ENDBRANCH  11  14
BRANCH   1  23
ATOM     21  C   UNL     1      -2.428  -0.771  -4.621  0.00  0.00    +0.003 A 
ATOM     22  C   UNL     1      -2.116   0.305  -3.812  0.00  0.00    +0.004 A 
ATOM     23  C   UNL     1      -3.123   1.112  -3.316  0.00  0.00    -0.037 A 
ATOM     24  C   UNL     1      -4.442   0.849  -3.639  0.00  0.00    +0.037 A 
ATOM     25  C   UNL     1      -4.753  -0.225  -4.452  0.00  0.00    +0.126 A 
ATOM     26  C   UNL     1      -3.746  -1.035  -4.943  0.00  0.00    +0.033 A 
BRANCH  25  27
ATOM     27  N   UNL     1      -6.165  -0.507  -4.797  0.00  0.00    +0.056 N 
ATOM     28  O   UNL     1      -7.052   0.207  -4.364  0.00  0.00    -0.126 OA
ATOM     29  O   UNL     1      -6.439  -1.453  -5.514  0.00  0.00    -0.126 OA
ENDBRANCH  25  27
ENDBRANCH   1  23
TORSDOF 3
