REMARK  Name = ZINC15015781
REMARK  8 active torsions:
REMARK  status: ('A' for Active; 'I' for Inactive)
REMARK    1  A    between atoms: C_1  and  C_2
REMARK    2  A    between atoms: C_2  and  O_3
REMARK    3  A    between atoms: O_3  and  C_4
REMARK    4  A    between atoms: C_13  and  C_14
REMARK    5  A    between atoms: C_26  and  S_29
REMARK    6  A    between atoms: S_29  and  C_30
REMARK    7  A    between atoms: C_30  and  C_31
REMARK    8  A    between atoms: C_34  and  C_37
REMARK                            x       y       z     vdW  Elec       q    Type
REMARK                         _______ _______ _______ _____ _____    ______ ____
ROOT
ATOM      1  C   UNL     1      -1.588   2.847  -1.186  0.00  0.00    +0.298 C 
ATOM      2  N   UNL     1      -0.972   2.084  -0.104  0.00  0.00    -0.305 N 
ATOM      3  C   UNL     1       0.305   1.548  -0.298  0.00  0.00    +0.039 A 
ATOM      4  C   UNL     1       0.505   0.185  -0.410  0.00  0.00    +0.024 A 
ATOM      5  C   UNL     1       1.778  -0.308  -0.630  0.00  0.00    +0.002 A 
ATOM      6  C   UNL     1       2.855   0.556  -0.738  0.00  0.00    +0.001 A 
ATOM      7  C   UNL     1       2.671   1.920  -0.624  0.00  0.00    +0.012 A 
ATOM      8  C   UNL     1       1.398   2.429  -0.398  0.00  0.00    +0.028 A 
ATOM      9  C   UNL     1       1.162   3.879  -0.244  0.00  0.00    +0.156 A 
ATOM     10  C   UNL     1       0.106   4.493  -0.955  0.00  0.00    +0.248 A 
ATOM     11  N   UNL     1      -0.097   5.790  -0.798  0.00  0.00    -0.184 NA
ATOM     12  C   UNL     1       0.697   6.478   0.018  0.00  0.00    +0.213 A 
ATOM     13  N   UNL     1       1.687   5.883   0.673  0.00  0.00    -0.122 NA
ATOM     14  N   UNL     1       1.917   4.622   0.550  0.00  0.00    -0.141 NA
ATOM     15  O   UNL     1      -0.668   3.753  -1.784  0.00  0.00    -0.449 OA
ATOM     16  H   UNL     1      -1.441   1.950   0.735  0.00  0.00    +0.150 HD
ENDROOT
BRANCH   1  26
ATOM     17  C   UNL     1      -1.252   1.452  -3.222  0.00  0.00    +0.129 A 
ATOM     18  C   UNL     1      -1.702   0.564  -4.204  0.00  0.00    +0.047 A 
ATOM     19  C   UNL     1      -2.986   0.116  -4.205  0.00  0.00    +0.012 A 
ATOM     20  C   UNL     1      -3.877   0.548  -3.207  0.00  0.00    -0.017 A 
ATOM     21  C   UNL     1      -5.210   0.105  -3.179  0.00  0.00    +0.008 A 
ATOM     22  C   UNL     1      -6.045   0.544  -2.197  0.00  0.00    +0.001 A 
ATOM     23  C   UNL     1      -5.598   1.429  -1.218  0.00  0.00    +0.001 A 
ATOM     24  C   UNL     1      -4.314   1.879  -1.213  0.00  0.00    +0.009 A 
ATOM     25  C   UNL     1      -3.421   1.443  -2.207  0.00  0.00    -0.006 A 
ATOM     26  C   UNL     1      -2.090   1.891  -2.237  0.00  0.00    +0.060 A 
BRANCH  17  27
ATOM     27  O   UNL     1       0.037   1.882  -3.248  0.00  0.00    -0.492 OA
BRANCH  27  29
ATOM     28  C   UNL     1       2.270   1.978  -4.166  0.00  0.00    +0.048 C 
ATOM     29  C   UNL     1       0.865   1.387  -4.302  0.00  0.00    +0.225 C 
ENDBRANCH  27  29
ENDBRANCH  17  27
ENDBRANCH   1  26
BRANCH  12  30
ATOM     30  S   UNL     1       0.431   8.206   0.233  0.00  0.00    -0.080 S 
BRANCH  30  31
ATOM     31  C   UNL     1       1.759   8.586   1.403  0.00  0.00    +0.112 C 
BRANCH  31  32
ATOM     32  C   UNL     1       1.726  10.054   1.742  0.00  0.00    -0.037 A 
ATOM     33  C   UNL     1       2.455  10.954   0.988  0.00  0.00    +0.005 A 
ATOM     34  C   UNL     1       2.422  12.301   1.296  0.00  0.00    +0.003 A 
ATOM     35  C   UNL     1       1.665  12.747   2.363  0.00  0.00    -0.050 A 
ATOM     36  C   UNL     1       0.940  11.847   3.120  0.00  0.00    +0.003 A 
ATOM     37  C   UNL     1       0.970  10.500   2.810  0.00  0.00    +0.005 A 
ATOM     38  C   UNL     1       1.632  14.215   2.701  0.00  0.00    +0.044 C 
ENDBRANCH  31  32
ENDBRANCH  30  31
ENDBRANCH  12  30
TORSDOF 6
