REMARK  Name = ZINC15859347
REMARK  8 active torsions:
REMARK  status: ('A' for Active; 'I' for Inactive)
REMARK    1  A    between atoms: C_1  and  C_2
REMARK    2  A    between atoms: C_2  and  C_3
REMARK    3  A    between atoms: C_2  and  C_4
REMARK    4  A    between atoms: C_7  and  C_10
REMARK    5  A    between atoms: C_10  and  C_12
REMARK    6  A    between atoms: C_10  and  N_63
REMARK    7  A    between atoms: C_13  and  N_21
REMARK    8  A    between atoms: C_22  and  C_24
REMARK                            x       y       z     vdW  Elec       q    Type
REMARK                         _______ _______ _______ _____ _____    ______ ____
ROOT
ATOM      1  C   UNL     1      -2.095  -4.282   0.225  0.00  0.00    +0.118 A 
ATOM      2  C   UNL     1      -1.915  -3.003  -0.152  0.00  0.00    +0.082 A 
ATOM      3  C   UNL     1      -3.203  -2.555  -0.703  0.00  0.00    +0.042 A 
ATOM      4  C   UNL     1      -3.663  -1.362  -1.255  0.00  0.00    +0.013 A 
ATOM      5  C   UNL     1      -4.958  -1.269  -1.685  0.00  0.00    +0.001 A 
ATOM      6  C   UNL     1      -5.814  -2.355  -1.576  0.00  0.00    +0.004 A 
ATOM      7  C   UNL     1      -5.376  -3.544  -1.033  0.00  0.00    +0.047 A 
ATOM      8  C   UNL     1      -4.064  -3.659  -0.589  0.00  0.00    +0.137 A 
ATOM      9  O   UNL     1      -3.361  -4.663  -0.028  0.00  0.00    -0.459 OA
ENDROOT
BRANCH   2  10
ATOM     10  N   UNL     1      -0.734  -2.250  -0.048  0.00  0.00    -0.276 N 
ATOM     11  C   UNL     1      -0.509  -1.227  -0.896  0.00  0.00    +0.284 C 
ATOM     12  O   UNL     1      -1.298  -0.997  -1.795  0.00  0.00    -0.266 OA
ATOM     13  H   UNL     1      -0.079  -2.466   0.635  0.00  0.00    +0.155 HD
BRANCH  11  14
ATOM     14  C   UNL     1       0.684  -0.390  -0.737  0.00  0.00    +0.189 A 
ATOM     15  C   UNL     1       1.031   0.672  -1.522  0.00  0.00    +0.054 A 
ATOM     16  C   UNL     1       2.238   1.175  -1.011  0.00  0.00    +0.042 A 
ATOM     17  C   UNL     1       2.571   0.407   0.050  0.00  0.00    +0.196 A 
ATOM     18  O   UNL     1       1.633  -0.535   0.212  0.00  0.00    -0.458 OA
ENDBRANCH  11  14
ENDBRANCH   2  10
BRANCH   1  19
ATOM     19  C   UNL     1      -1.035  -5.157   0.843  0.00  0.00    +0.032 C 
BRANCH  19  25
ATOM     20  C   UNL     1      -0.035  -7.361   0.780  0.00  0.00    -0.077 C 
ATOM     21  C   UNL     1      -0.178  -8.765   0.189  0.00  0.00    -0.019 C 
ATOM     22  C   UNL     1      -0.010  -8.692  -1.332  0.00  0.00    -0.004 C 
ATOM     23  C   UNL     1      -1.051  -7.729  -1.907  0.00  0.00    -0.019 C 
ATOM     24  C   UNL     1      -0.882  -6.354  -1.255  0.00  0.00    -0.077 C 
ATOM     25  N   UNL     1      -1.080  -6.488   0.204  0.00  0.00    +0.389 N 
ATOM     26  H   UNL     1      -2.000  -6.911   0.378  0.00  0.00    -0.080 HD
ENDBRANCH  19  25
BRANCH  19  30
ATOM     27  C   UNL     1      -1.817  -5.602   5.019  0.00  0.00    -0.045 A 
ATOM     28  C   UNL     1      -0.786  -4.786   4.592  0.00  0.00    +0.004 A 
ATOM     29  C   UNL     1      -0.533  -4.642   3.241  0.00  0.00    +0.003 A 
ATOM     30  C   UNL     1      -1.311  -5.314   2.317  0.00  0.00    -0.054 A 
ATOM     31  C   UNL     1      -2.345  -6.127   2.744  0.00  0.00    +0.003 A 
ATOM     32  C   UNL     1      -2.594  -6.275   4.095  0.00  0.00    +0.004 A 
BRANCH  27  34
ATOM     33  C   UNL     1      -3.517  -5.291   6.797  0.00  0.00    +0.012 C 
ATOM     34  C   UNL     1      -2.093  -5.759   6.493  0.00  0.00    +0.013 C 
ATOM     35  C   UNL     1      -1.944  -7.230   6.886  0.00  0.00    +0.012 C 
ENDBRANCH  27  34
ENDBRANCH  19  30
ENDBRANCH   1  19
TORSDOF 6
