REMARK  Name = ZINC20612100
REMARK  7 active torsions:
REMARK  status: ('A' for Active; 'I' for Inactive)
REMARK    1  A    between atoms: C_1  and  C_2
REMARK    2  A    between atoms: C_6  and  C_41
REMARK    3  A    between atoms: C_17  and  C_19
REMARK    4  A    between atoms: C_19  and  N_20
REMARK    5  A    between atoms: N_23  and  C_26
REMARK    6  A    between atoms: C_26  and  C_28
REMARK    7  A    between atoms: C_26  and  C_34
REMARK                            x       y       z     vdW  Elec       q    Type
REMARK                         _______ _______ _______ _____ _____    ______ ____
ROOT
ATOM      1  N   UNL     1      -6.095  -1.173   3.442  0.00  0.00    +0.382 N 
ATOM      2  C   UNL     1      -6.867   0.057   3.669  0.00  0.00    -0.063 C 
ATOM      3  C   UNL     1      -7.395   0.067   5.105  0.00  0.00    +0.067 C 
ATOM      4  N   UNL     1      -6.265  -0.021   6.040  0.00  0.00    -0.295 NA
ATOM      5  C   UNL     1      -5.492  -1.250   5.814  0.00  0.00    +0.067 C 
ATOM      6  C   UNL     1      -4.964  -1.261   4.377  0.00  0.00    -0.063 C 
ATOM      7  H   UNL     1      -6.758  -2.030   3.630  0.00  0.00    -0.082 HD
ENDROOT
BRANCH   1   8
ATOM      8  C   UNL     1      -5.634  -1.256   2.050  0.00  0.00    -0.063 C 
BRANCH   8  23
ATOM      9  C   UNL     1      -2.776   1.102  -0.799  0.00  0.00    +0.044 C 
ATOM     10  C   UNL     1      -2.748  -0.404  -0.863  0.00  0.00    -0.051 C 
ATOM     11  C   UNL     1      -1.638  -1.041  -1.198  0.00  0.00    -0.023 C 
ATOM     12  C   UNL     1      -1.500  -2.530  -1.270  0.00  0.00    +0.028 C 
ATOM     13  C   UNL     1      -2.858  -3.235  -1.332  0.00  0.00    +0.015 C 
ATOM     14  C   UNL     1      -3.757  -2.644  -0.248  0.00  0.00    -0.003 C 
ATOM     15  C   UNL     1      -3.961  -1.191  -0.547  0.00  0.00    -0.042 C 
ATOM     16  C   UNL     1      -5.130  -0.611  -0.557  0.00  0.00    -0.015 C 
ATOM     17  C   UNL     1      -6.403  -1.347  -0.351  0.00  0.00    +0.065 C 
ATOM     18  C   UNL     1      -6.256  -2.850  -0.691  0.00  0.00    +0.185 C 
ATOM     19  C   UNL     1      -5.015  -3.418  -0.005  0.00  0.00    +0.056 C 
ATOM     20  O   UNL     1      -7.413  -3.407   0.045  0.00  0.00    -0.461 OA
ATOM     21  C   UNL     1      -7.441  -2.803   1.254  0.00  0.00    +0.309 C 
ATOM     22  O   UNL     1      -7.872  -3.289   2.272  0.00  0.00    -0.251 OA
ATOM     23  C   UNL     1      -6.841  -1.412   1.122  0.00  0.00    +0.092 C 
ATOM     24  C   UNL     1      -2.954  -2.701   1.053  0.00  0.00    +0.016 C 
ENDBRANCH   8  23
ENDBRANCH   1   8
BRANCH   4  25
ATOM     25  C   UNL     1      -6.725   0.062   7.433  0.00  0.00    +0.117 C 
BRANCH  25  26
ATOM     26  C   UNL     1      -5.535   0.043   8.357  0.00  0.00    -0.026 A 
ATOM     27  C   UNL     1      -4.392   0.747   8.027  0.00  0.00    +0.007 A 
ATOM     28  C   UNL     1      -3.303   0.734   8.878  0.00  0.00    +0.020 A 
ATOM     29  C   UNL     1      -3.352   0.008  10.054  0.00  0.00    +0.041 A 
ATOM     30  C   UNL     1      -4.495  -0.701  10.381  0.00  0.00    +0.020 A 
ATOM     31  C   UNL     1      -5.585  -0.683   9.533  0.00  0.00    +0.007 A 
ATOM     32 CL   UNL     1      -1.982  -0.014  11.120  0.00  0.00    -0.084 Cl
ENDBRANCH  25  26
BRANCH  25  33
ATOM     33  C   UNL     1      -7.495   1.343   7.631  0.00  0.00    -0.026 A 
ATOM     34  C   UNL     1      -7.029   2.522   7.082  0.00  0.00    +0.005 A 
ATOM     35  C   UNL     1      -7.738   3.695   7.260  0.00  0.00    +0.000 A 
ATOM     36  C   UNL     1      -8.907   3.691   7.996  0.00  0.00    +0.000 A 
ATOM     37  C   UNL     1      -9.371   2.513   8.551  0.00  0.00    +0.000 A 
ATOM     38  C   UNL     1      -8.665   1.338   8.368  0.00  0.00    +0.005 A 
ENDBRANCH  25  33
ENDBRANCH   4  25
TORSDOF 5
