REMARK  Name = ZINC39358358
REMARK  7 active torsions:
REMARK  status: ('A' for Active; 'I' for Inactive)
REMARK    1  A    between atoms: C_1  and  C_2
REMARK    2  A    between atoms: C_4  and  C_8
REMARK    3  A    between atoms: C_14  and  N_17
REMARK    4  A    between atoms: N_17  and  C_18
REMARK    5  A    between atoms: C_21  and  C_24
REMARK    6  A    between atoms: C_24  and  C_25
REMARK    7  A    between atoms: C_24  and  C_26
REMARK                            x       y       z     vdW  Elec       q    Type
REMARK                         _______ _______ _______ _____ _____    ______ ____
ROOT
ATOM      1  C   UNL     1      -0.958  -2.939   1.229  0.00  0.00    +0.246 C 
ATOM      2  O   UNL     1      -0.190  -3.058   2.160  0.00  0.00    -0.273 OA
ATOM      3  N   UNL     1      -2.191  -3.477   1.299  0.00  0.00    -0.298 N 
ATOM      4  C   UNL     1      -3.130  -3.346   0.176  0.00  0.00    +0.108 C 
ATOM      5  C   UNL     1      -4.442  -2.752   0.697  0.00  0.00    +0.021 C 
ATOM      6  C   UNL     1      -4.962  -3.610   1.854  0.00  0.00    +0.025 C 
ATOM      7  C   UNL     1      -3.942  -3.602   2.995  0.00  0.00    +0.088 C 
ATOM      8  C   UNL     1      -2.622  -4.210   2.498  0.00  0.00    +0.130 C 
ENDROOT
BRANCH   1  12
ATOM      9  C   UNL     1      -0.018   1.503   0.010  0.00  0.00    +0.067 C 
ATOM     10  C   UNL     1       0.002  -0.004   0.002  0.00  0.00    +0.059 C 
ATOM     11  C   UNL     1      -1.086  -0.777   0.003  0.00  0.00    +0.035 C 
ATOM     12  C   UNL     1      -0.531  -2.190  -0.007  0.00  0.00    +0.238 C 
ATOM     13  N   UNL     1       0.926  -1.973  -0.013  0.00  0.00    -0.170 NA
ATOM     14  N   UNL     1       1.125  -0.756  -0.013  0.00  0.00    -0.159 NA
ENDBRANCH   1  12
BRANCH   7  15
ATOM     15  N   UNL     1      -4.454  -4.396   4.114  0.00  0.00    -0.339 N 
ATOM     16  H   UNL     1      -4.200  -5.328   4.203  0.00  0.00    +0.146 HD
BRANCH  15  17
ATOM     17  C   UNL     1      -5.308  -3.811   5.052  0.00  0.00    +0.027 A 
ATOM     18  C   UNL     1      -5.676  -2.478   4.923  0.00  0.00    +0.023 A 
ATOM     19  C   UNL     1      -6.521  -1.903   5.852  0.00  0.00    +0.006 A 
ATOM     20  C   UNL     1      -6.999  -2.653   6.911  0.00  0.00    -0.045 A 
ATOM     21  C   UNL     1      -6.634  -3.980   7.043  0.00  0.00    +0.006 A 
ATOM     22  C   UNL     1      -5.794  -4.563   6.114  0.00  0.00    +0.023 A 
BRANCH  20  23
ATOM     23  C   UNL     1      -7.919  -2.022   7.924  0.00  0.00    +0.013 C 
ATOM     24  C   UNL     1      -9.252  -2.773   7.939  0.00  0.00    +0.012 C 
ATOM     25  C   UNL     1      -7.277  -2.094   9.311  0.00  0.00    +0.012 C 
ENDBRANCH  20  23
ENDBRANCH  15  17
ENDBRANCH   7  15
TORSDOF 4
