REMARK  Name = ZINC20562331
REMARK  11 active torsions:
REMARK  status: ('A' for Active; 'I' for Inactive)
REMARK    1  A    between atoms: C_1  and  C_2
REMARK    2  A    between atoms: C_2  and  C_3
REMARK    3  A    between atoms: C_3  and  C_5
REMARK    4  A    between atoms: C_3  and  C_6
REMARK    5  A    between atoms: C_9  and  C_12
REMARK    6  A    between atoms: C_12  and  C_14
REMARK    7  A    between atoms: C_12  and  N_15
REMARK    8  A    between atoms: N_15  and  C_16
REMARK    9  A    between atoms: C_16  and  C_17
REMARK   10  A    between atoms: C_17  and  N_19
REMARK   11  A    between atoms: C_22  and  C_25
REMARK                            x       y       z     vdW  Elec       q    Type
REMARK                         _______ _______ _______ _____ _____    ______ ____
ROOT
ATOM      1  C   UNL     1       2.358  -8.171   1.894  0.00  0.00    +0.018 C 
ENDROOT
BRANCH   1   2
ATOM      2  N   UNL     1       2.312  -6.703   1.869  0.00  0.00    +0.389 N 
ATOM      3  H   UNL     1       3.193  -6.345   1.534  0.00  0.00    -0.084 HD
ATOM      4  H   UNL     1       2.140  -6.356   2.800  0.00  0.00    -0.084 HD
BRANCH   2   5
ATOM      5  C   UNL     1       1.232  -6.263   0.975  0.00  0.00    -0.043 C 
ATOM      6  C   UNL     1       1.556  -6.682  -0.460  0.00  0.00    -0.009 C 
BRANCH   5  10
ATOM      7  C   UNL     1       0.870  -2.011   1.172  0.00  0.00    -0.045 A 
ATOM      8  C   UNL     1      -0.264  -2.799   1.109  0.00  0.00    +0.004 A 
ATOM      9  C   UNL     1      -0.147  -4.175   1.045  0.00  0.00    +0.002 A 
ATOM     10  C   UNL     1       1.105  -4.763   1.044  0.00  0.00    -0.062 A 
ATOM     11  C   UNL     1       2.239  -3.974   1.106  0.00  0.00    +0.002 A 
ATOM     12  C   UNL     1       2.121  -2.598   1.166  0.00  0.00    +0.004 A 
BRANCH   7  13
ATOM     13  C   UNL     1       0.742  -0.511   1.242  0.00  0.00    +0.016 C 
ATOM     14  C   UNL     1      -0.042  -0.124   2.497  0.00  0.00    +0.012 C 
BRANCH  13  16
ATOM     15  C   UNL     1      -0.019   1.526   0.010  0.00  0.00    +0.004 C 
ATOM     16  C   UNL     1       0.002  -0.004   0.002  0.00  0.00    +0.004 C 
ENDBRANCH  13  16
ENDBRANCH   7  13
ENDBRANCH   5  10
ENDBRANCH   2   5
ENDBRANCH   1   2
BRANCH   1  17
ATOM     17  C   UNL     1       3.465  -8.624   2.811  0.00  0.00    +0.221 C 
ATOM     18  O   UNL     1       4.151  -7.801   3.388  0.00  0.00    -0.276 OA
BRANCH  17  19
ATOM     19  N   UNL     1       3.693  -9.919   2.988  0.00  0.00    -0.158 NA
ATOM     20  C   UNL     1       4.673 -10.319   3.799  0.00  0.00    +0.163 A 
ATOM     21  N   UNL     1       5.053 -11.591   4.097  0.00  0.00    -0.335 N 
ATOM     22  C   UNL     1       6.093 -11.782   4.962  0.00  0.00    +0.055 A 
ATOM     23  C   UNL     1       6.678 -10.673   5.467  0.00  0.00    +0.074 A 
ATOM     24  S   UNL     1       5.737  -9.373   4.692  0.00  0.00    -0.060 S 
ATOM     25  H   UNL     1       4.594 -12.348   3.702  0.00  0.00    +0.168 HD
BRANCH  22  26
ATOM     26  C   UNL     1       6.557 -13.138   5.328  0.00  0.00    -0.001 A 
ATOM     27  C   UNL     1       5.934 -14.262   4.784  0.00  0.00    +0.011 A 
ATOM     28  C   UNL     1       6.372 -15.524   5.129  0.00  0.00    +0.016 A 
ATOM     29  C   UNL     1       7.426 -15.677   6.013  0.00  0.00    +0.018 A 
ATOM     30  C   UNL     1       8.047 -14.566   6.556  0.00  0.00    +0.016 A 
ATOM     31  C   UNL     1       7.623 -13.299   6.215  0.00  0.00    +0.011 A 
ATOM     32 BR   UNL     1       8.019 -17.411   6.481  0.00  0.00    -0.050 Br
ENDBRANCH  22  26
ENDBRANCH  17  19
ENDBRANCH   1  17
TORSDOF 8
