REMARK  Name = ZINC06408628
REMARK  7 active torsions:
REMARK  status: ('A' for Active; 'I' for Inactive)
REMARK    1  A    between atoms: C_1  and  C_2
REMARK    2  A    between atoms: C_9  and  C_14
REMARK    3  A    between atoms: C_14  and  C_16
REMARK    4  A    between atoms: C_14  and  N_66
REMARK    5  A    between atoms: N_20  and  C_21
REMARK    6  A    between atoms: C_27  and  N_66
REMARK    7  A    between atoms: C_28  and  N_66
REMARK                            x       y       z     vdW  Elec       q    Type
REMARK                         _______ _______ _______ _____ _____    ______ ____
ROOT
ATOM      1  C   UNL     1      -1.237   2.190   0.020  0.00  0.00    +0.039 C 
ENDROOT
BRANCH   1  10
ATOM      2  C   UNL     1      -3.168   5.570   6.381  0.00  0.00    +0.044 C 
ATOM      3  C   UNL     1      -3.108   4.340   5.512  0.00  0.00    -0.050 A 
ATOM      4  C   UNL     1      -3.633   3.142   5.978  0.00  0.00    +0.005 A 
ATOM      5  C   UNL     1      -3.590   2.006   5.199  0.00  0.00    +0.026 A 
ATOM      6  C   UNL     1      -3.014   2.057   3.934  0.00  0.00    +0.049 A 
ATOM      7  C   UNL     1      -2.483   3.273   3.465  0.00  0.00    -0.001 A 
ATOM      8  C   UNL     1      -2.538   4.415   4.273  0.00  0.00    +0.013 A 
ATOM      9  C   UNL     1      -1.873   3.316   2.135  0.00  0.00    +0.017 A 
ATOM     10  C   UNL     1      -1.852   2.179   1.396  0.00  0.00    +0.011 A 
ATOM     11  C   UNL     1      -2.399   0.985   1.912  0.00  0.00    +0.251 A 
ATOM     12  O   UNL     1      -2.364  -0.027   1.233  0.00  0.00    -0.268 OA
ATOM     13  N   UNL     1      -2.956   0.935   3.135  0.00  0.00    -0.322 N 
ATOM     14  H   UNL     1      -3.323   0.098   3.459  0.00  0.00    +0.169 HD
ENDBRANCH   1  10
BRANCH   1  15
ATOM     15  C   UNL     1      -0.016   1.306   0.009  0.00  0.00    +0.143 A 
ATOM     16  N   UNL     1       0.002  -0.004   0.002  0.00  0.00    -0.115 NA
ATOM     17  N   UNL     1       1.233  -0.385  -0.012  0.00  0.00    -0.023 NA
ATOM     18  N   UNL     1       2.000   0.648  -0.014  0.00  0.00    -0.044 NA
ATOM     19  N   UNL     1       1.268   1.710  -0.001  0.00  0.00    -0.227 N 
BRANCH  19  20
ATOM     20  C   UNL     1       1.745   3.096   0.002  0.00  0.00    +0.111 C 
ATOM     21  C   UNL     1       2.581   3.350  -1.254  0.00  0.00    +0.027 C 
ATOM     22  C   UNL     1       3.079   4.796  -1.252  0.00  0.00    +0.002 C 
ATOM     23  C   UNL     1       3.938   5.038  -0.009  0.00  0.00    +0.000 C 
ATOM     24  C   UNL     1       3.102   4.784   1.247  0.00  0.00    +0.002 C 
ATOM     25  C   UNL     1       2.604   3.337   1.244  0.00  0.00    +0.027 C 
ENDBRANCH  19  20
ENDBRANCH   1  15
BRANCH   1  27
ATOM     26  C   UNL     1      -3.419   2.527  -0.974  0.00  0.00    -0.094 C 
ATOM     27  N   UNL     1      -2.220   1.662  -0.949  0.00  0.00    +0.389 N 
ATOM     28  H   UNL     1      -2.498   0.716  -0.661  0.00  0.00    -0.080 HD
BRANCH  27  29
ATOM     29  C   UNL     1      -1.617   1.596  -2.296  0.00  0.00    -0.068 C 
ATOM     30  C   UNL     1      -1.258   2.998  -2.793  0.00  0.00    -0.015 C 
ATOM     31  C   UNL     1      -0.638   2.901  -4.188  0.00  0.00    -0.002 C 
ATOM     32  C   UNL     1      -1.641   2.261  -5.149  0.00  0.00    -0.000 C 
ATOM     33  C   UNL     1      -1.999   0.859  -4.653  0.00  0.00    -0.002 C 
ATOM     34  C   UNL     1      -2.620   0.955  -3.257  0.00  0.00    -0.015 C 
ENDBRANCH  27  29
ENDBRANCH   1  27
TORSDOF 5
