REMARK  Name = ZINC36500786
REMARK  14 active torsions:
REMARK  status: ('A' for Active; 'I' for Inactive)
REMARK    1  A    between atoms: C_1  and  C_2
REMARK    2  A    between atoms: C_2  and  C_3
REMARK    3  A    between atoms: C_3  and  C_4
REMARK    4  A    between atoms: C_4  and  N_5
REMARK    5  A    between atoms: C_6  and  C_8
REMARK    6  A    between atoms: C_8  and  C_10
REMARK    7  A    between atoms: C_8  and  N_22
REMARK    8  A    between atoms: C_19  and  O_20
REMARK    9  A    between atoms: O_20  and  C_21
REMARK   10  A    between atoms: N_22  and  C_23
REMARK   11  A    between atoms: C_23  and  C_24
REMARK   12  A    between atoms: C_29  and  C_31
REMARK   13  A    between atoms: C_35  and  O_38
REMARK   14  A    between atoms: C_36  and  O_37
REMARK                            x       y       z     vdW  Elec       q    Type
REMARK                         _______ _______ _______ _____ _____    ______ ____
ROOT
ATOM      1  C   UNL     1       2.448  -4.426   4.127  0.00  0.00    +0.197 C 
ENDROOT
BRANCH   1   2
ATOM      2  C   UNL     1       1.543  -3.997   5.253  0.00  0.00    +0.031 A 
ATOM      3  C   UNL     1       2.042  -3.201   6.296  0.00  0.00    -0.009 A 
ATOM      4  C   UNL     1       3.385  -2.787   6.319  0.00  0.00    +0.009 A 
ATOM      5  C   UNL     1       3.835  -2.015   7.346  0.00  0.00    +0.001 A 
ATOM      6  C   UNL     1       2.983  -1.627   8.379  0.00  0.00    +0.001 A 
ATOM      7  C   UNL     1       1.677  -2.010   8.390  0.00  0.00    +0.008 A 
ATOM      8  C   UNL     1       1.175  -2.807   7.347  0.00  0.00    -0.017 A 
ATOM      9  C   UNL     1      -0.168  -3.219   7.326  0.00  0.00    +0.012 A 
ATOM     10  C   UNL     1      -0.621  -3.990   6.301  0.00  0.00    +0.046 A 
ATOM     11  C   UNL     1       0.231  -4.376   5.261  0.00  0.00    +0.126 A 
BRANCH  11  12
ATOM     12  O   UNL     1      -0.253  -5.142   4.248  0.00  0.00    -0.495 OA
ATOM     13  C   UNL     1      -1.605  -5.589   4.361  0.00  0.00    +0.277 C 
ENDBRANCH  11  12
ENDBRANCH   1   2
BRANCH   1  15
ATOM     14  N   UNL     1       2.637  -2.392   2.734  0.00  0.00    -0.313 N 
ATOM     15  C   UNL     1       2.125  -3.628   2.891  0.00  0.00    +0.238 C 
ATOM     16  O   UNL     1       1.404  -4.099   2.037  0.00  0.00    -0.273 OA
ATOM     17  H   UNL     1       3.214  -2.015   3.417  0.00  0.00    +0.149 HD
BRANCH  14  18
ATOM     18  C   UNL     1       2.323  -1.616   1.531  0.00  0.00    +0.104 C 
BRANCH  18  19
ATOM     19  C   UNL     1       3.025  -0.258   1.602  0.00  0.00    +0.018 C 
BRANCH  19  21
ATOM     20  C   UNL     1       3.399   1.909   0.417  0.00  0.00    +0.004 C 
ATOM     21  C   UNL     1       2.697   0.552   0.347  0.00  0.00    -0.002 C 
ENDBRANCH  19  21
ENDBRANCH  18  19
ENDBRANCH  14  18
ENDBRANCH   1  15
BRANCH   1  22
ATOM     22  N   UNL     1       2.247  -5.852   3.855  0.00  0.00    -0.274 N 
ATOM     23  C   UNL     1       2.568  -6.359   2.649  0.00  0.00    +0.252 C 
ATOM     24  O   UNL     1       2.282  -7.509   2.377  0.00  0.00    -0.270 OA
BRANCH  23  25
ATOM     25  C   UNL     1       3.267  -5.519   1.657  0.00  0.00    +0.082 A 
ATOM     26  C   UNL     1       3.938  -4.362   2.065  0.00  0.00    +0.017 A 
ATOM     27  C   UNL     1       4.589  -3.580   1.136  0.00  0.00    +0.005 A 
ATOM     28  C   UNL     1       4.585  -3.934  -0.203  0.00  0.00    +0.049 A 
ATOM     29  C   UNL     1       3.925  -5.077  -0.622  0.00  0.00    +0.159 A 
ATOM     30  C   UNL     1       3.267  -5.880   0.305  0.00  0.00    +0.171 A 
BRANCH  30  31
ATOM     31  O   UNL     1       2.624  -7.004  -0.102  0.00  0.00    -0.503 OA
ATOM     32  H   UNL     1       1.699  -6.862  -0.344  0.00  0.00    +0.292 HD
ENDBRANCH  30  31
BRANCH  29  33
ATOM     33  O   UNL     1       3.925  -5.418  -1.939  0.00  0.00    -0.503 OA
ATOM     34  H   UNL     1       4.662  -5.987  -2.198  0.00  0.00    +0.292 HD
ENDBRANCH  29  33
ENDBRANCH  23  25
BRANCH  22  35
ATOM     35  C   UNL     1       1.697  -6.726   4.894  0.00  0.00    +0.183 C 
BRANCH  35  36
ATOM     36  C   UNL     1       2.780  -7.073   5.883  0.00  0.00    +0.122 A 
ATOM     37  C   UNL     1       3.033  -6.424   7.034  0.00  0.00    +0.046 A 
ATOM     38  C   UNL     1       4.125  -7.082   7.644  0.00  0.00    +0.041 A 
ATOM     39  C   UNL     1       4.475  -8.094   6.830  0.00  0.00    +0.195 A 
ATOM     40  O   UNL     1       3.653  -8.088   5.768  0.00  0.00    -0.466 OA
ENDBRANCH  35  36
ENDBRANCH  22  35
ENDBRANCH   1  22
TORSDOF 12
