REMARK  Name = ZINC06504933
REMARK  8 active torsions:
REMARK  status: ('A' for Active; 'I' for Inactive)
REMARK    1  A    between atoms: C_1  and  C_2
REMARK    2  A    between atoms: N_4  and  C_11
REMARK    3  A    between atoms: C_13  and  O_25
REMARK    4  A    between atoms: C_15  and  C_24
REMARK    5  A    between atoms: C_17  and  C_20
REMARK    6  A    between atoms: C_20  and  O_21
REMARK    7  A    between atoms: O_21  and  P_22
REMARK    8  A    between atoms: O_25  and  C_26
REMARK                            x       y       z     vdW  Elec       q    Type
REMARK                         _______ _______ _______ _____ _____    ______ ____
ROOT
ATOM      1  C   UNL     1      -0.483   3.465   3.119  0.00  0.00    +0.253 C 
ATOM      2  C   UNL     1       0.512   2.420   2.554  0.00  0.00    +0.173 C 
ATOM      3  C   UNL     1      -0.372   1.638   1.553  0.00  0.00    +0.050 C 
ATOM      4  C   UNL     1      -1.539   2.598   1.250  0.00  0.00    +0.152 C 
ATOM      5  O   UNL     1      -1.294   3.814   1.975  0.00  0.00    -0.348 OA
ATOM      6  C   UNL     1       0.409   1.323   0.276  0.00  0.00    +0.013 C 
ENDROOT
BRANCH   1  10
ATOM      7  C   UNL     1       1.272   8.015   2.395  0.00  0.00    +0.051 C 
ATOM      8  C   UNL     1       1.069   6.809   3.275  0.00  0.00    +0.030 A 
ATOM      9  C   UNL     1       0.413   5.724   2.809  0.00  0.00    +0.102 A 
ATOM     10  N   UNL     1       0.233   4.639   3.623  0.00  0.00    -0.271 N 
ATOM     11  C   UNL     1       0.712   4.639   4.880  0.00  0.00    +0.331 A 
ATOM     12  O   UNL     1       0.545   3.663   5.585  0.00  0.00    -0.246 OA
ATOM     13  N   UNL     1       1.374   5.705   5.369  0.00  0.00    -0.275 N 
ATOM     14  H   UNL     1       1.723   5.688   6.306  0.00  0.00    +0.173 HD
ATOM     15  C   UNL     1       1.567   6.795   4.600  0.00  0.00    +0.257 A 
ATOM     16  O   UNL     1       2.166   7.760   5.041  0.00  0.00    -0.267 OA
ENDBRANCH   1  10
BRANCH   2  17
ATOM     17  O   UNL     1       1.598   3.061   1.882  0.00  0.00    -0.375 OA
ATOM     18  C   UNL     1       2.854   2.397   2.042  0.00  0.00    +0.194 C 
ENDBRANCH   2  17
BRANCH   4  19
ATOM     19  C   UNL     1      -1.595   2.890  -0.251  0.00  0.00    +0.204 C 
BRANCH  19  20
ATOM     20  O   UNL     1      -2.743   3.692  -0.538  0.00  0.00    -0.281 OA
BRANCH  20  21
ATOM     21  P   UNL     1      -3.116   4.189  -2.023  0.00  0.00    +0.532 P 
ATOM     22  O   UNL     1      -3.206   3.021  -2.927  0.00  0.00    -0.222 OA
ATOM     23  O   UNL     1      -4.533   4.954  -1.992  0.00  0.00    -0.115 OA
ATOM     24  O   UNL     1      -1.976   5.193  -2.555  0.00  0.00    -0.115 OA
ENDBRANCH  20  21
ENDBRANCH  19  20
ENDBRANCH   4  19
TORSDOF 5
