REMARK  Name = ZINC19880673
REMARK  12 active torsions:
REMARK  status: ('A' for Active; 'I' for Inactive)
REMARK    1  A    between atoms: C_1  and  C_2
REMARK    2  A    between atoms: C_3  and  C_27
REMARK    3  A    between atoms: C_4  and  C_16
REMARK    4  A    between atoms: C_10  and  C_14
REMARK    5  A    between atoms: C_10  and  C_15
REMARK    6  A    between atoms: C_18  and  O_25
REMARK    7  A    between atoms: C_19  and  O_24
REMARK    8  A    between atoms: C_20  and  O_22
REMARK    9  A    between atoms: O_22  and  C_23
REMARK   10  A    between atoms: O_25  and  C_26
REMARK   11  A    between atoms: C_27  and  O_29
REMARK   12  A    between atoms: O_29  and  C_30
REMARK                            x       y       z     vdW  Elec       q    Type
REMARK                         _______ _______ _______ _____ _____    ______ ____
ROOT
ATOM      1  C   UNL     1       2.362  -0.233   0.186  0.00  0.00    +0.061 C 
ATOM      2  C   UNL     1       2.365   1.271   0.088  0.00  0.00    +0.016 C 
ATOM      3  C   UNL     1       1.219   1.926  -0.163  0.00  0.00    +0.065 C 
ATOM      4  C   UNL     1       1.186   3.421  -0.280  0.00  0.00    +0.092 C 
ATOM      5  C   UNL     1       2.417   4.037   0.340  0.00  0.00    +0.024 C 
ATOM      6  C   UNL     1       3.521   3.293   0.565  0.00  0.00    +0.016 C 
ATOM      7  N   UNL     1       3.534   1.959   0.255  0.00  0.00    -0.321 N 
ATOM      8  C   UNL     1       4.765   3.908   1.156  0.00  0.00    +0.058 C 
ATOM      9  C   UNL     1       4.377   5.055   2.091  0.00  0.00    -0.023 C 
ATOM     10  C   UNL     1       3.574   6.085   1.289  0.00  0.00    +0.086 C 
ATOM     11  C   UNL     1       2.385   5.404   0.668  0.00  0.00    +0.162 C 
ATOM     12  O   UNL     1       1.378   6.047   0.445  0.00  0.00    -0.292 OA
ATOM     13  C   UNL     1       3.520   4.516   3.238  0.00  0.00    +0.011 C 
ATOM     14  C   UNL     1       5.640   5.709   2.655  0.00  0.00    +0.011 C 
ATOM     15  H   UNL     1       4.498   1.442   0.142  0.00  0.00    +0.152 HD
ENDROOT
BRANCH   4  16
ATOM     16  C   UNL     1       1.116   3.803  -1.736  0.00  0.00    -0.028 A 
ATOM     17  C   UNL     1       2.127   3.421  -2.598  0.00  0.00    +0.054 A 
ATOM     18  C   UNL     1       2.064   3.766  -3.939  0.00  0.00    +0.165 A 
ATOM     19  C   UNL     1       0.987   4.504  -4.415  0.00  0.00    +0.201 A 
ATOM     20  C   UNL     1      -0.025   4.890  -3.544  0.00  0.00    +0.165 A 
ATOM     21  C   UNL     1       0.043   4.537  -2.205  0.00  0.00    +0.054 A 
BRANCH  20  22
ATOM     22  O   UNL     1      -1.081   5.612  -4.005  0.00  0.00    -0.491 OA
ATOM     23  C   UNL     1      -2.085   5.974  -3.054  0.00  0.00    +0.277 C 
ENDBRANCH  20  22
BRANCH  19  24
ATOM     24  O   UNL     1       0.924   4.849  -5.730  0.00  0.00    -0.501 OA
ATOM     25  H   UNL     1       0.071   5.433  -6.105  0.00  0.00    +0.292 HD
ENDBRANCH  19  24
BRANCH  18  26
ATOM     26  O   UNL     1       3.057   3.386  -4.787  0.00  0.00    -0.491 OA
ATOM     27  C   UNL     1       4.133   2.629  -4.229  0.00  0.00    +0.277 C 
ENDBRANCH  18  26
ENDBRANCH   4  16
BRANCH   3  28
ATOM     28  C   UNL     1       0.021   1.191  -0.325  0.00  0.00    +0.338 C 
ATOM     29  O   UNL     1      -0.816   1.188   0.558  0.00  0.00    -0.245 OA
BRANCH  28  30
ATOM     30  O   UNL     1      -0.191   0.488  -1.458  0.00  0.00    -0.458 OA
BRANCH  30  31
ATOM     31  C   UNL     1      -1.419  -0.236  -1.552  0.00  0.00    +0.177 C 
ATOM     32  C   UNL     1      -1.225  -1.677  -1.036  0.00  0.00    +0.044 C 
ATOM     33  C   UNL     1      -2.105  -2.538  -1.976  0.00  0.00    +0.004 C 
ATOM     34  C   UNL     1      -1.906  -1.856  -3.352  0.00  0.00    +0.004 C 
ATOM     35  C   UNL     1      -1.853  -0.349  -3.024  0.00  0.00    +0.044 C 
ENDBRANCH  30  31
ENDBRANCH  28  30
ENDBRANCH   3  28
TORSDOF 7
