REMARK  Name = ZINC00969968
REMARK  3 active torsions:
REMARK  status: ('A' for Active; 'I' for Inactive)
REMARK    1  A    between atoms: C_1  and  C_2
REMARK    2  A    between atoms: C_7  and  C_12
REMARK    3  A    between atoms: N_23  and  C_24
REMARK                            x       y       z     vdW  Elec       q    Type
REMARK                         _______ _______ _______ _____ _____    ______ ____
ROOT
ATOM      1  C   UNL     1      -1.839   4.750   0.065  0.00  0.00    +0.198 C 
ATOM      2  N   UNL     1      -3.010   4.141   0.704  0.00  0.00    -0.321 N 
ATOM      3  C   UNL     1      -3.067   4.093   2.092  0.00  0.00    +0.041 A 
ATOM      4  C   UNL     1      -3.765   3.102   2.760  0.00  0.00    +0.024 A 
ATOM      5  C   UNL     1      -3.813   3.110   4.141  0.00  0.00    +0.002 A 
ATOM      6  C   UNL     1      -3.167   4.102   4.862  0.00  0.00    +0.001 A 
ATOM      7  C   UNL     1      -2.463   5.094   4.213  0.00  0.00    +0.015 A 
ATOM      8  C   UNL     1      -2.404   5.096   2.821  0.00  0.00    +0.058 A 
ATOM      9  C   UNL     1      -1.656   6.128   2.081  0.00  0.00    +0.254 C 
ATOM     10  O   UNL     1      -1.211   7.099   2.664  0.00  0.00    -0.270 OA
ATOM     11  N   UNL     1      -1.471   5.988   0.754  0.00  0.00    -0.244 N 
ATOM     12  H   UNL     1      -3.732   3.777   0.167  0.00  0.00    +0.148 HD
ENDROOT
BRANCH   1  18
ATOM     13  C   UNL     1       1.732  -0.373   2.191  0.00  0.00    +0.052 C 
ATOM     14  C   UNL     1       1.665  -0.219   0.670  0.00  0.00    +0.175 C 
ATOM     15  C   UNL     1       0.210   0.029   0.207  0.00  0.00    +0.083 C 
ATOM     16  C   UNL     1       0.144   1.543   0.179  0.00  0.00    -0.002 A 
ATOM     17  C   UNL     1      -0.915   2.422   0.133  0.00  0.00    +0.014 A 
ATOM     18  C   UNL     1      -0.682   3.786   0.120  0.00  0.00    -0.008 A 
ATOM     19  C   UNL     1       0.616   4.261   0.162  0.00  0.00    +0.010 A 
ATOM     20  C   UNL     1       1.679   3.382   0.209  0.00  0.00    +0.046 A 
ATOM     21  C   UNL     1       1.453   2.008   0.215  0.00  0.00    +0.124 A 
ATOM     22  O   UNL     1       2.342   0.978   0.249  0.00  0.00    -0.488 OA
ENDBRANCH   1  18
BRANCH  11  23
ATOM     23  C   UNL     1      -0.916   7.043   0.022  0.00  0.00    +0.039 A 
ATOM     24  C   UNL     1       0.335   7.543   0.360  0.00  0.00    +0.023 A 
ATOM     25  C   UNL     1       0.881   8.581  -0.368  0.00  0.00    +0.002 A 
ATOM     26  C   UNL     1       0.180   9.130  -1.425  0.00  0.00    +0.000 A 
ATOM     27  C   UNL     1      -1.068   8.639  -1.761  0.00  0.00    +0.002 A 
ATOM     28  C   UNL     1      -1.618   7.597  -1.041  0.00  0.00    +0.023 A 
ENDBRANCH  11  23
TORSDOF 2
