REMARK  Name = ZINC12550115
REMARK  7 active torsions:
REMARK  status: ('A' for Active; 'I' for Inactive)
REMARK    1  A    between atoms: C_1  and  C_2
REMARK    2  A    between atoms: C_3  and  N_15
REMARK    3  A    between atoms: N_6  and  C_9
REMARK    4  A    between atoms: N_7  and  C_8
REMARK    5  A    between atoms: N_17  and  C_32
REMARK    6  A    between atoms: C_18  and  C_21
REMARK    7  A    between atoms: C_32  and  C_33
REMARK                            x       y       z     vdW  Elec       q    Type
REMARK                         _______ _______ _______ _____ _____    ______ ____
ROOT
ATOM      1  N   UNL     1       2.616  -2.740  -0.500  0.00  0.00    -0.216 NA
ATOM      2  C   UNL     1       1.588  -1.962  -0.242  0.00  0.00    +0.175 A 
ATOM      3  N   UNL     1       1.517  -0.584  -0.233  0.00  0.00    -0.315 N 
ATOM      4  C   UNL     1       0.321   0.007   0.075  0.00  0.00    +0.058 A 
ATOM      5  C   UNL     1      -0.752  -0.761   0.350  0.00  0.00    +0.075 A 
ATOM      6  S   UNL     1      -0.087  -2.410   0.186  0.00  0.00    -0.057 S 
ENDROOT
BRANCH   4   7
ATOM      7  C   UNL     1       0.205   1.482   0.099  0.00  0.00    +0.001 A 
ATOM      8  C   UNL     1      -0.793   2.117  -0.642  0.00  0.00    +0.013 A 
ATOM      9  C   UNL     1      -0.902   3.493  -0.619  0.00  0.00    +0.048 A 
ATOM     10  C   UNL     1      -0.021   4.247   0.139  0.00  0.00    +0.142 A 
ATOM     11  C   UNL     1       0.979   3.618   0.880  0.00  0.00    +0.076 A 
ATOM     12  C   UNL     1       1.091   2.240   0.867  0.00  0.00    +0.037 A 
ATOM     13  N   UNL     1       1.863   4.399   1.640  0.00  0.00    -0.280 N 
ATOM     14  C   UNL     1       1.545   5.687   1.895  0.00  0.00    +0.255 C 
ATOM     15  O   UNL     1       2.308   6.389   2.524  0.00  0.00    -0.272 OA
ATOM     16  C   UNL     1       0.239   6.248   1.393  0.00  0.00    +0.325 C 
ATOM     17  O   UNL     1      -0.122   5.603   0.169  0.00  0.00    -0.481 OA
ATOM     18  H   UNL     1       2.689   4.019   1.978  0.00  0.00    +0.155 HD
ENDBRANCH   4   7
BRANCH   1  21
ATOM     19  C   UNL     1       0.883  -4.151  -2.590  0.00  0.00    +0.067 C 
ATOM     20  C   UNL     1       1.689  -4.775  -1.481  0.00  0.00    +0.064 A 
ATOM     21  C   UNL     1       2.446  -4.104  -0.574  0.00  0.00    +0.153 A 
ATOM     22  C   UNL     1       3.053  -5.108   0.309  0.00  0.00    +0.298 A 
ATOM     23  O   UNL     1       3.802  -4.893   1.244  0.00  0.00    -0.264 OA
ATOM     24  N   UNL     1       2.621  -6.315  -0.113  0.00  0.00    -0.215 N 
ATOM     25  N   UNL     1       1.783  -6.120  -1.216  0.00  0.00    -0.282 N 
ATOM     26  C   UNL     1       1.112  -7.182  -1.970  0.00  0.00    +0.171 C 
BRANCH  24  27
ATOM     27  C   UNL     1       2.957  -7.549   0.453  0.00  0.00    +0.067 A 
ATOM     28  C   UNL     1       1.964  -8.478   0.736  0.00  0.00    +0.028 A 
ATOM     29  C   UNL     1       2.300  -9.698   1.290  0.00  0.00    +0.002 A 
ATOM     30  C   UNL     1       3.622  -9.990   1.573  0.00  0.00    +0.000 A 
ATOM     31  C   UNL     1       4.612  -9.065   1.297  0.00  0.00    +0.002 A 
ATOM     32  C   UNL     1       4.284  -7.845   0.738  0.00  0.00    +0.028 A 
ENDBRANCH  24  27
ENDBRANCH   1  21
BRANCH   3  33
ATOM     33  C   UNL     1       2.697   0.228  -0.542  0.00  0.00    +0.159 C 
BRANCH  33  34
ATOM     34  C   UNL     1       2.766   0.469  -2.029  0.00  0.00    -0.028 A 
ATOM     35  C   UNL     1       3.448  -0.417  -2.841  0.00  0.00    +0.005 A 
ATOM     36  C   UNL     1       3.507  -0.199  -4.205  0.00  0.00    +0.000 A 
ATOM     37  C   UNL     1       2.893   0.911  -4.755  0.00  0.00    +0.000 A 
ATOM     38  C   UNL     1       2.215   1.799  -3.941  0.00  0.00    +0.000 A 
ATOM     39  C   UNL     1       2.151   1.579  -2.578  0.00  0.00    +0.005 A 
ENDBRANCH  33  34
ENDBRANCH   3  33
TORSDOF 5
