REMARK  Name = ZINC22216512
REMARK  9 active torsions:
REMARK  status: ('A' for Active; 'I' for Inactive)
REMARK    1  A    between atoms: C_1  and  C_2
REMARK    2  A    between atoms: C_10  and  C_12
REMARK    3  A    between atoms: C_12  and  O_13
REMARK    4  A    between atoms: O_13  and  C_14
REMARK    5  A    between atoms: C_14  and  C_16
REMARK    6  A    between atoms: C_18  and  N_30
REMARK    7  A    between atoms: C_21  and  N_22
REMARK    8  A    between atoms: N_22  and  C_23
REMARK    9  A    between atoms: C_23  and  C_24
REMARK                            x       y       z     vdW  Elec       q    Type
REMARK                         _______ _______ _______ _____ _____    ______ ____
ROOT
ATOM      1  C   UNL     1       0.104  -2.408   8.240  0.00  0.00    +0.082 A 
ATOM      2  C   UNL     1       0.184  -1.012   8.244  0.00  0.00    +0.049 A 
ATOM      3  C   UNL     1       0.196  -0.328   9.439  0.00  0.00    +0.127 A 
ATOM      4  C   UNL     1       0.128  -1.016  10.641  0.00  0.00    +0.034 A 
ATOM      5  C   UNL     1       0.048  -2.393  10.654  0.00  0.00    +0.026 A 
ATOM      6  C   UNL     1       0.030  -3.101   9.459  0.00  0.00    +0.042 A 
ENDROOT
BRANCH   3   7
ATOM      7  N   UNL     1       0.281   1.150   9.440  0.00  0.00    +0.056 N 
ATOM      8  O   UNL     1       0.341   1.753   8.394  0.00  0.00    -0.126 OA
ATOM      9  O   UNL     1       0.291   1.754  10.487  0.00  0.00    -0.126 OA
ENDBRANCH   3   7
BRANCH   1  10
ATOM     10  C   UNL     1       0.092  -3.147   6.966  0.00  0.00    +0.341 C 
ATOM     11  O   UNL     1       0.129  -4.361   6.967  0.00  0.00    -0.245 OA
BRANCH  10  12
ATOM     12  O   UNL     1       0.040  -2.475   5.798  0.00  0.00    -0.455 OA
BRANCH  12  13
ATOM     13  C   UNL     1       0.031  -3.255   4.601  0.00  0.00    +0.285 C 
BRANCH  13  23
ATOM     14  C   UNL     1      -0.238   1.504   0.017  0.00  0.00    +0.064 C 
ATOM     15  C   UNL     1      -0.193  -0.002   0.007  0.00  0.00    +0.033 A 
ATOM     16  C   UNL     1      -0.199  -0.650  -1.158  0.00  0.00    +0.070 A 
ATOM     17  S   UNL     1      -0.136  -2.355  -0.628  0.00  0.00    -0.059 S 
ATOM     18  C   UNL     1      -0.105  -2.051   1.126  0.00  0.00    +0.158 A 
ATOM     19  N   UNL     1      -0.140  -0.684   1.198  0.00  0.00    -0.261 N 
ATOM     20  C   UNL     1      -0.123  -0.140   2.452  0.00  0.00    +0.259 A 
ATOM     21  O   UNL     1      -0.156   1.072   2.592  0.00  0.00    -0.267 OA
ATOM     22  C   UNL     1      -0.067  -0.972   3.571  0.00  0.00    +0.095 A 
ATOM     23  C   UNL     1      -0.030  -2.340   3.406  0.00  0.00    +0.061 A 
ATOM     24  N   UNL     1      -0.058  -2.838   2.172  0.00  0.00    -0.336 N 
ATOM     25  H   UNL     1      -0.031  -3.799   2.045  0.00  0.00    +0.168 HD
ENDBRANCH  13  23
ENDBRANCH  12  13
ENDBRANCH  10  12
ENDBRANCH   1  10
BRANCH   6  26
ATOM     26  N   UNL     1      -0.057  -4.487   9.470  0.00  0.00    -0.339 N 
ATOM     27  H   UNL     1       0.014  -4.984   8.640  0.00  0.00    +0.146 HD
BRANCH  26  28
ATOM     28  C   UNL     1      -0.254  -5.198  10.735  0.00  0.00    +0.137 C 
BRANCH  28  29
ATOM     29  C   UNL     1      -0.313  -6.681  10.473  0.00  0.00    -0.030 A 
ATOM     30  C   UNL     1      -1.526  -7.288  10.203  0.00  0.00    +0.005 A 
ATOM     31  C   UNL     1      -1.580  -8.648   9.963  0.00  0.00    +0.000 A 
ATOM     32  C   UNL     1      -0.421  -9.402   9.993  0.00  0.00    +0.000 A 
ATOM     33  C   UNL     1       0.791  -8.795  10.262  0.00  0.00    +0.000 A 
ATOM     34  C   UNL     1       0.846  -7.434  10.498  0.00  0.00    +0.005 A 
ENDBRANCH  28  29
ENDBRANCH  26  28
ENDBRANCH   6  26
TORSDOF 8
