REMARK  Name = ZINC14329273
REMARK  7 active torsions:
REMARK  status: ('A' for Active; 'I' for Inactive)
REMARK    1  A    between atoms: C_1  and  C_2
REMARK    2  A    between atoms: C_2  and  C_4
REMARK    3  A    between atoms: C_2  and  N_56
REMARK    4  A    between atoms: N_6  and  C_7
REMARK    5  A    between atoms: C_10  and  C_14
REMARK    6  A    between atoms: C_18  and  C_21
REMARK    7  A    between atoms: C_21  and  C_23
REMARK                            x       y       z     vdW  Elec       q    Type
REMARK                         _______ _______ _______ _____ _____    ______ ____
ROOT
ATOM      1  C   UNL     1      -7.170  -0.484   0.117  0.00  0.00    -0.077 C 
ATOM      2  C   UNL     1      -5.933  -1.300   0.500  0.00  0.00    -0.007 C 
ATOM      3  C   UNL     1      -4.959  -0.409   1.276  0.00  0.00    +0.057 C 
ATOM      4  C   UNL     1      -5.669   0.155   2.510  0.00  0.00    -0.007 C 
ATOM      5  C   UNL     1      -6.913   0.929   2.069  0.00  0.00    -0.077 C 
ATOM      6  N   UNL     1      -7.820   0.009   1.350  0.00  0.00    +0.387 N 
ATOM      7  H   UNL     1      -8.033  -0.790   1.957  0.00  0.00    -0.081 HD
ENDROOT
BRANCH   6   9
ATOM      8  C   UNL     1      -8.861   1.680  -0.146  0.00  0.00    -0.004 C 
ATOM      9  C   UNL     1      -9.079   0.705   1.012  0.00  0.00    +0.016 C 
BRANCH   9  10
ATOM     10  C   UNL     1     -10.107  -0.324   0.616  0.00  0.00    +0.203 C 
ATOM     11  O   UNL     1      -9.764  -1.460   0.367  0.00  0.00    -0.277 OA
ATOM     12  N   UNL     1     -11.408   0.019   0.538  0.00  0.00    -0.287 N 
ATOM     13  H   UNL     1     -11.675   0.942   0.674  0.00  0.00    +0.155 HD
BRANCH  12  14
ATOM     14  C   UNL     1     -12.371  -0.952   0.261  0.00  0.00    +0.035 A 
ATOM     15  C   UNL     1     -12.075  -1.993  -0.614  0.00  0.00    +0.024 A 
ATOM     16  C   UNL     1     -13.019  -2.956  -0.886  0.00  0.00    +0.022 A 
ATOM     17  C   UNL     1     -14.282  -2.883  -0.291  0.00  0.00    +0.070 A 
ATOM     18  C   UNL     1     -14.578  -1.833   0.585  0.00  0.00    +0.060 A 
ATOM     19  C   UNL     1     -13.625  -0.875   0.857  0.00  0.00    +0.044 A 
ATOM     20 CL   UNL     1     -16.144  -1.736   1.328  0.00  0.00    -0.082 Cl
BRANCH  17  21
ATOM     21  C   UNL     1     -15.270  -3.880  -0.576  0.00  0.00    +0.101 C 
ATOM     22  N   UNL     1     -16.053  -4.671  -0.803  0.00  0.00    -0.191 NA
ENDBRANCH  17  21
ENDBRANCH  12  14
ENDBRANCH   9  10
ENDBRANCH   6   9
BRANCH   3  23
ATOM     23  C   UNL     1      -3.767  -1.223   1.708  0.00  0.00    +0.166 C 
ATOM     24  O   UNL     1      -3.870  -2.423   1.846  0.00  0.00    -0.292 OA
BRANCH  23  25
ATOM     25  C   UNL     1      -2.480  -0.562   1.963  0.00  0.00    +0.021 A 
ATOM     26  C   UNL     1      -2.358   0.824   1.804  0.00  0.00    +0.015 A 
ATOM     27  C   UNL     1      -1.150   1.438   2.038  0.00  0.00    +0.050 A 
ATOM     28  C   UNL     1      -0.048   0.690   2.440  0.00  0.00    +0.162 A 
ATOM     29  C   UNL     1      -0.162  -0.689   2.602  0.00  0.00    +0.163 A 
ATOM     30  C   UNL     1      -1.371  -1.315   2.364  0.00  0.00    +0.060 A 
ATOM     31  O   UNL     1       0.907  -1.435   2.995  0.00  0.00    -0.485 OA
ATOM     32  C   UNL     1       2.197  -0.828   2.862  0.00  0.00    +0.270 C 
ATOM     33  C   UNL     1       2.116   0.600   3.419  0.00  0.00    +0.270 C 
ATOM     34  O   UNL     1       1.135   1.320   2.665  0.00  0.00    -0.485 OA
ENDBRANCH  23  25
ENDBRANCH   3  23
TORSDOF 6
