REMARK  Name = ZINC12501608
REMARK  6 active torsions:
REMARK  status: ('A' for Active; 'I' for Inactive)
REMARK    1  A    between atoms: C_5  and  C_7
REMARK    2  A    between atoms: N_9  and  C_10
REMARK    3  A    between atoms: C_10  and  N_12
REMARK    4  A    between atoms: N_12  and  N_13
REMARK    5  A    between atoms: C_14  and  C_16
REMARK    6  A    between atoms: C_20  and  N_22
REMARK                            x       y       z     vdW  Elec       q    Type
REMARK                         _______ _______ _______ _____ _____    ______ ____
ROOT
ATOM      1  N   UNL     1      -1.033  -4.899  -0.015  0.00  0.00    -0.245 N 
ATOM      2  H   UNL     1      -1.015  -5.869  -0.021  0.00  0.00    +0.172 HD
ENDROOT
BRANCH   1   3
ATOM      3  N   UNL     1      -2.259  -4.221   0.001  0.00  0.00    -0.231 N 
ATOM      4  C   UNL     1      -3.414  -4.917   0.008  0.00  0.00    +0.260 C 
ATOM      5  O   UNL     1      -3.391  -6.132   0.001  0.00  0.00    -0.269 OA
ATOM      6  H   UNL     1      -2.277  -3.251   0.006  0.00  0.00    +0.173 HD
BRANCH   4   7
ATOM      7  C   UNL     1      -4.707  -4.202   0.025  0.00  0.00    +0.040 A 
ATOM      8  C   UNL     1      -4.736  -2.806   0.027  0.00  0.00    +0.014 A 
ATOM      9  C   UNL     1      -5.946  -2.145   0.043  0.00  0.00    +0.023 A 
ATOM     10  C   UNL     1      -7.131  -2.863   0.056  0.00  0.00    +0.071 A 
ATOM     11  C   UNL     1      -7.108  -4.247   0.054  0.00  0.00    +0.145 A 
ATOM     12  C   UNL     1      -5.904  -4.920   0.032  0.00  0.00    +0.047 A 
ATOM     13 CL   UNL     1      -8.650  -2.023   0.076  0.00  0.00    -0.081 Cl
BRANCH  11  14
ATOM     14  N   UNL     1      -8.378  -5.007   0.070  0.00  0.00    +0.058 N 
ATOM     15  O   UNL     1      -8.360  -6.216   0.069  0.00  0.00    -0.126 OA
ATOM     16  O   UNL     1      -9.434  -4.419   0.085  0.00  0.00    -0.126 OA
ENDBRANCH  11  14
ENDBRANCH   4   7
ENDBRANCH   1   3
BRANCH   1  17
ATOM     17  C   UNL     1       0.121  -4.203  -0.022  0.00  0.00    +0.153 C 
ATOM     18  S   UNL     1       1.619  -5.031  -0.042  0.00  0.00    -0.017 S 
BRANCH  17  21
ATOM     19  C   UNL     1       1.250  -2.160  -0.022  0.00  0.00    +0.251 C 
ATOM     20  O   UNL     1       2.314  -2.747  -0.035  0.00  0.00    -0.270 OA
ATOM     21  N   UNL     1       0.096  -2.855  -0.015  0.00  0.00    -0.263 N 
ATOM     22  H   UNL     1      -0.753  -2.386  -0.004  0.00  0.00    +0.157 HD
BRANCH  19  27
ATOM     23  C   UNL     1      -0.017   1.375   0.010  0.00  0.00    +0.001 A 
ATOM     24  C   UNL     1       1.170   2.087   0.002  0.00  0.00    +0.001 A 
ATOM     25  C   UNL     1       2.383   1.422  -0.013  0.00  0.00    +0.015 A 
ATOM     26  C   UNL     1       2.417   0.042  -0.021  0.00  0.00    +0.025 A 
ATOM     27  C   UNL     1       1.222  -0.683  -0.013  0.00  0.00    +0.050 A 
ATOM     28  C   UNL     1       0.002  -0.004   0.002  0.00  0.00    +0.014 A 
ATOM     29  I   UNL     1       4.255  -0.964  -0.044  0.00  0.00    -0.043 I 
ENDBRANCH  19  27
ENDBRANCH  17  21
ENDBRANCH   1  17
TORSDOF 6
