REMARK  Name = ZINC59398638
REMARK  6 active torsions:
REMARK  status: ('A' for Active; 'I' for Inactive)
REMARK    1  A    between atoms: C_1  and  C_2
REMARK    2  A    between atoms: C_5  and  C_8
REMARK    3  A    between atoms: C_15  and  C_35
REMARK    4  A    between atoms: C_16  and  C_26
REMARK    5  A    between atoms: C_17  and  C_19
REMARK    6  A    between atoms: N_28  and  C_29
REMARK                            x       y       z     vdW  Elec       q    Type
REMARK                         _______ _______ _______ _____ _____    ______ ____
ROOT
ATOM      1  C   UNL     1       1.758  -3.676   0.550  0.00  0.00    +0.028 C 
ATOM      2  C   UNL     1       1.420  -4.592   1.492  0.00  0.00    +0.081 A 
ATOM      3  C   UNL     1       1.458  -4.482   2.959  0.00  0.00    +0.268 A 
ATOM      4  O   UNL     1       1.833  -3.460   3.502  0.00  0.00    -0.266 OA
ATOM      5  N   UNL     1       1.067  -5.543   3.678  0.00  0.00    -0.275 N 
ATOM      6  C   UNL     1       0.651  -6.674   3.013  0.00  0.00    +0.178 A 
ATOM      7  N   UNL     1       0.249  -7.767   3.610  0.00  0.00    -0.228 NA
ATOM      8  C   UNL     1       0.187  -7.933   4.926  0.00  0.00    +0.051 C 
ATOM      9  C   UNL     1       0.556  -6.927   5.771  0.00  0.00    +0.063 C 
ATOM     10  C   UNL     1       1.034  -5.627   5.165  0.00  0.00    +0.160 C 
ATOM     11  C   UNL     1      -0.296  -9.244   5.491  0.00  0.00    +0.066 C 
ATOM     12  S   UNL     1       0.801  -6.255   1.288  0.00  0.00    -0.046 S 
ENDROOT
BRANCH   1  17
ATOM     13  C   UNL     1       4.327   1.226   2.100  0.00  0.00    +0.044 C 
ATOM     14  C   UNL     1       3.654  -0.060   1.694  0.00  0.00    -0.050 A 
ATOM     15  C   UNL     1       2.720  -0.054   0.672  0.00  0.00    +0.004 A 
ATOM     16  C   UNL     1       2.099  -1.226   0.294  0.00  0.00    +0.008 A 
ATOM     17  C   UNL     1       2.416  -2.422   0.946  0.00  0.00    -0.024 A 
ATOM     18  C   UNL     1       3.361  -2.420   1.978  0.00  0.00    +0.008 A 
ATOM     19  C   UNL     1       3.976  -1.240   2.340  0.00  0.00    +0.004 A 
ENDBRANCH   1  17
BRANCH  10  20
ATOM     20  C   UNL     1       0.143  -4.523   5.672  0.00  0.00    -0.020 A 
ATOM     21  C   UNL     1      -1.093  -4.310   5.091  0.00  0.00    +0.007 A 
ATOM     22  C   UNL     1      -1.911  -3.297   5.556  0.00  0.00    +0.020 A 
ATOM     23  C   UNL     1      -1.492  -2.496   6.603  0.00  0.00    +0.041 A 
ATOM     24  C   UNL     1      -0.255  -2.710   7.185  0.00  0.00    +0.020 A 
ATOM     25  C   UNL     1       0.559  -3.727   6.723  0.00  0.00    +0.007 A 
ATOM     26 CL   UNL     1      -2.518  -1.224   7.188  0.00  0.00    -0.084 Cl
ENDBRANCH  10  20
BRANCH   9  27
ATOM     27  C   UNL     1       0.493  -7.094   7.167  0.00  0.00    +0.248 C 
ATOM     28  O   UNL     1       1.512  -7.305   7.802  0.00  0.00    -0.270 OA
ATOM     29  N   UNL     1      -0.693  -7.021   7.801  0.00  0.00    -0.282 N 
ATOM     30  H   UNL     1      -1.513  -6.943   7.289  0.00  0.00    +0.155 HD
BRANCH  29  31
ATOM     31  C   UNL     1      -0.742  -7.059   9.198  0.00  0.00    +0.034 A 
ATOM     32  C   UNL     1       0.276  -6.481   9.946  0.00  0.00    +0.023 A 
ATOM     33  C   UNL     1       0.224  -6.519  11.326  0.00  0.00    +0.002 A 
ATOM     34  C   UNL     1      -0.840  -7.132  11.963  0.00  0.00    +0.000 A 
ATOM     35  C   UNL     1      -1.855  -7.708  11.221  0.00  0.00    +0.002 A 
ATOM     36  C   UNL     1      -1.812  -7.668   9.841  0.00  0.00    +0.023 A 
ENDBRANCH  29  31
ENDBRANCH   9  27
TORSDOF 4
