REMARK  Name = ZINC24549287
REMARK  8 active torsions:
REMARK  status: ('A' for Active; 'I' for Inactive)
REMARK    1  A    between atoms: C_1  and  C_2
REMARK    2  A    between atoms: C_2  and  C_3
REMARK    3  A    between atoms: C_4  and  C_15
REMARK    4  A    between atoms: N_7  and  C_8
REMARK    5  A    between atoms: N_17  and  C_18
REMARK    6  A    between atoms: C_18  and  C_19
REMARK    7  A    between atoms: C_19  and  C_21
REMARK    8  A    between atoms: C_19  and  N_26
REMARK                            x       y       z     vdW  Elec       q    Type
REMARK                         _______ _______ _______ _____ _____    ______ ____
ROOT
ATOM      1  C   UNL     1      -3.841   3.899   1.258  0.00  0.00    +0.247 C 
ATOM      2  O   UNL     1      -3.048   4.820   1.225  0.00  0.00    -0.270 OA
ATOM      3  N   UNL     1      -4.859   3.855   0.376  0.00  0.00    -0.312 N 
ATOM      4  H   UNL     1      -5.576   3.021   0.405  0.00  0.00    +0.149 HD
ENDROOT
BRANCH   1   6
ATOM      5  C   UNL     1      -2.701   2.743   3.222  0.00  0.00    +0.057 A 
ATOM      6  C   UNL     1      -3.689   2.830   2.261  0.00  0.00    +0.078 A 
ATOM      7  C   UNL     1      -4.524   1.701   2.418  0.00  0.00    +0.148 A 
ATOM      8  N   UNL     1      -4.066   0.994   3.415  0.00  0.00    -0.174 NA
ATOM      9  N   UNL     1      -2.929   1.624   3.933  0.00  0.00    -0.236 N 
BRANCH   9  10
ATOM     10  C   UNL     1      -2.157   1.165   5.010  0.00  0.00    +0.066 A 
ATOM     11  C   UNL     1      -0.772   1.151   4.917  0.00  0.00    +0.030 A 
ATOM     12  C   UNL     1      -0.014   0.704   5.980  0.00  0.00    +0.040 A 
ATOM     13  C   UNL     1      -0.634   0.259   7.136  0.00  0.00    +0.124 A 
ATOM     14  C   UNL     1      -2.016   0.268   7.229  0.00  0.00    +0.040 A 
ATOM     15  C   UNL     1      -2.778   0.719   6.169  0.00  0.00    +0.030 A 
ATOM     16  F   UNL     1       0.109  -0.184   8.173  0.00  0.00    -0.205 F 
ENDBRANCH   9  10
BRANCH   5  18
ATOM     17  C   UNL     1      -2.035   4.815   4.412  0.00  0.00    +0.010 C 
ATOM     18  C   UNL     1      -1.578   3.725   3.439  0.00  0.00    +0.053 C 
ENDBRANCH   5  18
ENDBRANCH   1   6
BRANCH   3  19
ATOM     19  C   UNL     1      -5.011   4.917  -0.622  0.00  0.00    +0.097 C 
BRANCH  19  20
ATOM     20  C   UNL     1      -6.165   4.571  -1.564  0.00  0.00    +0.016 C 
BRANCH  20  21
ATOM     21  N   UNL     1      -7.376   4.303  -0.777  0.00  0.00    +0.387 N 
ATOM     22  C   UNL     1      -8.493   3.910  -1.646  0.00  0.00    -0.078 C 
ATOM     23  C   UNL     1      -9.690   3.499  -0.786  0.00  0.00    -0.019 C 
ATOM     24  C   UNL     1     -10.101   4.676   0.104  0.00  0.00    -0.004 C 
ATOM     25  C   UNL     1      -8.906   5.096   0.964  0.00  0.00    -0.019 C 
ATOM     26  C   UNL     1      -7.731   5.460   0.053  0.00  0.00    -0.078 C 
ATOM     27  H   UNL     1      -7.164   3.459  -0.103  0.00  0.00    -0.081 HD
ENDBRANCH  20  21
BRANCH  20  28
ATOM     28  C   UNL     1      -6.418   5.728  -2.496  0.00  0.00    +0.093 A 
ATOM     29  C   UNL     1      -6.167   5.743  -3.817  0.00  0.00    +0.043 A 
ATOM     30  C   UNL     1      -6.555   7.017  -4.293  0.00  0.00    +0.041 A 
ATOM     31  C   UNL     1      -7.011   7.707  -3.232  0.00  0.00    +0.195 A 
ATOM     32  O   UNL     1      -6.926   6.921  -2.146  0.00  0.00    -0.469 OA
ENDBRANCH  20  28
ENDBRANCH  19  20
ENDBRANCH   3  19
TORSDOF 7
