REMARK  Name = ZINC01334469
REMARK  11 active torsions:
REMARK  status: ('A' for Active; 'I' for Inactive)
REMARK    1  A    between atoms: C_1  and  C_2
REMARK    2  A    between atoms: C_2  and  C_3
REMARK    3  A    between atoms: C_2  and  C_4
REMARK    4  A    between atoms: C_4  and  C_6
REMARK    5  A    between atoms: C_4  and  N_19
REMARK    6  A    between atoms: N_10  and  C_11
REMARK    7  A    between atoms: C_11  and  C_12
REMARK    8  A    between atoms: N_19  and  C_20
REMARK    9  A    between atoms: N_19  and  C_28
REMARK   10  A    between atoms: C_20  and  C_21
REMARK   11  A    between atoms: C_28  and  C_29
REMARK                            x       y       z     vdW  Elec       q    Type
REMARK                         _______ _______ _______ _____ _____    ______ ____
ROOT
ATOM      1  N   UNL     1      -2.505   0.504  -1.130  0.00  0.00    -0.284 NA
ENDROOT
BRANCH   1   2
ATOM      2  C   UNL     1      -1.738  -0.621  -0.579  0.00  0.00    +0.130 C 
BRANCH   2   3
ATOM      3  C   UNL     1      -0.434  -0.752  -1.324  0.00  0.00    +0.169 A 
ATOM      4  N   UNL     1       0.333   0.227  -1.738  0.00  0.00    -0.112 NA
ATOM      5  N   UNL     1       1.354  -0.290  -2.330  0.00  0.00    -0.023 NA
ATOM      6  N   UNL     1       1.258  -1.574  -2.304  0.00  0.00    -0.044 NA
ATOM      7  N   UNL     1       0.172  -1.898  -1.688  0.00  0.00    -0.223 N 
BRANCH   7   8
ATOM      8  C   UNL     1      -0.312  -3.257  -1.434  0.00  0.00    +0.182 C 
BRANCH   8   9
ATOM      9  C   UNL     1      -1.181  -3.703  -2.582  0.00  0.00    -0.026 A 
ATOM     10  C   UNL     1      -2.541  -3.456  -2.555  0.00  0.00    +0.008 A 
ATOM     11  C   UNL     1      -3.339  -3.864  -3.608  0.00  0.00    +0.038 A 
ATOM     12  C   UNL     1      -2.775  -4.520  -4.689  0.00  0.00    +0.123 A 
ATOM     13  C   UNL     1      -1.413  -4.767  -4.714  0.00  0.00    +0.038 A 
ATOM     14  C   UNL     1      -0.617  -4.354  -3.663  0.00  0.00    +0.008 A 
ATOM     15  F   UNL     1      -3.554  -4.920  -5.718  0.00  0.00    -0.205 F 
ENDBRANCH   8   9
ENDBRANCH   7   8
ENDBRANCH   2   3
BRANCH   2  17
ATOM     16  C   UNL     1      -2.771  -0.387   1.683  0.00  0.00    +0.009 C 
ATOM     17  C   UNL     1      -1.455  -0.369   0.903  0.00  0.00    +0.008 C 
ATOM     18  C   UNL     1      -0.530  -1.463   1.439  0.00  0.00    +0.009 C 
ENDBRANCH   2  17
ENDBRANCH   1   2
BRANCH   1  19
ATOM     19  C   UNL     1      -2.650   0.380  -2.586  0.00  0.00    +0.120 C 
BRANCH  19  20
ATOM     20  C   UNL     1      -3.753   1.290  -3.061  0.00  0.00    -0.033 A 
ATOM     21  C   UNL     1      -5.070   0.881  -2.976  0.00  0.00    +0.008 A 
ATOM     22  C   UNL     1      -6.083   1.716  -3.411  0.00  0.00    +0.038 A 
ATOM     23  C   UNL     1      -5.777   2.962  -3.931  0.00  0.00    +0.123 A 
ATOM     24  C   UNL     1      -4.456   3.371  -4.015  0.00  0.00    +0.038 A 
ATOM     25  C   UNL     1      -3.446   2.537  -3.575  0.00  0.00    +0.008 A 
ATOM     26  F   UNL     1      -6.765   3.779  -4.356  0.00  0.00    -0.205 F 
ENDBRANCH  19  20
ENDBRANCH   1  19
BRANCH   1  27
ATOM     27  C   UNL     1      -1.889   1.788  -0.769  0.00  0.00    +0.126 C 
BRANCH  27  28
ATOM     28  C   UNL     1      -2.462   2.271   0.538  0.00  0.00    +0.031 A 
ATOM     29  C   UNL     1      -1.638   2.508   1.591  0.00  0.00    +0.020 A 
ATOM     30  C   UNL     1      -2.225   2.976   2.846  0.00  0.00    +0.003 A 
ATOM     31  C   UNL     1      -1.424   3.236   3.965  0.00  0.00    +0.059 A 
ATOM     32  C   UNL     1      -2.005   3.678   5.135  0.00  0.00    +0.163 A 
ATOM     33  C   UNL     1      -3.388   3.868   5.206  0.00  0.00    +0.164 A 
ATOM     34  C   UNL     1      -4.188   3.612   4.105  0.00  0.00    +0.075 A 
ATOM     35  C   UNL     1      -3.618   3.165   2.920  0.00  0.00    +0.053 A 
ATOM     36  N   UNL     1      -4.400   2.905   1.812  0.00  0.00    -0.322 N 
ATOM     37  H   UNL     1      -5.360   3.036   1.863  0.00  0.00    +0.169 HD
ATOM     38  C   UNL     1      -3.850   2.480   0.662  0.00  0.00    +0.254 A 
ATOM     39  O   UNL     1      -4.571   2.265  -0.298  0.00  0.00    -0.268 OA
ATOM     40  O   UNL     1      -3.968   4.312   6.354  0.00  0.00    -0.485 OA
ATOM     41  C   UNL     1      -3.192   4.203   7.551  0.00  0.00    +0.270 C 
ATOM     42  C   UNL     1      -1.779   4.724   7.258  0.00  0.00    +0.270 C 
ATOM     43  O   UNL     1      -1.213   3.923   6.215  0.00  0.00    -0.485 OA
ENDBRANCH  27  28
ENDBRANCH   1  27
TORSDOF 9
