REMARK  Name = ZINC09116900
REMARK  6 active torsions:
REMARK  status: ('A' for Active; 'I' for Inactive)
REMARK    1  A    between atoms: C_1  and  O_2
REMARK    2  A    between atoms: O_2  and  C_3
REMARK    3  A    between atoms: C_8  and  C_9
REMARK    4  A    between atoms: C_9  and  N_10
REMARK    5  A    between atoms: C_20  and  S_23
REMARK    6  A    between atoms: S_23  and  C_26
REMARK                            x       y       z     vdW  Elec       q    Type
REMARK                         _______ _______ _______ _____ _____    ______ ____
ROOT
ATOM      1  N   UNL     1      -2.828   0.473  -1.329  0.00  0.00    -0.324 N 
ATOM      2  C   UNL     1      -3.997   1.175  -1.564  0.00  0.00    +0.137 A 
ATOM      3  C   UNL     1      -4.306   1.609  -2.857  0.00  0.00    +0.077 A 
ATOM      4  C   UNL     1      -5.478   2.320  -3.133  0.00  0.00    +0.087 A 
ATOM      5  C   UNL     1      -5.663   2.694  -4.465  0.00  0.00    +0.036 A 
ATOM      6  C   UNL     1      -4.740   2.367  -5.398  0.00  0.00    +0.048 A 
ATOM      7  S   UNL     1      -3.517   1.488  -4.441  0.00  0.00    -0.092 S 
ATOM      8  N   UNL     1      -6.306   2.561  -2.032  0.00  0.00    -0.192 N 
ATOM      9  C   UNL     1      -5.962   2.116  -0.787  0.00  0.00    +0.204 A 
ATOM     10  N   UNL     1      -4.827   1.432  -0.567  0.00  0.00    -0.209 NA
ATOM     11  C   UNL     1      -6.986   2.518   0.056  0.00  0.00    +0.249 A 
ATOM     12  N   UNL     1      -7.891   3.170  -0.664  0.00  0.00    -0.108 NA
ATOM     13  N   UNL     1      -7.533   3.220  -1.900  0.00  0.00    -0.057 NA
ATOM     14  H   UNL     1      -2.221   0.281  -2.062  0.00  0.00    +0.148 HD
ENDROOT
BRANCH  11  15
ATOM     15  S   UNL     1      -7.072   2.216   1.789  0.00  0.00    +0.047 S 
ATOM     16  O   UNL     1      -8.447   2.272   2.144  0.00  0.00    -0.163 OA
ATOM     17  O   UNL     1      -6.267   1.073   2.043  0.00  0.00    -0.163 OA
BRANCH  15  18
ATOM     18  C   UNL     1      -6.289   3.573   2.595  0.00  0.00    +0.095 A 
ATOM     19  C   UNL     1      -4.934   3.527   2.867  0.00  0.00    +0.027 A 
ATOM     20  C   UNL     1      -4.318   4.593   3.495  0.00  0.00    +0.002 A 
ATOM     21  C   UNL     1      -5.059   5.702   3.859  0.00  0.00    +0.000 A 
ATOM     22  C   UNL     1      -6.415   5.746   3.591  0.00  0.00    +0.002 A 
ATOM     23  C   UNL     1      -7.029   4.682   2.959  0.00  0.00    +0.027 A 
ENDBRANCH  15  18
ENDBRANCH  11  15
BRANCH   1  24
ATOM     24  C   UNL     1      -2.505   0.019   0.025  0.00  0.00    +0.142 C 
BRANCH  24  30
ATOM     25  C   UNL     1       0.002  -0.004   0.002  0.00  0.00    +0.125 A 
ATOM     26  C   UNL     1       1.212  -0.682  -0.019  0.00  0.00    +0.046 A 
ATOM     27  C   UNL     1       1.228  -2.064  -0.021  0.00  0.00    +0.004 A 
ATOM     28  C   UNL     1       0.040  -2.770  -0.013  0.00  0.00    +0.001 A 
ATOM     29  C   UNL     1      -1.167  -2.096   0.002  0.00  0.00    +0.009 A 
ATOM     30  C   UNL     1      -1.189  -0.715   0.010  0.00  0.00    +0.011 A 
BRANCH  25  32
ATOM     31  C   UNL     1       1.248   2.021   0.001  0.00  0.00    +0.277 C 
ATOM     32  O   UNL     1      -0.016   1.355   0.009  0.00  0.00    -0.495 OA
ENDBRANCH  25  32
ENDBRANCH  24  30
ENDBRANCH   1  24
TORSDOF 5
