REMARK  Name = ZINC01375259
REMARK  11 active torsions:
REMARK  status: ('A' for Active; 'I' for Inactive)
REMARK    1  A    between atoms: C_1  and  C_2
REMARK    2  A    between atoms: C_2  and  C_3
REMARK    3  A    between atoms: C_3  and  C_5
REMARK    4  A    between atoms: C_3  and  N_17
REMARK    5  A    between atoms: N_9  and  C_10
REMARK    6  A    between atoms: C_10  and  C_11
REMARK    7  A    between atoms: N_17  and  C_18
REMARK    8  A    between atoms: N_17  and  C_33
REMARK    9  A    between atoms: C_18  and  C_19
REMARK   10  A    between atoms: C_22  and  C_32
REMARK   11  A    between atoms: C_24  and  C_31
REMARK                            x       y       z     vdW  Elec       q    Type
REMARK                         _______ _______ _______ _____ _____    ______ ____
ROOT
ATOM      1  N   UNL     1      -0.096  -0.007  -2.508  0.00  0.00    +0.391 N 
ATOM      2  H   UNL     1      -0.921  -0.583  -2.425  0.00  0.00    -0.080 HD
ENDROOT
BRANCH   1   3
ATOM      3  C   UNL     1       0.497  -0.191  -3.839  0.00  0.00    -0.067 C 
ATOM      4  C   UNL     1      -0.389   0.479  -4.910  0.00  0.00    -0.015 C 
ATOM      5  C   UNL     1      -0.305  -0.477  -6.125  0.00  0.00    -0.002 C 
ATOM      6  C   UNL     1      -0.301  -1.876  -5.460  0.00  0.00    -0.002 C 
ATOM      7  C   UNL     1       0.553  -1.688  -4.189  0.00  0.00    -0.015 C 
ENDBRANCH   1   3
BRANCH   1   8
ATOM      8  C   UNL     1       0.878  -0.397  -1.480  0.00  0.00    +0.003 C 
BRANCH   8   9
ATOM      9  C   UNL     1       2.131   0.425  -1.639  0.00  0.00    +0.138 A 
ATOM     10  N   UNL     1       2.736   0.720  -2.763  0.00  0.00    -0.115 NA
ATOM     11  N   UNL     1       3.769   1.437  -2.483  0.00  0.00    -0.023 NA
ATOM     12  N   UNL     1       3.839   1.607  -1.209  0.00  0.00    -0.044 NA
ATOM     13  N   UNL     1       2.843   1.003  -0.654  0.00  0.00    -0.228 N 
BRANCH  13  14
ATOM     14  C   UNL     1       2.546   0.953   0.780  0.00  0.00    +0.178 C 
BRANCH  14  15
ATOM     15  C   UNL     1       3.373  -0.156   1.434  0.00  0.00    +0.140 C 
ATOM     16  C   UNL     1       3.142  -0.168   2.966  0.00  0.00    +0.035 C 
ATOM     17  C   UNL     1       3.490  -1.643   3.305  0.00  0.00    +0.031 C 
ATOM     18  C   UNL     1       2.999  -2.393   2.049  0.00  0.00    +0.160 C 
ATOM     19  O   UNL     1       2.931  -1.444   0.976  0.00  0.00    -0.375 OA
ENDBRANCH  14  15
ENDBRANCH  13  14
ENDBRANCH   8   9
BRANCH   8  21
ATOM     20  C   UNL     1      -0.025  -2.722  -1.337  0.00  0.00    +0.002 C 
ATOM     21  C   UNL     1       1.217  -1.881  -1.634  0.00  0.00    -0.011 C 
ENDBRANCH   8  21
ENDBRANCH   1   8
BRANCH   1  22
ATOM     22  C   UNL     1      -0.464   1.403  -2.326  0.00  0.00    -0.036 C 
BRANCH  22  23
ATOM     23  C   UNL     1      -1.228   1.561  -1.036  0.00  0.00    +0.001 A 
ATOM     24  C   UNL     1      -0.606   2.058   0.061  0.00  0.00    +0.017 A 
ATOM     25  C   UNL     1      -1.376   2.200   1.298  0.00  0.00    +0.002 A 
ATOM     26  C   UNL     1      -0.789   2.707   2.462  0.00  0.00    -0.041 A 
ATOM     27  C   UNL     1      -1.536   2.827   3.600  0.00  0.00    +0.007 A 
ATOM     28  C   UNL     1      -2.871   2.449   3.611  0.00  0.00    -0.048 A 
ATOM     29  C   UNL     1      -3.470   1.946   2.476  0.00  0.00    +0.029 A 
ATOM     30  C   UNL     1      -2.730   1.816   1.306  0.00  0.00    +0.050 A 
ATOM     31  N   UNL     1      -3.304   1.317   0.155  0.00  0.00    -0.322 N 
ATOM     32  H   UNL     1      -4.237   1.053   0.163  0.00  0.00    +0.169 HD
ATOM     33  C   UNL     1      -2.590   1.196  -0.977  0.00  0.00    +0.251 A 
ATOM     34  O   UNL     1      -3.131   0.756  -1.977  0.00  0.00    -0.268 OA
ATOM     35  C   UNL     1      -3.675   2.589   4.878  0.00  0.00    +0.044 C 
ATOM     36  C   UNL     1       0.660   3.119   2.461  0.00  0.00    +0.044 C 
ENDBRANCH  22  23
ENDBRANCH   1  22
TORSDOF 8
