REMARK  Name = ZINC01864728
REMARK  3 active torsions:
REMARK  status: ('A' for Active; 'I' for Inactive)
REMARK    1  A    between atoms: C_1  and  C_2
REMARK    2  A    between atoms: C_2  and  C_34
REMARK    3  A    between atoms: C_13  and  C_20
REMARK                            x       y       z     vdW  Elec       q    Type
REMARK                         _______ _______ _______ _____ _____    ______ ____
ROOT
ATOM      1  C   UNL     1       5.782   3.941   2.255  0.00  0.00    +0.011 C 
ATOM      2  C   UNL     1       6.199   4.469   0.881  0.00  0.00    -0.023 C 
ATOM      3  C   UNL     1       5.630   3.562  -0.211  0.00  0.00    +0.058 C 
ATOM      4  C   UNL     1       4.118   3.474  -0.041  0.00  0.00    +0.032 C 
ATOM      5  N   UNL     1       3.605   2.323  -0.050  0.00  0.00    -0.254 NA
ATOM      6  C   UNL     1       2.417   1.707  -0.027  0.00  0.00    +0.085 A 
ATOM      7  C   UNL     1       2.417   0.300  -0.072  0.00  0.00    +0.029 A 
ATOM      8  C   UNL     1       1.240  -0.409  -0.087  0.00  0.00    +0.002 A 
ATOM      9  C   UNL     1       0.025   0.255  -0.058  0.00  0.00    +0.002 A 
ATOM     10  C   UNL     1      -0.001   1.632  -0.006  0.00  0.00    +0.025 A 
ATOM     11  C   UNL     1       1.182   2.365   0.018  0.00  0.00    +0.053 A 
ATOM     12  N   UNL     1       1.104   3.740   0.110  0.00  0.00    -0.334 N 
ATOM     13  C   UNL     1       2.046   4.571   0.818  0.00  0.00    +0.118 C 
ATOM     14  C   UNL     1       3.345   4.757   0.053  0.00  0.00    +0.124 C 
ATOM     15  C   UNL     1       4.153   5.836   0.712  0.00  0.00    +0.144 C 
ATOM     16  O   UNL     1       3.569   6.724   1.284  0.00  0.00    -0.297 OA
ATOM     17  C   UNL     1       5.644   5.881   0.685  0.00  0.00    +0.081 C 
ATOM     18  C   UNL     1       7.725   4.499   0.780  0.00  0.00    +0.011 C 
ATOM     19  H   UNL     1       0.362   4.180  -0.333  0.00  0.00    +0.147 HD
ENDROOT
BRANCH  13  20
ATOM     20  C   UNL     1       2.353   3.935   2.149  0.00  0.00    -0.011 A 
ATOM     21  C   UNL     1       1.611   2.842   2.592  0.00  0.00    -0.012 A 
ATOM     22  C   UNL     1       0.569   2.303   1.808  0.00  0.00    +0.009 A 
ATOM     23  C   UNL     1      -0.131   1.234   2.267  0.00  0.00    +0.001 A 
ATOM     24  C   UNL     1       0.153   0.645   3.499  0.00  0.00    +0.001 A 
ATOM     25  C   UNL     1       1.144   1.111   4.301  0.00  0.00    +0.008 A 
ATOM     26  C   UNL     1       1.913   2.220   3.886  0.00  0.00    -0.017 A 
ATOM     27  C   UNL     1       2.937   2.725   4.684  0.00  0.00    +0.017 A 
ATOM     28  C   UNL     1       3.677   3.821   4.243  0.00  0.00    -0.017 A 
ATOM     29  C   UNL     1       3.378   4.440   2.948  0.00  0.00    -0.012 A 
ATOM     30  C   UNL     1       4.147   5.548   2.533  0.00  0.00    +0.009 A 
ATOM     31  C   UNL     1       5.138   6.014   3.335  0.00  0.00    +0.001 A 
ATOM     32  C   UNL     1       5.422   5.425   4.568  0.00  0.00    +0.001 A 
ATOM     33  C   UNL     1       4.722   4.357   5.027  0.00  0.00    +0.008 A 
ENDBRANCH  13  20
TORSDOF 1
