REMARK  Name = ZINC20214323
REMARK  8 active torsions:
REMARK  status: ('A' for Active; 'I' for Inactive)
REMARK    1  A    between atoms: C_1  and  C_2
REMARK    2  A    between atoms: C_2  and  O_3
REMARK    3  A    between atoms: O_3  and  C_4
REMARK    4  A    between atoms: C_4  and  C_6
REMARK    5  A    between atoms: C_7  and  C_19
REMARK    6  A    between atoms: C_12  and  C_14
REMARK    7  A    between atoms: C_19  and  N_20
REMARK    8  A    between atoms: N_23  and  C_26
REMARK                            x       y       z     vdW  Elec       q    Type
REMARK                         _______ _______ _______ _____ _____    ______ ____
ROOT
ATOM      1  C   UNL     1      -1.649  -2.890   0.665  0.00  0.00    +0.082 C 
ATOM      2  C   UNL     1      -1.390  -2.035  -0.348  0.00  0.00    +0.038 C 
ATOM      3  N   UNL     1      -0.982  -2.492  -1.569  0.00  0.00    -0.271 N 
ATOM      4  C   UNL     1      -0.799  -3.787  -1.853  0.00  0.00    +0.304 C 
ATOM      5  O   UNL     1      -0.428  -4.097  -2.969  0.00  0.00    -0.252 OA
ATOM      6  N   UNL     1      -1.017  -4.759  -0.945  0.00  0.00    -0.285 N 
ATOM      7  C   UNL     1      -1.466  -4.371   0.402  0.00  0.00    +0.179 C 
ATOM      8  H   UNL     1      -0.784  -1.781  -2.384  0.00  0.00    +0.156 HD
ATOM      9  H   UNL     1      -0.867  -5.821  -1.191  0.00  0.00    +0.151 HD
ENDROOT
BRANCH   7  10
ATOM     10  C   UNL     1      -0.463  -4.898   1.396  0.00  0.00    +0.130 A 
ATOM     11  C   UNL     1      -0.752  -5.567   2.526  0.00  0.00    +0.047 A 
ATOM     12  C   UNL     1       0.480  -5.869   3.151  0.00  0.00    +0.041 A 
ATOM     13  C   UNL     1       1.449  -5.367   2.364  0.00  0.00    +0.195 A 
ATOM     14  O   UNL     1       0.872  -4.785   1.300  0.00  0.00    -0.466 OA
ENDBRANCH   7  10
BRANCH   1  15
ATOM     15  C   UNL     1      -2.077  -2.419   1.928  0.00  0.00    +0.339 C 
ATOM     16  O   UNL     1      -1.280  -2.319   2.842  0.00  0.00    -0.245 OA
BRANCH  15  17
ATOM     17  O   UNL     1      -3.369  -2.080   2.120  0.00  0.00    -0.462 OA
BRANCH  17  19
ATOM     18  C   UNL     1      -5.224  -1.279   3.446  0.00  0.00    +0.048 C 
ATOM     19  C   UNL     1      -3.731  -1.612   3.421  0.00  0.00    +0.229 C 
ENDBRANCH  17  19
ENDBRANCH  15  17
ENDBRANCH   1  15
BRANCH   2  20
ATOM     20  C   UNL     1      -1.560  -0.554  -0.130  0.00  0.00    +0.136 C 
BRANCH  20  21
ATOM     21  N   UNL     1      -0.257   0.112  -0.254  0.00  0.00    -0.294 NA
ATOM     22  C   UNL     1      -0.413   1.573  -0.284  0.00  0.00    +0.103 C 
ATOM     23  C   UNL     1       0.955   2.226  -0.494  0.00  0.00    +0.120 C 
ATOM     24  N   UNL     1       1.861   1.818   0.589  0.00  0.00    -0.327 N 
ATOM     25  C   UNL     1       2.017   0.357   0.619  0.00  0.00    +0.120 C 
ATOM     26  C   UNL     1       0.648  -0.296   0.829  0.00  0.00    +0.103 C 
BRANCH  24  27
ATOM     27  C   UNL     1       3.100   2.451   0.470  0.00  0.00    +0.030 A 
ATOM     28  C   UNL     1       4.264   1.696   0.404  0.00  0.00    +0.023 A 
ATOM     29  C   UNL     1       5.487   2.326   0.282  0.00  0.00    +0.002 A 
ATOM     30  C   UNL     1       5.555   3.706   0.237  0.00  0.00    +0.000 A 
ATOM     31  C   UNL     1       4.398   4.461   0.307  0.00  0.00    +0.002 A 
ATOM     32  C   UNL     1       3.171   3.838   0.424  0.00  0.00    +0.023 A 
ENDBRANCH  24  27
ENDBRANCH  20  21
ENDBRANCH   2  20
TORSDOF 7
