REMARK  Name = ZINC08610206
REMARK  7 active torsions:
REMARK  status: ('A' for Active; 'I' for Inactive)
REMARK    1  A    between atoms: C_1  and  C_2
REMARK    2  A    between atoms: C_4  and  C_31
REMARK    3  A    between atoms: C_5  and  S_9
REMARK    4  A    between atoms: C_6  and  C_8
REMARK    5  A    between atoms: S_9  and  N_12
REMARK    6  A    between atoms: N_12  and  C_13
REMARK    7  A    between atoms: C_16  and  C_19
REMARK                            x       y       z     vdW  Elec       q    Type
REMARK                         _______ _______ _______ _____ _____    ______ ____
ROOT
ATOM      1  C   UNL     1       1.916  -6.075   0.341  0.00  0.00    +0.048 A 
ATOM      2  C   UNL     1       2.397  -4.875   0.851  0.00  0.00    +0.025 A 
ATOM      3  C   UNL     1       3.514  -4.866   1.659  0.00  0.00    +0.012 A 
ATOM      4  C   UNL     1       4.160  -6.063   1.966  0.00  0.00    +0.002 A 
ATOM      5  C   UNL     1       3.675  -7.266   1.454  0.00  0.00    +0.012 A 
ATOM      6  C   UNL     1       2.555  -7.270   0.651  0.00  0.00    +0.025 A 
ENDROOT
BRANCH   4   7
ATOM      7  C   UNL     1       5.362  -6.056   2.834  0.00  0.00    +0.093 A 
ATOM      8  C   UNL     1       6.015  -7.256   3.138  0.00  0.00    +0.033 A 
ATOM      9  C   UNL     1       7.131  -7.199   3.952  0.00  0.00    +0.047 A 
ATOM     10  C   UNL     1       7.538  -5.947   4.420  0.00  0.00    +0.144 A 
ATOM     11  N   UNL     1       6.858  -4.862   4.081  0.00  0.00    -0.134 NA
ATOM     12  N   UNL     1       5.824  -4.912   3.321  0.00  0.00    -0.147 NA
ATOM     13  N   UNL     1       8.654  -5.841   5.242  0.00  0.00    -0.314 N 
ATOM     14  C   UNL     1       8.963  -4.577   5.925  0.00  0.00    +0.106 C 
ATOM     15  C   UNL     1       9.121  -4.853   7.424  0.00  0.00    +0.019 C 
ATOM     16  C   UNL     1      10.168  -5.950   7.629  0.00  0.00    +0.003 C 
ATOM     17  C   UNL     1       9.700  -7.238   6.947  0.00  0.00    +0.019 C 
ATOM     18  C   UNL     1       9.545  -6.991   5.448  0.00  0.00    +0.106 C 
ENDBRANCH   4   7
BRANCH   1  19
ATOM     19  N   UNL     1       0.785  -6.081  -0.477  0.00  0.00    -0.216 N 
ATOM     20  H   UNL     1       0.788  -6.588  -1.304  0.00  0.00    +0.174 HD
BRANCH  19  21
ATOM     21  S   UNL     1      -0.561  -5.224  -0.035  0.00  0.00    +0.073 S 
ATOM     22  O   UNL     1      -0.784  -5.499   1.341  0.00  0.00    -0.150 OA
ATOM     23  O   UNL     1      -1.544  -5.471  -1.031  0.00  0.00    -0.150 OA
BRANCH  21  28
ATOM     24  C   UNL     1       0.851   0.630  -0.418  0.00  0.00    +0.044 C 
ATOM     25  C   UNL     1       0.498  -0.832  -0.322  0.00  0.00    -0.050 A 
ATOM     26  C   UNL     1       0.513  -1.468   0.905  0.00  0.00    +0.008 A 
ATOM     27  C   UNL     1       0.190  -2.809   0.993  0.00  0.00    -0.023 A 
ATOM     28  C   UNL     1      -0.150  -3.514  -0.147  0.00  0.00    +0.114 A 
ATOM     29  C   UNL     1      -0.166  -2.878  -1.374  0.00  0.00    -0.023 A 
ATOM     30  C   UNL     1       0.154  -1.536  -1.461  0.00  0.00    +0.008 A 
ATOM     31  C   UNL     1      -0.535  -3.647  -2.616  0.00  0.00    +0.046 C 
ATOM     32  C   UNL     1       0.207  -3.503   2.330  0.00  0.00    +0.046 C 
ENDBRANCH  21  28
ENDBRANCH  19  21
ENDBRANCH   1  19
TORSDOF 4
