REMARK  Name = ZINC00213014
REMARK  4 active torsions:
REMARK  status: ('A' for Active; 'I' for Inactive)
REMARK    1  A    between atoms: C_1  and  C_2
REMARK    2  A    between atoms: C_2  and  C_3
REMARK    3  A    between atoms: C_2  and  C_4
REMARK    4  A    between atoms: N_9  and  C_13
REMARK                            x       y       z     vdW  Elec       q    Type
REMARK                         _______ _______ _______ _____ _____    ______ ____
ROOT
ATOM      1  C   UNL     1       1.287  -4.840  -0.113  0.00  0.00    +0.188 C 
ATOM      2  C   UNL     1       0.137  -3.910  -0.452  0.00  0.00    +0.352 C 
ATOM      3  O   UNL     1      -0.778  -4.262  -1.167  0.00  0.00    -0.247 OA
ATOM      4  O   UNL     1       0.185  -2.674   0.085  0.00  0.00    -0.337 OA
ATOM      5  N   UNL     1       1.238  -2.078  -0.021  0.00  0.00    -0.082 N 
ATOM      6  C   UNL     1       2.421  -2.697  -0.138  0.00  0.00    +0.340 C 
ATOM      7  O   UNL     1       3.436  -2.028  -0.178  0.00  0.00    -0.249 OA
ATOM      8  N   UNL     1       2.519  -4.040  -0.213  0.00  0.00    -0.283 N 
ATOM      9  H   UNL     1       3.381  -4.469  -0.331  0.00  0.00    +0.151 HD
ENDROOT
BRANCH   5  10
ATOM     10  C   UNL     1       1.215  -0.681  -0.013  0.00  0.00    +0.077 A 
ATOM     11  C   UNL     1       1.763   0.030  -1.075  0.00  0.00    +0.028 A 
ATOM     12  C   UNL     1       1.739   1.410  -1.065  0.00  0.00    +0.017 A 
ATOM     13  C   UNL     1       1.170   2.086   0.001  0.00  0.00    +0.018 A 
ATOM     14  C   UNL     1       0.625   1.381   1.059  0.00  0.00    +0.017 A 
ATOM     15  C   UNL     1       0.646   0.001   1.055  0.00  0.00    +0.028 A 
ATOM     16 BR   UNL     1       1.140   3.977   0.010  0.00  0.00    -0.050 Br
ENDBRANCH   5  10
BRANCH   1  18
ATOM     17  C   UNL     1      -0.158  -6.204   1.402  0.00  0.00    +0.009 C 
ATOM     18  C   UNL     1       1.125  -5.375   1.312  0.00  0.00    +0.014 C 
ATOM     19  C   UNL     1       2.326  -6.254   1.666  0.00  0.00    +0.009 C 
ENDBRANCH   1  18
TORSDOF 2
