REMARK  Name = ZINC39315161
REMARK  18 active torsions:
REMARK  status: ('A' for Active; 'I' for Inactive)
REMARK    1  A    between atoms: C_1  and  C_2
REMARK    2  A    between atoms: C_2  and  O_3
REMARK    3  A    between atoms: O_3  and  C_4
REMARK    4  A    between atoms: C_4  and  C_6
REMARK    5  A    between atoms: C_6  and  C_40
REMARK    6  A    between atoms: C_7  and  C_8
REMARK    7  A    between atoms: C_11  and  C_14
REMARK    8  A    between atoms: C_14  and  C_16
REMARK    9  A    between atoms: C_14  and  C_25
REMARK   10  A    between atoms: C_19  and  N_22
REMARK   11  A    between atoms: N_22  and  C_23
REMARK   12  A    between atoms: N_22  and  C_24
REMARK   13  A    between atoms: C_29  and  C_31
REMARK   14  A    between atoms: C_32  and  C_33
REMARK   15  A    between atoms: C_32  and  C_35
REMARK   16  A    between atoms: C_35  and  O_37
REMARK   17  A    between atoms: O_37  and  C_38
REMARK   18  A    between atoms: C_38  and  C_39
REMARK                            x       y       z     vdW  Elec       q    Type
REMARK                         _______ _______ _______ _____ _____    ______ ____
ROOT
ATOM      1  C   UNL     1      -8.019  -4.168   0.199  0.00  0.00    +0.094 C 
ENDROOT
BRANCH   1   5
ATOM      2  C   UNL     1      -4.371  -4.364  -0.255  0.00  0.00    +0.041 A 
ATOM      3  C   UNL     1      -4.681  -5.709  -0.103  0.00  0.00    +0.027 A 
ATOM      4  C   UNL     1      -6.061  -5.793   0.082  0.00  0.00    +0.024 A 
ATOM      5  C   UNL     1      -6.566  -4.533   0.043  0.00  0.00    +0.026 A 
ATOM      6  N   UNL     1      -5.551  -3.656  -0.156  0.00  0.00    -0.358 N 
ATOM      7  H   UNL     1      -5.640  -2.693  -0.219  0.00  0.00    +0.166 HD
BRANCH   2   9
ATOM      8  C   UNL     1      -2.911  -2.448  -0.476  0.00  0.00    +0.137 C 
ATOM      9  C   UNL     1      -3.090  -3.823  -0.466  0.00  0.00    +0.051 C 
BRANCH   8  10
ATOM     10  C   UNL     1      -1.561  -1.884  -0.576  0.00  0.00    +0.350 C 
ATOM     11  O   UNL     1      -0.598  -2.623  -0.650  0.00  0.00    -0.244 OA
BRANCH  10  12
ATOM     12  O   UNL     1      -1.387  -0.547  -0.586  0.00  0.00    -0.461 OA
BRANCH  12  14
ATOM     13  C   UNL     1      -0.047   1.462  -0.682  0.00  0.00    +0.048 C 
ATOM     14  C   UNL     1      -0.044  -0.068  -0.686  0.00  0.00    +0.229 C 
ENDBRANCH  12  14
ENDBRANCH  10  12
ENDBRANCH   8  10
BRANCH   8  15
ATOM     15  C   UNL     1      -4.045  -1.578  -0.389  0.00  0.00    +0.106 C 
ATOM     16  N   UNL     1      -4.945  -0.887  -0.320  0.00  0.00    -0.191 NA
ENDBRANCH   8  15
ENDBRANCH   2   9
ENDBRANCH   1   5
BRANCH   1  17
ATOM     17  C   UNL     1      -8.733  -4.372  -1.112  0.00  0.00    -0.036 A 
ATOM     18  C   UNL     1      -8.768  -5.627  -1.691  0.00  0.00    +0.006 A 
ATOM     19  C   UNL     1      -9.421  -5.817  -2.893  0.00  0.00    +0.023 A 
ATOM     20  C   UNL     1     -10.043  -4.745  -3.521  0.00  0.00    +0.029 A 
ATOM     21  C   UNL     1     -10.005  -3.485  -2.937  0.00  0.00    +0.023 A 
ATOM     22  C   UNL     1      -9.355  -3.304  -1.732  0.00  0.00    +0.006 A 
BRANCH  20  23
ATOM     23  N   UNL     1     -10.704  -4.934  -4.737  0.00  0.00    -0.336 N 
ATOM     24  C   UNL     1     -10.742  -6.263  -5.351  0.00  0.00    +0.129 C 
ATOM     25  C   UNL     1     -11.359  -3.803  -5.397  0.00  0.00    +0.129 C 
ENDBRANCH  20  23
ENDBRANCH   1  17
BRANCH   1  26
ATOM     26  C   UNL     1      -8.656  -5.057   1.270  0.00  0.00    +0.142 C 
ATOM     27  C   UNL     1     -10.104  -4.673   1.474  0.00  0.00    +0.002 C 
ATOM     28  C   UNL     1     -10.820  -5.750   1.168  0.00  0.00    +0.025 C 
ATOM     29  C   UNL     1      -9.919  -6.841   0.767  0.00  0.00    +0.060 C 
ATOM     30  N   UNL     1      -8.674  -6.455   0.822  0.00  0.00    -0.276 NA
BRANCH  29  31
ATOM     31  C   UNL     1     -10.361  -8.187   0.360  0.00  0.00    +0.053 C 
ATOM     32  C   UNL     1      -9.443  -9.167   0.138  0.00  0.00    +0.137 C 
BRANCH  32  33
ATOM     33  C   UNL     1      -8.061  -8.933   0.431  0.00  0.00    +0.106 C 
ATOM     34  N   UNL     1      -6.965  -8.747   0.664  0.00  0.00    -0.191 NA
ENDBRANCH  32  33
BRANCH  32  35
ATOM     35  C   UNL     1      -9.872 -10.471  -0.405  0.00  0.00    +0.350 C 
ATOM     36  O   UNL     1     -11.044 -10.670  -0.654  0.00  0.00    -0.244 OA
BRANCH  35  37
ATOM     37  O   UNL     1      -8.963 -11.441  -0.625  0.00  0.00    -0.461 OA
BRANCH  37  38
ATOM     38  C   UNL     1      -9.448 -12.678  -1.151  0.00  0.00    +0.229 C 
ATOM     39  C   UNL     1      -8.279 -13.649  -1.332  0.00  0.00    +0.048 C 
ENDBRANCH  37  38
ENDBRANCH  35  37
ENDBRANCH  32  35
ENDBRANCH  29  31
ENDBRANCH   1  26
TORSDOF 14
