REMARK  Name = ZINC16918493
REMARK  12 active torsions:
REMARK  status: ('A' for Active; 'I' for Inactive)
REMARK    1  A    between atoms: C_1  and  C_2
REMARK    2  A    between atoms: C_2  and  C_3
REMARK    3  A    between atoms: C_3  and  C_5
REMARK    4  A    between atoms: C_3  and  O_7
REMARK    5  A    between atoms: O_7  and  C_8
REMARK    6  A    between atoms: C_11  and  C_17
REMARK    7  A    between atoms: C_13  and  O_14
REMARK    8  A    between atoms: O_14  and  C_15
REMARK    9  A    between atoms: C_15  and  C_16
REMARK   10  A    between atoms: N_21  and  N_25
REMARK   11  A    between atoms: N_25  and  C_26
REMARK   12  A    between atoms: C_29  and  N_32
REMARK                            x       y       z     vdW  Elec       q    Type
REMARK                         _______ _______ _______ _____ _____    ______ ____
ROOT
ATOM      1  C   UNL     1      -6.513   2.830  -1.986  0.00  0.00    +0.028 C 
ATOM      2  C   UNL     1      -6.403   1.989  -0.927  0.00  0.00    +0.079 C 
ATOM      3  C   UNL     1      -6.166   0.532  -0.902  0.00  0.00    +0.275 C 
ATOM      4  O   UNL     1      -6.033  -0.112  -1.927  0.00  0.00    -0.267 OA
ATOM      5  N   UNL     1      -6.104  -0.039   0.289  0.00  0.00    -0.172 N 
ATOM      6  C   UNL     1      -6.257   0.677   1.422  0.00  0.00    +0.138 C 
ATOM      7  S   UNL     1      -6.218   0.125   3.042  0.00  0.00    -0.026 S 
ATOM      8  S   UNL     1      -6.507   2.340   0.823  0.00  0.00    -0.059 S 
ENDROOT
BRANCH   1  12
ATOM      9  C   UNL     1      -5.687   1.421  -5.903  0.00  0.00    +0.163 A 
ATOM     10  C   UNL     1      -4.930   0.971  -4.830  0.00  0.00    +0.050 A 
ATOM     11  C   UNL     1      -5.191   1.429  -3.558  0.00  0.00    +0.012 A 
ATOM     12  C   UNL     1      -6.229   2.344  -3.343  0.00  0.00    -0.020 A 
ATOM     13  C   UNL     1      -6.992   2.797  -4.426  0.00  0.00    +0.057 A 
ATOM     14  C   UNL     1      -6.719   2.336  -5.699  0.00  0.00    +0.162 A 
BRANCH   9  15
ATOM     15  O   UNL     1      -5.422   0.969  -7.157  0.00  0.00    -0.474 OA
BRANCH  15  16
ATOM     16  C   UNL     1      -4.275   0.132  -7.315  0.00  0.00    +0.285 C 
BRANCH  16  17
ATOM     17  C   UNL     1      -4.654  -1.299  -7.033  0.00  0.00    +0.396 C 
ATOM     18  O   UNL     1      -5.808  -1.587  -6.817  0.00  0.00    -0.242 OA
ATOM     19  O   UNL     1      -3.711  -2.254  -7.023  0.00  0.00    -0.242 OA
ENDBRANCH  16  17
BRANCH  16  21
ATOM     20  C   UNL     1      -3.251   1.673  -8.994  0.00  0.00    +0.008 C 
ATOM     21  C   UNL     1      -3.752   0.249  -8.748  0.00  0.00    +0.053 C 
ENDBRANCH  16  21
ENDBRANCH  15  16
ENDBRANCH   9  15
BRANCH  14  22
ATOM     22  O   UNL     1      -7.458   2.775  -6.753  0.00  0.00    -0.489 OA
BRANCH  22  23
ATOM     23  C   UNL     1      -8.499   3.712  -6.471  0.00  0.00    +0.226 C 
ATOM     24  C   UNL     1      -9.214   4.087  -7.770  0.00  0.00    +0.048 C 
ENDBRANCH  22  23
ENDBRANCH  14  22
ENDBRANCH   1  12
BRANCH   5  25
ATOM     25  N   UNL     1      -5.881  -1.419   0.376  0.00  0.00    -0.256 N 
ATOM     26  H   UNL     1      -6.597  -2.040   0.168  0.00  0.00    +0.171 HD
BRANCH  25  27
ATOM     27  C   UNL     1      -4.629  -1.902   0.763  0.00  0.00    +0.045 A 
ATOM     28  C   UNL     1      -4.406  -3.270   0.850  0.00  0.00    +0.027 A 
ATOM     29  C   UNL     1      -3.165  -3.744   1.227  0.00  0.00    +0.034 A 
ATOM     30  C   UNL     1      -2.146  -2.857   1.524  0.00  0.00    +0.126 A 
ATOM     31  C   UNL     1      -2.366  -1.494   1.444  0.00  0.00    +0.034 A 
ATOM     32  C   UNL     1      -3.605  -1.014   1.066  0.00  0.00    +0.027 A 
BRANCH  30  33
ATOM     33  N   UNL     1      -0.817  -3.368   1.929  0.00  0.00    +0.056 N 
ATOM     34  O   UNL     1      -0.622  -4.568   2.000  0.00  0.00    -0.126 OA
ATOM     35  O   UNL     1       0.081  -2.588   2.190  0.00  0.00    -0.126 OA
ENDBRANCH  30  33
ENDBRANCH  25  27
ENDBRANCH   5  25
TORSDOF 10
