REMARK  Name = ZINC36205434
REMARK  14 active torsions:
REMARK  status: ('A' for Active; 'I' for Inactive)
REMARK    1  A    between atoms: C_1  and  C_2
REMARK    2  A    between atoms: C_2  and  C_3
REMARK    3  A    between atoms: C_2  and  C_4
REMARK    4  A    between atoms: C_4  and  O_5
REMARK    5  A    between atoms: O_5  and  C_6
REMARK    6  A    between atoms: C_6  and  C_7
REMARK    7  A    between atoms: C_7  and  C_9
REMARK    8  A    between atoms: C_7  and  O_36
REMARK    9  A    between atoms: C_9  and  N_10
REMARK   10  A    between atoms: N_10  and  C_11
REMARK   11  A    between atoms: N_10  and  C_17
REMARK   12  A    between atoms: C_11  and  C_12
REMARK   13  A    between atoms: C_17  and  C_18
REMARK   14  A    between atoms: C_24  and  C_29
REMARK                            x       y       z     vdW  Elec       q    Type
REMARK                         _______ _______ _______ _____ _____    ______ ____
ROOT
ATOM      1  C   UNL     1      -7.242  -0.992  -3.893  0.00  0.00    +0.159 C 
ENDROOT
BRANCH   1   2
ATOM      2  C   UNL     1      -7.038  -2.462  -4.151  0.00  0.00    +0.125 A 
ATOM      3  N   UNL     1      -8.120  -3.274  -4.276  0.00  0.00    -0.309 N 
ATOM      4  H   UNL     1      -9.009  -2.896  -4.197  0.00  0.00    +0.170 HD
ATOM      5  C   UNL     1      -7.981  -4.593  -4.507  0.00  0.00    +0.260 A 
ATOM      6  O   UNL     1      -8.962  -5.308  -4.617  0.00  0.00    -0.267 OA
ATOM      7  C   UNL     1      -6.665  -5.142  -4.622  0.00  0.00    +0.080 A 
ATOM      8  C   UNL     1      -6.259  -6.521  -4.868  0.00  0.00    +0.005 A 
ATOM      9  C   UNL     1      -4.936  -6.808  -4.938  0.00  0.00    +0.056 A 
ATOM     10  S   UNL     1      -4.156  -5.227  -4.675  0.00  0.00    -0.076 S 
ATOM     11  C   UNL     1      -5.609  -4.227  -4.479  0.00  0.00    +0.116 A 
ATOM     12  N   UNL     1      -5.825  -2.934  -4.256  0.00  0.00    -0.225 NA
BRANCH   8  13
ATOM     13  C   UNL     1      -7.273  -7.588  -5.038  0.00  0.00    +0.002 A 
ATOM     14  C   UNL     1      -7.368  -8.619  -4.104  0.00  0.00    +0.010 A 
ATOM     15  C   UNL     1      -8.315  -9.609  -4.267  0.00  0.00    +0.001 A 
ATOM     16  C   UNL     1      -9.169  -9.582  -5.355  0.00  0.00    +0.001 A 
ATOM     17  C   UNL     1      -9.081  -8.562  -6.285  0.00  0.00    +0.020 A 
ATOM     18  C   UNL     1      -8.141  -7.562  -6.130  0.00  0.00    +0.049 A 
ATOM     19 CL   UNL     1      -8.035  -6.279  -7.295  0.00  0.00    -0.083 Cl
ENDBRANCH   8  13
ENDBRANCH   1   2
BRANCH   1  20
ATOM     20  N   UNL     1      -5.939  -0.313  -3.874  0.00  0.00    -0.286 NA
BRANCH  20  21
ATOM     21  C   UNL     1      -5.227  -0.575  -2.616  0.00  0.00    +0.119 C 
BRANCH  21  22
ATOM     22  C   UNL     1      -3.727  -0.359  -2.825  0.00  0.00    +0.154 C 
BRANCH  22  23
ATOM     23  O   UNL     1      -3.470   1.032  -3.026  0.00  0.00    -0.388 OA
ATOM     24  H   UNL     1      -3.739   1.593  -2.286  0.00  0.00    +0.210 HD
ENDBRANCH  22  23
BRANCH  22  25
ATOM     25  C   UNL     1      -2.965  -0.844  -1.590  0.00  0.00    +0.192 C 
BRANCH  25  26
ATOM     26  O   UNL     1      -1.560  -0.750  -1.830  0.00  0.00    -0.377 OA
BRANCH  26  27
ATOM     27  C   UNL     1      -0.752  -1.182  -0.733  0.00  0.00    +0.163 C 
BRANCH  27  29
ATOM     28  C   UNL     1       1.062   0.442  -1.292  0.00  0.00    +0.009 C 
ATOM     29  C   UNL     1       0.726  -1.038  -1.099  0.00  0.00    +0.009 C 
ATOM     30  C   UNL     1       1.589  -1.615   0.025  0.00  0.00    +0.009 C 
ENDBRANCH  27  29
ENDBRANCH  26  27
ENDBRANCH  25  26
ENDBRANCH  22  25
ENDBRANCH  21  22
ENDBRANCH  20  21
BRANCH  20  31
ATOM     31  C   UNL     1      -6.095   1.130  -4.100  0.00  0.00    +0.159 C 
BRANCH  31  32
ATOM     32  C   UNL     1      -6.550   1.371  -5.516  0.00  0.00    +0.119 A 
ATOM     33  C   UNL     1      -7.823   1.543  -5.914  0.00  0.00    +0.046 A 
ATOM     34  C   UNL     1      -7.792   1.737  -7.314  0.00  0.00    +0.041 A 
ATOM     35  C   UNL     1      -6.501   1.672  -7.688  0.00  0.00    +0.195 A 
ATOM     36  O   UNL     1      -5.753   1.456  -6.594  0.00  0.00    -0.467 OA
ENDBRANCH  31  32
ENDBRANCH  20  31
ENDBRANCH   1  20
TORSDOF 12
