REMARK  Name = ZINC15067870
REMARK  11 active torsions:
REMARK  status: ('A' for Active; 'I' for Inactive)
REMARK    1  A    between atoms: C_1  and  O_2
REMARK    2  A    between atoms: O_2  and  C_3
REMARK    3  A    between atoms: C_7  and  C_20
REMARK    4  A    between atoms: C_8  and  O_15
REMARK    5  A    between atoms: C_12  and  O_13
REMARK    6  A    between atoms: O_13  and  C_14
REMARK    7  A    between atoms: O_15  and  C_16
REMARK    8  A    between atoms: C_16  and  C_17
REMARK    9  A    between atoms: C_20  and  N_50
REMARK   10  A    between atoms: C_21  and  C_22
REMARK   11  A    between atoms: C_21  and  N_50
REMARK                            x       y       z     vdW  Elec       q    Type
REMARK                         _______ _______ _______ _____ _____    ______ ____
ROOT
ATOM      1  C   UNL     1       4.928  -7.429  -7.000  0.00  0.00    +0.162 A 
ATOM      2  C   UNL     1       4.547  -7.220  -5.707  0.00  0.00    +0.059 A 
ATOM      3  C   UNL     1       5.185  -6.228  -4.946  0.00  0.00    +0.005 A 
ATOM      4  C   UNL     1       4.817  -5.986  -3.608  0.00  0.00    +0.017 A 
ATOM      5  C   UNL     1       5.475  -5.006  -2.923  0.00  0.00    -0.002 A 
ATOM      6  C   UNL     1       6.483  -4.270  -3.556  0.00  0.00    +0.217 A 
ATOM      7  N   UNL     1       6.827  -4.503  -4.804  0.00  0.00    -0.213 NA
ATOM      8  C   UNL     1       6.218  -5.451  -5.527  0.00  0.00    +0.079 A 
ATOM      9  C   UNL     1       6.587  -5.689  -6.861  0.00  0.00    +0.077 A 
ATOM     10  C   UNL     1       5.951  -6.662  -7.578  0.00  0.00    +0.164 A 
ENDROOT
BRANCH   1  12
ATOM     11  C   UNL     1       3.277  -9.138  -7.093  0.00  0.00    +0.277 C 
ATOM     12  O   UNL     1       4.311  -8.390  -7.737  0.00  0.00    -0.491 OA
ENDBRANCH   1  12
BRANCH  10  13
ATOM     13  O   UNL     1       6.312  -6.888  -8.868  0.00  0.00    -0.491 OA
ATOM     14  C   UNL     1       7.359  -6.075  -9.401  0.00  0.00    +0.277 C 
ENDBRANCH  10  13
BRANCH   6  15
ATOM     15  O   UNL     1       7.125  -3.296  -2.864  0.00  0.00    -0.471 OA
BRANCH  15  16
ATOM     16  C   UNL     1       8.146  -2.574  -3.555  0.00  0.00    +0.277 C 
BRANCH  16  17
ATOM     17  C   UNL     1       8.742  -1.541  -2.634  0.00  0.00    +0.049 C 
ATOM     18  C   UNL     1       9.998  -1.637  -2.267  0.00  0.00    +0.028 C 
ATOM     19 CL   UNL     1       7.767  -0.225  -2.059  0.00  0.00    -0.085 Cl
ENDBRANCH  16  17
ENDBRANCH  15  16
ENDBRANCH   6  15
BRANCH   5  20
ATOM     20  C   UNL     1       5.113  -4.714  -1.490  0.00  0.00    -0.041 C 
BRANCH  20  21
ATOM     21  N   UNL     1       4.238  -3.527  -1.445  0.00  0.00    +0.386 N 
ATOM     22  H   UNL     1       3.387  -3.714  -1.989  0.00  0.00    -0.085 HD
ATOM     23  H   UNL     1       4.734  -2.725  -1.850  0.00  0.00    -0.085 HD
BRANCH  21  24
ATOM     24  C   UNL     1       3.867  -3.217  -0.052  0.00  0.00    -0.024 C 
BRANCH  24  25
ATOM     25  C   UNL     1       2.974  -2.003  -0.037  0.00  0.00    +0.044 A 
ATOM     26  C   UNL     1       1.631  -2.016  -0.024  0.00  0.00    +0.114 A 
ATOM     27  N   UNL     1       1.195  -0.694  -0.013  0.00  0.00    -0.300 N 
ATOM     28  C   UNL     1       0.002  -0.004   0.002  0.00  0.00    +0.100 A 
ATOM     29  C   UNL     1      -0.016   1.328   0.009  0.00  0.00    +0.067 A 
ATOM     30  S   UNL     1       1.726   1.720  -0.005  0.00  0.00    -0.058 S 
ATOM     31  C   UNL     1       2.343   0.054  -0.020  0.00  0.00    +0.177 A 
ATOM     32  N   UNL     1       3.386  -0.726  -0.034  0.00  0.00    -0.228 NA
ENDBRANCH  24  25
ENDBRANCH  21  24
ENDBRANCH  20  21
ENDBRANCH   5  20
TORSDOF 9
