REMARK  Name = ZINC46914118
REMARK  14 active torsions:
REMARK  status: ('A' for Active; 'I' for Inactive)
REMARK    1  A    between atoms: C_1  and  C_2
REMARK    2  A    between atoms: C_2  and  N_3
REMARK    3  A    between atoms: N_3  and  C_4
REMARK    4  A    between atoms: N_3  and  C_6
REMARK    5  A    between atoms: C_4  and  C_5
REMARK    6  A    between atoms: C_6  and  C_8
REMARK    7  A    between atoms: C_6  and  C_25
REMARK    8  A    between atoms: C_8  and  N_9
REMARK    9  A    between atoms: C_10  and  C_12
REMARK   10  A    between atoms: C_13  and  C_24
REMARK   11  A    between atoms: C_18  and  C_22
REMARK   12  A    between atoms: C_18  and  C_23
REMARK   13  A    between atoms: C_29  and  O_31
REMARK   14  A    between atoms: O_31  and  C_32
REMARK                            x       y       z     vdW  Elec       q    Type
REMARK                         _______ _______ _______ _____ _____    ______ ____
ROOT
ATOM      1  N   UNL     1      -1.677   0.877  -0.714  0.00  0.00    -0.310 N 
ATOM      2  C   UNL     1      -2.204   1.811  -1.531  0.00  0.00    +0.280 C 
ATOM      3  O   UNL     1      -3.408   1.861  -1.699  0.00  0.00    -0.267 OA
ATOM      4  H   UNL     1      -0.726   0.881  -0.523  0.00  0.00    +0.149 HD
ENDROOT
BRANCH   2   5
ATOM      5  C   UNL     1      -1.326   2.766  -2.217  0.00  0.00    +0.193 A 
ATOM      6  C   UNL     1      -1.741   3.814  -2.986  0.00  0.00    +0.011 A 
ATOM      7  C   UNL     1      -0.576   4.453  -3.438  0.00  0.00    +0.062 A 
ATOM      8  C   UNL     1       0.505   3.752  -2.917  0.00  0.00    +0.117 A 
ATOM      9  O   UNL     1       0.027   2.755  -2.184  0.00  0.00    -0.454 OA
ATOM     10  C   UNL     1       1.937   4.136  -3.189  0.00  0.00    +0.082 C 
ATOM     11  C   UNL     1       1.996   5.003  -4.450  0.00  0.00    -0.021 C 
ATOM     12  C   UNL     1       1.026   6.184  -4.342  0.00  0.00    +0.086 C 
ATOM     13  C   UNL     1      -0.393   5.636  -4.294  0.00  0.00    +0.167 C 
ATOM     14  O   UNL     1      -1.306   6.137  -4.915  0.00  0.00    -0.292 OA
ATOM     15  C   UNL     1       1.621   4.152  -5.665  0.00  0.00    +0.012 C 
ATOM     16  C   UNL     1       3.419   5.535  -4.629  0.00  0.00    +0.012 C 
ATOM     17  C   UNL     1      -3.164   4.206  -3.289  0.00  0.00    +0.048 C 
ENDBRANCH   2   5
BRANCH   1  18
ATOM     18  C   UNL     1      -2.540  -0.144  -0.115  0.00  0.00    +0.094 C 
BRANCH  18  19
ATOM     19  C   UNL     1      -1.723  -0.995   0.859  0.00  0.00    -0.020 C 
BRANCH  19  20
ATOM     20  C   UNL     1      -2.567  -2.141   1.355  0.00  0.00    -0.056 A 
ATOM     21  C   UNL     1      -3.622  -2.603   0.590  0.00  0.00    +0.002 A 
ATOM     22  C   UNL     1      -4.399  -3.654   1.042  0.00  0.00    +0.004 A 
ATOM     23  C   UNL     1      -4.122  -4.245   2.260  0.00  0.00    +0.045 A 
ATOM     24  C   UNL     1      -3.063  -3.783   3.029  0.00  0.00    +0.120 A 
ATOM     25  C   UNL     1      -2.282  -2.732   2.570  0.00  0.00    +0.047 A 
BRANCH  24  26
ATOM     26  O   UNL     1      -2.789  -4.363   4.227  0.00  0.00    -0.495 OA
ATOM     27  C   UNL     1      -3.631  -5.443   4.633  0.00  0.00    +0.277 C 
ENDBRANCH  24  26
ENDBRANCH  19  20
BRANCH  19  28
ATOM     28  N   UNL     1      -0.536  -1.523   0.172  0.00  0.00    +0.385 N 
ATOM     29  H   UNL     1      -0.014  -0.759  -0.232  0.00  0.00    -0.081 HD
BRANCH  28  31
ATOM     30  C   UNL     1       0.862  -1.250   2.164  0.00  0.00    -0.017 C 
ATOM     31  C   UNL     1       0.310  -2.239   1.136  0.00  0.00    -0.081 C 
ENDBRANCH  28  31
BRANCH  28  32
ATOM     32  C   UNL     1      -0.956  -2.445  -0.892  0.00  0.00    -0.081 C 
ATOM     33  C   UNL     1      -1.180  -1.662  -2.187  0.00  0.00    -0.017 C 
ENDBRANCH  28  32
ENDBRANCH  19  28
ENDBRANCH  18  19
ENDBRANCH   1  18
TORSDOF 8
