REMARK  Name = ZINC10451323
REMARK  11 active torsions:
REMARK  status: ('A' for Active; 'I' for Inactive)
REMARK    1  A    between atoms: C_1  and  C_2
REMARK    2  A    between atoms: C_2  and  C_3
REMARK    3  A    between atoms: C_2  and  C_4
REMARK    4  A    between atoms: C_4  and  O_5
REMARK    5  A    between atoms: O_5  and  C_6
REMARK    6  A    between atoms: C_11  and  C_12
REMARK    7  A    between atoms: N_14  and  C_15
REMARK    8  A    between atoms: C_15  and  N_17
REMARK    9  A    between atoms: N_17  and  C_18
REMARK   10  A    between atoms: C_23  and  C_24
REMARK   11  A    between atoms: C_23  and  N_61
REMARK                            x       y       z     vdW  Elec       q    Type
REMARK                         _______ _______ _______ _____ _____    ______ ____
ROOT
ATOM      1  C   UNL     1      -0.021   1.708   0.011  0.00  0.00    +0.137 C 
ATOM      2  S   UNL     1       0.002  -0.004   0.002  0.00  0.00    -0.018 S 
ENDROOT
BRANCH   1   5
ATOM      3  C   UNL     1       2.313   1.740  -0.011  0.00  0.00    +0.253 C 
ATOM      4  O   UNL     1       2.329   0.524  -0.017  0.00  0.00    -0.270 OA
ATOM      5  N   UNL     1       1.137   2.397   0.004  0.00  0.00    -0.264 N 
ATOM      6  H   UNL     1       1.124   3.367   0.009  0.00  0.00    +0.157 HD
BRANCH   3  12
ATOM      7  C   UNL     1       4.805   1.814  -0.028  0.00  0.00    +0.133 A 
ATOM      8  C   UNL     1       5.991   2.534  -0.042  0.00  0.00    +0.047 A 
ATOM      9  C   UNL     1       5.963   3.914  -0.034  0.00  0.00    +0.019 A 
ATOM     10  C   UNL     1       4.753   4.591  -0.019  0.00  0.00    +0.019 A 
ATOM     11  C   UNL     1       3.566   3.892  -0.011  0.00  0.00    +0.032 A 
ATOM     12  C   UNL     1       3.580   2.494  -0.019  0.00  0.00    +0.080 A 
ATOM     13 BR   UNL     1       4.733   6.482  -0.008  0.00  0.00    -0.050 Br
BRANCH   7  14
ATOM     14  O   UNL     1       4.832   0.458  -0.030  0.00  0.00    -0.491 OA
BRANCH  14  15
ATOM     15  C   UNL     1       6.117  -0.166  -0.040  0.00  0.00    +0.232 C 
BRANCH  15  17
ATOM     16  C   UNL     1       7.316  -2.354  -0.176  0.00  0.00    +0.010 C 
ATOM     17  C   UNL     1       5.946  -1.687  -0.040  0.00  0.00    +0.020 C 
ATOM     18  C   UNL     1       5.293  -2.127   1.272  0.00  0.00    +0.010 C 
ENDBRANCH  15  17
ENDBRANCH  14  15
ENDBRANCH   7  14
ENDBRANCH   3  12
ENDBRANCH   1   5
BRANCH   1  19
ATOM     19  N   UNL     1      -1.197   2.366   0.021  0.00  0.00    -0.324 N 
ATOM     20  H   UNL     1      -1.210   3.336   0.026  0.00  0.00    +0.148 HD
BRANCH  19  21
ATOM     21  C   UNL     1      -2.456   1.616   0.022  0.00  0.00    +0.068 C 
ATOM     22  C   UNL     1      -2.842   1.261  -1.416  0.00  0.00    +0.003 C 
ATOM     23  C   UNL     1      -4.188   0.531  -1.413  0.00  0.00    -0.077 C 
ATOM     24  C   UNL     1      -4.886   1.710   0.586  0.00  0.00    -0.077 C 
ATOM     25  C   UNL     1      -3.562   2.475   0.642  0.00  0.00    +0.003 C 
ATOM     26  N   UNL     1      -5.213   1.420  -0.826  0.00  0.00    +0.382 N 
ATOM     27  H   UNL     1      -5.230   2.301  -1.352  0.00  0.00    -0.081 HD
BRANCH  26  28
ATOM     28  C   UNL     1      -6.543   0.782  -0.915  0.00  0.00    -0.043 C 
BRANCH  28  29
ATOM     29  C   UNL     1      -6.945   0.698  -2.366  0.00  0.00    -0.064 A 
ATOM     30  C   UNL     1      -7.638   1.741  -2.953  0.00  0.00    +0.002 A 
ATOM     31  C   UNL     1      -8.001   1.666  -4.284  0.00  0.00    +0.000 A 
ATOM     32  C   UNL     1      -7.681   0.544  -5.026  0.00  0.00    +0.000 A 
ATOM     33  C   UNL     1      -6.994  -0.501  -4.437  0.00  0.00    +0.000 A 
ATOM     34  C   UNL     1      -6.625  -0.423  -3.107  0.00  0.00    +0.002 A 
ENDBRANCH  28  29
ENDBRANCH  26  28
ENDBRANCH  19  21
ENDBRANCH   1  19
TORSDOF 9
