REMARK  Name = ZINC63619693
REMARK  5 active torsions:
REMARK  status: ('A' for Active; 'I' for Inactive)
REMARK    1  A    between atoms: C_6  and  C_10
REMARK    2  A    between atoms: C_10  and  S_11
REMARK    3  A    between atoms: S_11  and  C_12
REMARK    4  A    between atoms: C_16  and  C_20
REMARK    5  A    between atoms: N_18  and  N_19
REMARK                            x       y       z     vdW  Elec       q    Type
REMARK                         _______ _______ _______ _____ _____    ______ ____
ROOT
ATOM      1  C   UNL     1       3.627  -2.939   4.061  0.00  0.00    +0.214 C 
ATOM      2  N   UNL     1       3.166  -4.341   3.947  0.00  0.00    -0.228 NA
ATOM      3  N   UNL     1       4.264  -5.035   3.256  0.00  0.00    -0.232 NA
ATOM      4  C   UNL     1       5.478  -4.399   3.833  0.00  0.00    +0.186 C 
ATOM      5  N   UNL     1       5.103  -2.974   3.990  0.00  0.00    -0.195 NA
ATOM      6  H   UNL     1       3.001  -4.743   4.858  0.00  0.00    +0.143 HD
ATOM      7  H   UNL     1       4.247  -6.024   3.452  0.00  0.00    +0.143 HD
ENDROOT
BRANCH   4   8
ATOM      8  C   UNL     1       6.645  -4.540   2.890  0.00  0.00    -0.013 A 
ATOM      9  C   UNL     1       7.623  -3.564   2.852  0.00  0.00    +0.009 A 
ATOM     10  C   UNL     1       8.695  -3.692   1.989  0.00  0.00    +0.039 A 
ATOM     11  C   UNL     1       8.787  -4.798   1.161  0.00  0.00    +0.123 A 
ATOM     12  C   UNL     1       7.807  -5.774   1.200  0.00  0.00    +0.039 A 
ATOM     13  C   UNL     1       6.739  -5.647   2.068  0.00  0.00    +0.009 A 
ATOM     14  F   UNL     1       9.834  -4.923   0.316  0.00  0.00    -0.205 F 
ENDBRANCH   4   8
BRANCH   5  15
ATOM     15  N   UNL     1       5.696  -2.408   5.191  0.00  0.00    -0.264 NA
ATOM     16  H   UNL     1       5.412  -1.448   5.316  0.00  0.00    +0.137 HD
ATOM     17  H   UNL     1       5.466  -2.961   6.003  0.00  0.00    +0.137 HD
ENDBRANCH   5  15
BRANCH   1  18
ATOM     18  S   UNL     1       2.962  -1.952   2.692  0.00  0.00    -0.120 S 
BRANCH  18  19
ATOM     19  C   UNL     1       3.566  -2.800   1.206  0.00  0.00    +0.118 C 
BRANCH  19  25
ATOM     20  C   UNL     1      -0.016   1.344   0.009  0.00  0.00    +0.002 A 
ATOM     21  C   UNL     1       1.158   2.118   0.002  0.00  0.00    +0.002 A 
ATOM     22  C   UNL     1       2.389   1.570  -0.013  0.00  0.00    +0.027 A 
ATOM     23  C   UNL     1       2.533   0.108  -0.022  0.00  0.00    +0.060 A 
ATOM     24  N   UNL     1       3.569  -0.680  -0.036  0.00  0.00    -0.363 N 
ATOM     25  C   UNL     1       3.071  -2.062  -0.039  0.00  0.00    +0.184 C 
ATOM     26  N   UNL     1       1.606  -1.974  -0.024  0.00  0.00    -0.363 N 
ATOM     27  C   UNL     1       1.290  -0.712  -0.014  0.00  0.00    +0.060 A 
ATOM     28  C   UNL     1       0.002  -0.004   0.002  0.00  0.00    +0.027 A 
ATOM     29  H   UNL     1       4.499  -0.405  -0.045  0.00  0.00    +0.162 HD
ATOM     30  H   UNL     1       0.987  -2.721  -0.022  0.00  0.00    +0.162 HD
ENDBRANCH  19  25
ENDBRANCH  18  19
ENDBRANCH   1  18
TORSDOF 5
