REMARK  Name = ZINC59487378
REMARK  3 active torsions:
REMARK  status: ('A' for Active; 'I' for Inactive)
REMARK    1  A    between atoms: C_1  and  C_2
REMARK    2  A    between atoms: C_22  and  C_30
REMARK    3  A    between atoms: C_30  and  C_32
REMARK                            x       y       z     vdW  Elec       q    Type
REMARK                         _______ _______ _______ _____ _____    ______ ____
ROOT
ATOM      1  C   UNL     1       0.047   1.581   0.172  0.00  0.00    +0.045 C 
ATOM      2  C   UNL     1       0.033   0.075   0.123  0.00  0.00    -0.029 A 
ATOM      3  C   UNL     1      -0.007  -0.573  -1.094  0.00  0.00    +0.005 A 
ATOM      4  C   UNL     1      -0.020  -1.955  -1.150  0.00  0.00    +0.001 A 
ATOM      5  C   UNL     1       0.007  -2.692   0.022  0.00  0.00    +0.008 A 
ATOM      6  C   UNL     1       0.047  -2.048   1.238  0.00  0.00    +0.004 A 
ATOM      7  C   UNL     1       0.066  -0.659   1.307  0.00  0.00    +0.042 A 
ATOM      8  N   UNL     1       0.113  -0.242   2.638  0.00  0.00    -0.283 N 
ATOM      9  C   UNL     1       0.136  -1.279   3.495  0.00  0.00    +0.244 C 
ATOM     10  O   UNL     1       0.179  -1.215   4.705  0.00  0.00    -0.273 OA
ATOM     11  C   UNL     1       0.087  -2.537   2.663  0.00  0.00    +0.145 C 
ATOM     12  C   UNL     1      -1.136  -3.383   2.992  0.00  0.00    +0.116 C 
ATOM     13  C   UNL     1      -1.760  -2.989   4.301  0.00  0.00    -0.008 A 
ATOM     14  C   UNL     1      -1.291  -2.924   5.594  0.00  0.00    +0.006 A 
ATOM     15  C   UNL     1      -2.129  -2.512   6.615  0.00  0.00    +0.000 A 
ATOM     16  C   UNL     1      -3.438  -2.166   6.333  0.00  0.00    +0.002 A 
ATOM     17  C   UNL     1      -3.913  -2.228   5.040  0.00  0.00    +0.023 A 
ATOM     18  C   UNL     1      -3.075  -2.642   4.006  0.00  0.00    +0.038 A 
ATOM     19  N   UNL     1      -3.317  -2.785   2.638  0.00  0.00    -0.284 N 
ATOM     20  C   UNL     1      -2.229  -3.217   1.972  0.00  0.00    +0.231 C 
ATOM     21  O   UNL     1      -2.146  -3.430   0.781  0.00  0.00    -0.274 OA
ATOM     22  C   UNL     1      -0.628  -4.833   3.033  0.00  0.00    +0.099 C 
ATOM     23  C   UNL     1       0.860  -4.681   3.392  0.00  0.00    +0.070 C 
ATOM     24  N   UNL     1       1.288  -3.352   2.901  0.00  0.00    -0.281 NA
ATOM     25  C   UNL     1       1.972  -3.591   1.602  0.00  0.00    +0.086 C 
ATOM     26  C   UNL     1       2.694  -4.944   1.799  0.00  0.00    +0.017 C 
ATOM     27  C   UNL     1       1.694  -5.754   2.680  0.00  0.00    +0.021 C 
ATOM     28  H   UNL     1       0.128   0.688   2.914  0.00  0.00    +0.155 HD
ATOM     29  H   UNL     1      -4.170  -2.596   2.216  0.00  0.00    +0.155 HD
ENDROOT
BRANCH  22  30
ATOM     30  C   UNL     1      -1.356  -5.621   4.091  0.00  0.00    +0.169 C 
ATOM     31  O   UNL     1      -0.892  -5.708   5.208  0.00  0.00    -0.292 OA
BRANCH  30  32
ATOM     32  C   UNL     1      -2.629  -6.285   3.769  0.00  0.00    +0.018 A 
ATOM     33  C   UNL     1      -3.105  -6.292   2.454  0.00  0.00    +0.011 A 
ATOM     34  C   UNL     1      -4.299  -6.916   2.160  0.00  0.00    +0.001 A 
ATOM     35  C   UNL     1      -5.026  -7.535   3.162  0.00  0.00    +0.000 A 
ATOM     36  C   UNL     1      -4.562  -7.532   4.466  0.00  0.00    +0.001 A 
ATOM     37  C   UNL     1      -3.367  -6.917   4.775  0.00  0.00    +0.011 A 
ENDBRANCH  30  32
ENDBRANCH  22  30
TORSDOF 2
