REMARK  Name = ZINC39451741
REMARK  7 active torsions:
REMARK  status: ('A' for Active; 'I' for Inactive)
REMARK    1  A    between atoms: C_1  and  C_2
REMARK    2  A    between atoms: C_2  and  O_3
REMARK    3  A    between atoms: O_3  and  C_4
REMARK    4  A    between atoms: C_14  and  S_17
REMARK    5  A    between atoms: S_17  and  O_20
REMARK    6  A    between atoms: O_20  and  C_21
REMARK    7  A    between atoms: N_29  and  C_30
REMARK                            x       y       z     vdW  Elec       q    Type
REMARK                         _______ _______ _______ _____ _____    ______ ____
ROOT
ATOM      1  C   UNL     1       0.746  -1.888  -1.280  0.00  0.00    +0.211 C 
ATOM      2  C   UNL     1       1.264  -2.276  -2.669  0.00  0.00    +0.132 C 
ATOM      3  C   UNL     1       2.708  -1.867  -2.796  0.00  0.00    +0.186 C 
ATOM      4  O   UNL     1       3.156  -1.571  -3.885  0.00  0.00    -0.290 OA
ATOM      5  C   UNL     1       3.547  -1.825  -1.659  0.00  0.00    +0.116 A 
ATOM      6  C   UNL     1       3.025  -2.104  -0.409  0.00  0.00    +0.083 A 
ATOM      7  C   UNL     1       3.899  -2.067   0.771  0.00  0.00    +0.099 A 
ATOM      8  C   UNL     1       5.258  -1.732   0.584  0.00  0.00    +0.069 A 
ATOM      9  C   UNL     1       6.108  -1.689   1.691  0.00  0.00    +0.047 A 
ATOM     10  C   UNL     1       5.571  -1.981   2.933  0.00  0.00    +0.147 A 
ATOM     11  C   UNL     1       4.225  -2.303   3.041  0.00  0.00    +0.142 A 
ATOM     12  N   UNL     1       3.439  -2.337   1.986  0.00  0.00    -0.251 NA
ATOM     13  C   UNL     1       5.737  -1.438  -0.773  0.00  0.00    +0.266 A 
ATOM     14  O   UNL     1       6.905  -1.145  -0.955  0.00  0.00    -0.267 OA
ATOM     15  N   UNL     1       4.887  -1.493  -1.814  0.00  0.00    -0.268 N 
ATOM     16  N   UNL     1       1.684  -2.412  -0.275  0.00  0.00    -0.315 N 
ATOM     17  H   UNL     1       1.369  -2.959   0.462  0.00  0.00    +0.149 HD
ENDROOT
BRANCH  15  18
ATOM     18  C   UNL     1       5.369  -1.207  -3.097  0.00  0.00    +0.097 A 
ATOM     19  C   UNL     1       5.346   0.096  -3.575  0.00  0.00    +0.030 A 
ATOM     20  C   UNL     1       5.822   0.375  -4.841  0.00  0.00    +0.002 A 
ATOM     21  C   UNL     1       6.323  -0.640  -5.636  0.00  0.00    +0.004 A 
ATOM     22  C   UNL     1       6.349  -1.941  -5.167  0.00  0.00    +0.053 A 
ATOM     23  C   UNL     1       5.879  -2.229  -3.896  0.00  0.00    +0.203 A 
ATOM     24  O   UNL     1       5.910  -3.506  -3.431  0.00  0.00    -0.286 OA
ENDBRANCH  15  18
BRANCH  10  25
ATOM     25  S   UNL     1       6.591  -1.945   4.369  0.00  0.00    +0.152 S 
ATOM     26  O   UNL     1       5.969  -2.788   5.330  0.00  0.00    -0.131 OA
ATOM     27  O   UNL     1       7.925  -2.151   3.926  0.00  0.00    -0.131 OA
BRANCH  25  28
ATOM     28  O   UNL     1       6.531  -0.531   4.928  0.00  0.00    -0.342 OA
BRANCH  28  29
ATOM     29  C   UNL     1       5.369  -0.238   5.570  0.00  0.00    +0.157 A 
ATOM     30  C   UNL     1       4.301   0.294   4.864  0.00  0.00    +0.048 A 
ATOM     31  C   UNL     1       3.120   0.590   5.518  0.00  0.00    +0.004 A 
ATOM     32  C   UNL     1       3.004   0.356   6.876  0.00  0.00    +0.000 A 
ATOM     33  C   UNL     1       4.068  -0.174   7.582  0.00  0.00    +0.004 A 
ATOM     34  C   UNL     1       5.248  -0.477   6.931  0.00  0.00    +0.048 A 
ENDBRANCH  28  29
ENDBRANCH  25  28
ENDBRANCH  10  25
BRANCH   1  35
ATOM     35  O   UNL     1       0.671  -0.465  -1.174  0.00  0.00    -0.359 OA
BRANCH  35  37
ATOM     36  C   UNL     1      -0.019   1.526   0.010  0.00  0.00    +0.034 C 
ATOM     37  C   UNL     1       0.002  -0.004   0.002  0.00  0.00    +0.159 C 
ENDBRANCH  35  37
ENDBRANCH   1  35
TORSDOF 6
