REMARK  Name = ZINC12149413
REMARK  10 active torsions:
REMARK  status: ('A' for Active; 'I' for Inactive)
REMARK    1  A    between atoms: C_1  and  C_2
REMARK    2  A    between atoms: C_2  and  C_3
REMARK    3  A    between atoms: C_3  and  C_22
REMARK    4  A    between atoms: N_6  and  C_10
REMARK    5  A    between atoms: C_10  and  C_11
REMARK    6  A    between atoms: C_27  and  C_28
REMARK    7  A    between atoms: C_27  and  N_69
REMARK    8  A    between atoms: C_31  and  O_35
REMARK    9  A    between atoms: C_33  and  O_34
REMARK   10  A    between atoms: O_35  and  C_36
REMARK                            x       y       z     vdW  Elec       q    Type
REMARK                         _______ _______ _______ _____ _____    ______ ____
ROOT
ATOM      1  C   UNL     1       0.045  -5.955   2.191  0.00  0.00    +0.115 C 
ATOM      2  C   UNL     1       1.421  -5.421   1.846  0.00  0.00    +0.247 C 
ATOM      3  O   UNL     1       2.430  -5.512   2.512  0.00  0.00    -0.273 OA
ATOM      4  N   UNL     1       1.289  -4.823   0.646  0.00  0.00    -0.221 N 
ATOM      5  C   UNL     1       0.036  -4.910   0.186  0.00  0.00    +0.309 C 
ATOM      6  O   UNL     1      -0.327  -4.449  -0.878  0.00  0.00    -0.252 OA
ATOM      7  N   UNL     1      -0.778  -5.566   1.033  0.00  0.00    -0.285 N 
ATOM      8  H   UNL     1      -1.723  -5.746   0.907  0.00  0.00    +0.151 HD
ENDROOT
BRANCH   1   9
ATOM      9  C   UNL     1       0.080  -7.478   2.339  0.00  0.00    +0.018 C 
ATOM     10  C   UNL     1       0.854  -7.851   3.606  0.00  0.00    -0.013 C 
ATOM     11  C   UNL     1       0.940  -9.375   3.715  0.00  0.00    -0.078 C 
ATOM     12  C   UNL     1       0.865  -9.610   1.304  0.00  0.00    -0.078 C 
ATOM     13  C   UNL     1       0.778  -8.093   1.123  0.00  0.00    -0.013 C 
ATOM     14  N   UNL     1       1.643  -9.903   2.527  0.00  0.00    +0.382 N 
ATOM     15  H   UNL     1       2.561  -9.450   2.454  0.00  0.00    -0.081 HD
BRANCH  14  16
ATOM     16  C   UNL     1       1.838 -11.362   2.663  0.00  0.00    -0.039 C 
BRANCH  16  17
ATOM     17  C   UNL     1       2.811 -11.618   3.785  0.00  0.00    -0.022 A 
ATOM     18  C   UNL     1       4.140 -11.873   3.502  0.00  0.00    +0.009 A 
ATOM     19  C   UNL     1       5.034 -12.108   4.528  0.00  0.00    +0.046 A 
ATOM     20  C   UNL     1       4.600 -12.089   5.846  0.00  0.00    +0.124 A 
ATOM     21  C   UNL     1       3.268 -11.834   6.133  0.00  0.00    +0.091 A 
ATOM     22  C   UNL     1       2.373 -11.593   5.101  0.00  0.00    +0.122 A 
BRANCH  22  23
ATOM     23  O   UNL     1       1.068 -11.337   5.379  0.00  0.00    -0.506 OA
ATOM     24  H   UNL     1       0.512 -12.127   5.416  0.00  0.00    +0.292 HD
ENDBRANCH  22  23
BRANCH  20  25
ATOM     25  O   UNL     1       5.480 -12.321   6.856  0.00  0.00    -0.495 OA
ATOM     26  C   UNL     1       6.837 -12.578   6.487  0.00  0.00    +0.277 C 
ENDBRANCH  20  25
ENDBRANCH  16  17
ENDBRANCH  14  16
ENDBRANCH   1   9
BRANCH   1  28
ATOM     27  C   UNL     1      -0.577  -3.790   3.272  0.00  0.00    +0.006 C 
ATOM     28  C   UNL     1      -0.484  -5.304   3.471  0.00  0.00    +0.032 C 
ENDBRANCH   1  28
BRANCH   4  29
ATOM     29  C   UNL     1       2.384  -4.164  -0.070  0.00  0.00    +0.166 C 
BRANCH  29  30
ATOM     30  C   UNL     1       2.441  -2.689   0.331  0.00  0.00    +0.229 C 
ATOM     31  C   UNL     1       3.587  -1.993  -0.416  0.00  0.00    +0.275 C 
ATOM     32  O   UNL     1       3.602  -0.615  -0.029  0.00  0.00    -0.485 OA
ATOM     33  C   UNL     1       2.404   0.031  -0.019  0.00  0.00    +0.162 A 
ATOM     34  C   UNL     1       2.378   1.418  -0.012  0.00  0.00    +0.049 A 
ATOM     35  C   UNL     1       1.170   2.088   0.002  0.00  0.00    +0.004 A 
ATOM     36  C   UNL     1      -0.017   1.378   0.010  0.00  0.00    +0.004 A 
ATOM     37  C   UNL     1       0.002  -0.004   0.002  0.00  0.00    +0.049 A 
ATOM     38  C   UNL     1       1.212  -0.683  -0.013  0.00  0.00    +0.163 A 
ATOM     39  O   UNL     1       1.214  -2.043  -0.028  0.00  0.00    -0.480 OA
ENDBRANCH  29  30
ENDBRANCH   4  29
TORSDOF 8
