REMARK  Name = ZINC36503555
REMARK  15 active torsions:
REMARK  status: ('A' for Active; 'I' for Inactive)
REMARK    1  A    between atoms: C_1  and  C_2
REMARK    2  A    between atoms: C_2  and  C_3
REMARK    3  A    between atoms: C_3  and  C_4
REMARK    4  A    between atoms: C_4  and  N_5
REMARK    5  A    between atoms: C_6  and  C_8
REMARK    6  A    between atoms: C_8  and  C_10
REMARK    7  A    between atoms: C_8  and  N_19
REMARK    8  A    between atoms: C_11  and  O_18
REMARK    9  A    between atoms: C_13  and  O_17
REMARK   10  A    between atoms: C_15  and  O_16
REMARK   11  A    between atoms: N_19  and  C_20
REMARK   12  A    between atoms: C_20  and  C_21
REMARK   13  A    between atoms: C_26  and  C_28
REMARK   14  A    between atoms: C_28  and  C_29
REMARK   15  A    between atoms: C_28  and  C_35
REMARK                            x       y       z     vdW  Elec       q    Type
REMARK                         _______ _______ _______ _____ _____    ______ ____
ROOT
ATOM      1  N   UNL     1       1.642  -7.399  -2.991  0.00  0.00    -0.278 N 
ATOM      2  C   UNL     1       2.210  -8.170  -3.939  0.00  0.00    +0.229 C 
ATOM      3  O   UNL     1       3.418  -8.218  -4.039  0.00  0.00    -0.275 OA
ENDROOT
BRANCH   1   4
ATOM      4  C   UNL     1       2.473  -6.509  -2.176  0.00  0.00    +0.200 C 
BRANCH   4   5
ATOM      5  C   UNL     1       2.633  -5.187  -2.881  0.00  0.00    +0.065 A 
ATOM      6  C   UNL     1       1.577  -4.655  -3.605  0.00  0.00    +0.129 A 
ATOM      7  C   UNL     1       1.724  -3.438  -4.254  0.00  0.00    +0.091 A 
ATOM      8  C   UNL     1       2.928  -2.753  -4.179  0.00  0.00    +0.124 A 
ATOM      9  C   UNL     1       3.984  -3.285  -3.455  0.00  0.00    +0.091 A 
ATOM     10  C   UNL     1       3.835  -4.500  -2.802  0.00  0.00    +0.129 A 
BRANCH  10  11
ATOM     11  O   UNL     1       4.868  -5.019  -2.088  0.00  0.00    -0.506 OA
ATOM     12  H   UNL     1       5.455  -5.589  -2.604  0.00  0.00    +0.292 HD
ENDBRANCH  10  11
BRANCH   8  13
ATOM     13  O   UNL     1       3.072  -1.562  -4.816  0.00  0.00    -0.507 OA
ATOM     14  H   UNL     1       2.830  -0.796  -4.277  0.00  0.00    +0.292 HD
ENDBRANCH   8  13
BRANCH   6  15
ATOM     15  O   UNL     1       0.397  -5.325  -3.679  0.00  0.00    -0.506 OA
ATOM     16  H   UNL     1      -0.267  -5.025  -3.043  0.00  0.00    +0.292 HD
ENDBRANCH   6  15
ENDBRANCH   4   5
BRANCH   4  18
ATOM     17  N   UNL     1       2.558  -5.965   0.235  0.00  0.00    -0.313 N 
ATOM     18  C   UNL     1       1.812  -6.289  -0.840  0.00  0.00    +0.238 C 
ATOM     19  O   UNL     1       0.610  -6.403  -0.732  0.00  0.00    -0.273 OA
ATOM     20  H   UNL     1       3.520  -5.874   0.149  0.00  0.00    +0.149 HD
BRANCH  17  21
ATOM     21  C   UNL     1       1.916  -5.751   1.534  0.00  0.00    +0.104 C 
BRANCH  21  22
ATOM     22  C   UNL     1       2.979  -5.398   2.577  0.00  0.00    +0.018 C 
BRANCH  22  24
ATOM     23  C   UNL     1       3.371  -4.821   4.976  0.00  0.00    +0.004 C 
ATOM     24  C   UNL     1       2.308  -5.174   3.934  0.00  0.00    -0.002 C 
ENDBRANCH  22  24
ENDBRANCH  21  22
ENDBRANCH  17  21
ENDBRANCH   4  18
ENDBRANCH   1   4
BRANCH   1  25
ATOM     25  C   UNL     1       0.194  -7.452  -2.773  0.00  0.00    +0.183 C 
BRANCH  25  26
ATOM     26  C   UNL     1      -0.125  -8.537  -1.776  0.00  0.00    +0.122 A 
ATOM     27  C   UNL     1      -0.877  -8.392  -0.671  0.00  0.00    +0.046 A 
ATOM     28  C   UNL     1      -0.914  -9.653  -0.032  0.00  0.00    +0.041 A 
ATOM     29  C   UNL     1      -0.182 -10.493  -0.786  0.00  0.00    +0.195 A 
ATOM     30  O   UNL     1       0.289  -9.813  -1.845  0.00  0.00    -0.466 OA
ENDBRANCH  25  26
ENDBRANCH   1  25
BRANCH   2  31
ATOM     31  C   UNL     1       1.344  -8.972  -4.877  0.00  0.00    +0.135 C 
BRANCH  31  32
ATOM     32  C   UNL     1       0.991  -8.132  -6.077  0.00  0.00    -0.031 A 
ATOM     33  C   UNL     1       1.984  -7.470  -6.774  0.00  0.00    +0.005 A 
ATOM     34  C   UNL     1       1.659  -6.699  -7.875  0.00  0.00    +0.000 A 
ATOM     35  C   UNL     1       0.342  -6.591  -8.279  0.00  0.00    +0.000 A 
ATOM     36  C   UNL     1      -0.651  -7.254  -7.582  0.00  0.00    +0.000 A 
ATOM     37  C   UNL     1      -0.326  -8.028  -6.484  0.00  0.00    +0.005 A 
ENDBRANCH  31  32
BRANCH  31  38
ATOM     38  C   UNL     1       2.094 -10.200  -5.326  0.00  0.00    -0.031 A 
ATOM     39  C   UNL     1       3.275 -10.069  -6.031  0.00  0.00    +0.005 A 
ATOM     40  C   UNL     1       3.963 -11.195  -6.443  0.00  0.00    +0.000 A 
ATOM     41  C   UNL     1       3.469 -12.452  -6.150  0.00  0.00    +0.000 A 
ATOM     42  C   UNL     1       2.288 -12.583  -5.444  0.00  0.00    +0.000 A 
ATOM     43  C   UNL     1       1.602 -11.457  -5.028  0.00  0.00    +0.005 A 
ENDBRANCH  31  38
ENDBRANCH   2  31
TORSDOF 14
