REMARK  Name = ZINC18008353
REMARK  7 active torsions:
REMARK  status: ('A' for Active; 'I' for Inactive)
REMARK    1  A    between atoms: C_3  and  C_6
REMARK    2  A    between atoms: C_6  and  C_8
REMARK    3  A    between atoms: C_6  and  N_62
REMARK    4  A    between atoms: C_8  and  N_9
REMARK    5  A    between atoms: C_10  and  C_12
REMARK    6  A    between atoms: N_15  and  S_18
REMARK    7  A    between atoms: S_18  and  C_21
REMARK                            x       y       z     vdW  Elec       q    Type
REMARK                         _______ _______ _______ _____ _____    ______ ____
ROOT
ATOM      1  N   UNL     1       0.076   7.569   5.549  0.00  0.00    -0.316 N 
ATOM      2  C   UNL     1       1.163   6.983   5.009  0.00  0.00    +0.216 C 
ATOM      3  O   UNL     1       2.175   7.627   4.833  0.00  0.00    -0.276 OA
ATOM      4  H   UNL     1      -0.734   7.053   5.690  0.00  0.00    +0.149 HD
ENDROOT
BRANCH   2   5
ATOM      5  C   UNL     1       1.120   5.526   4.625  0.00  0.00    +0.077 C 
ATOM      6  C   UNL     1       2.473   5.114   4.040  0.00  0.00    +0.030 C 
ATOM      7  C   UNL     1       2.438   3.625   3.682  0.00  0.00    +0.110 C 
ATOM      8  N   UNL     1       1.295   3.380   2.791  0.00  0.00    -0.177 NA
ATOM      9  C   UNL     1      -0.039   3.825   3.215  0.00  0.00    +0.110 C 
ATOM     10  C   UNL     1       0.023   5.306   3.580  0.00  0.00    +0.030 C 
BRANCH   8  11
ATOM     11  S   UNL     1       1.509   2.623   1.333  0.00  0.00    +0.061 S 
ATOM     12  O   UNL     1       2.865   2.829   0.963  0.00  0.00    -0.153 OA
ATOM     13  O   UNL     1       0.424   3.021   0.506  0.00  0.00    -0.153 OA
BRANCH  11  14
ATOM     14  C   UNL     1       1.321   0.893   1.612  0.00  0.00    +0.106 A 
ATOM     15  C   UNL     1       0.074   0.307   1.502  0.00  0.00    +0.030 A 
ATOM     16  C   UNL     1      -0.074  -1.050   1.720  0.00  0.00    +0.022 A 
ATOM     17  C   UNL     1       1.026  -1.821   2.049  0.00  0.00    +0.041 A 
ATOM     18  C   UNL     1       2.274  -1.234   2.160  0.00  0.00    +0.022 A 
ATOM     19  C   UNL     1       2.421   0.123   1.941  0.00  0.00    +0.030 A 
ATOM     20 CL   UNL     1       0.841  -3.525   2.324  0.00  0.00    -0.084 Cl
ENDBRANCH  11  14
ENDBRANCH   8  11
ENDBRANCH   2   5
BRANCH   1  21
ATOM     21  C   UNL     1       0.117   8.985   5.924  0.00  0.00    +0.096 C 
BRANCH  21  22
ATOM     22  C   UNL     1      -1.189   9.365   6.625  0.00  0.00    +0.016 C 
BRANCH  22  28
ATOM     23  C   UNL     1      -2.249   9.683   4.471  0.00  0.00    -0.078 C 
ATOM     24  C   UNL     1      -3.365   9.172   3.558  0.00  0.00    -0.019 C 
ATOM     25  C   UNL     1      -4.721   9.443   4.216  0.00  0.00    -0.004 C 
ATOM     26  C   UNL     1      -4.758   8.763   5.587  0.00  0.00    -0.019 C 
ATOM     27  C   UNL     1      -3.601   9.286   6.442  0.00  0.00    -0.078 C 
ATOM     28  N   UNL     1      -2.325   8.972   5.765  0.00  0.00    +0.387 N 
ATOM     29  H   UNL     1      -2.279   7.961   5.593  0.00  0.00    -0.081 HD
ENDBRANCH  22  28
BRANCH  22  32
ATOM     30  C   UNL     1      -1.235   8.105  10.088  0.00  0.00    +0.041 A 
ATOM     31  C   UNL     1      -1.001   9.134   9.147  0.00  0.00    +0.043 A 
ATOM     32  C   UNL     1      -1.289   8.627   7.935  0.00  0.00    +0.093 A 
ATOM     33  O   UNL     1      -1.675   7.350   8.090  0.00  0.00    -0.469 OA
ATOM     34  C   UNL     1      -1.645   7.028   9.393  0.00  0.00    +0.195 A 
ENDBRANCH  22  32
ENDBRANCH  21  22
ENDBRANCH   1  21
TORSDOF 7
