REMARK  Name = ZINC09424252
REMARK  12 active torsions:
REMARK  status: ('A' for Active; 'I' for Inactive)
REMARK    1  A    between atoms: C_1  and  C_2
REMARK    2  A    between atoms: C_7  and  C_12
REMARK    3  A    between atoms: C_12  and  C_13
REMARK    4  A    between atoms: C_14  and  C_27
REMARK    5  A    between atoms: N_16  and  C_21
REMARK    6  A    between atoms: C_21  and  C_22
REMARK    7  A    between atoms: C_31  and  O_33
REMARK    8  A    between atoms: O_33  and  C_34
REMARK    9  A    between atoms: C_34  and  C_35
REMARK   10  A    between atoms: C_35  and  C_36
REMARK   11  A    between atoms: C_36  and  C_37
REMARK   12  A    between atoms: C_36  and  C_38
REMARK                            x       y       z     vdW  Elec       q    Type
REMARK                         _______ _______ _______ _____ _____    ______ ____
ROOT
ATOM      1  C   UNL     1       0.717   3.096  -0.179  0.00  0.00    +0.076 C 
ATOM      2  C   UNL     1      -0.747   3.345  -0.458  0.00  0.00    +0.145 C 
ATOM      3  N   UNL     1      -1.423   2.049  -0.339  0.00  0.00    -0.276 N 
ATOM      4  C   UNL     1      -0.515   1.111  -0.019  0.00  0.00    +0.288 C 
ATOM      5  O   UNL     1      -0.761  -0.065   0.153  0.00  0.00    -0.266 OA
ATOM      6  C   UNL     1       0.837   1.724   0.086  0.00  0.00    +0.249 C 
ATOM      7  O   UNL     1       1.868   1.136   0.357  0.00  0.00    -0.282 OA
ENDROOT
BRANCH   2   8
ATOM      8  C   UNL     1      -0.922   3.887  -1.853  0.00  0.00    -0.019 A 
ATOM      9  C   UNL     1      -0.717   3.064  -2.945  0.00  0.00    +0.006 A 
ATOM     10  C   UNL     1      -0.883   3.558  -4.226  0.00  0.00    +0.004 A 
ATOM     11  C   UNL     1      -1.242   4.878  -4.418  0.00  0.00    +0.045 A 
ATOM     12  C   UNL     1      -1.442   5.707  -3.324  0.00  0.00    +0.121 A 
ATOM     13  C   UNL     1      -1.282   5.208  -2.039  0.00  0.00    +0.051 A 
BRANCH  12  14
ATOM     14  O   UNL     1      -1.796   7.006  -3.510  0.00  0.00    -0.492 OA
BRANCH  14  15
ATOM     15  C   UNL     1      -1.943   7.451  -4.860  0.00  0.00    +0.229 C 
BRANCH  15  16
ATOM     16  C   UNL     1      -2.341   8.928  -4.870  0.00  0.00    +0.044 C 
BRANCH  16  17
ATOM     17  C   UNL     1      -2.499   9.405  -6.315  0.00  0.00    -0.014 C 
ATOM     18  C   UNL     1      -3.016  10.845  -6.323  0.00  0.00    +0.007 C 
ATOM     19  C   UNL     1      -1.144   9.346  -7.023  0.00  0.00    +0.007 C 
ENDBRANCH  16  17
ENDBRANCH  15  16
ENDBRANCH  14  15
ENDBRANCH  12  14
ENDBRANCH   2   8
BRANCH   1  20
ATOM     20  C   UNL     1       1.734   4.032  -0.185  0.00  0.00    +0.195 C 
ATOM     21  O   UNL     1       3.017   3.635  -0.052  0.00  0.00    -0.287 OA
BRANCH  20  27
ATOM     22  C   UNL     1      -1.475  10.675   0.422  0.00  0.00    +0.052 C 
ATOM     23  C   UNL     1      -0.313   9.701   0.628  0.00  0.00    +0.175 C 
ATOM     24  C   UNL     1      -0.835   8.301   1.027  0.00  0.00    +0.083 C 
ATOM     25  C   UNL     1       0.144   7.387   0.314  0.00  0.00    -0.002 A 
ATOM     26  C   UNL     1       0.431   6.054   0.463  0.00  0.00    +0.019 A 
ATOM     27  C   UNL     1       1.417   5.460  -0.336  0.00  0.00    +0.023 A 
ATOM     28  C   UNL     1       2.103   6.240  -1.275  0.00  0.00    +0.015 A 
ATOM     29  C   UNL     1       1.800   7.572  -1.419  0.00  0.00    +0.046 A 
ATOM     30  C   UNL     1       0.815   8.164  -0.626  0.00  0.00    +0.124 A 
ATOM     31  O   UNL     1       0.364   9.447  -0.614  0.00  0.00    -0.488 OA
ENDBRANCH  20  27
ENDBRANCH   1  20
BRANCH   3  32
ATOM     32  C   UNL     1      -2.856   1.815  -0.533  0.00  0.00    +0.183 C 
BRANCH  32  33
ATOM     33  C   UNL     1      -3.575   1.986   0.780  0.00  0.00    +0.122 A 
ATOM     34  C   UNL     1      -4.090   3.135   1.252  0.00  0.00    +0.046 A 
ATOM     35  C   UNL     1      -4.672   2.839   2.506  0.00  0.00    +0.041 A 
ATOM     36  C   UNL     1      -4.471   1.528   2.728  0.00  0.00    +0.195 A 
ATOM     37  O   UNL     1      -3.807   1.016   1.680  0.00  0.00    -0.466 OA
ENDBRANCH  32  33
ENDBRANCH   3  32
TORSDOF 9
