REMARK  Name = ZINC40987073
REMARK  14 active torsions:
REMARK  status: ('A' for Active; 'I' for Inactive)
REMARK    1  A    between atoms: C_1  and  C_2
REMARK    2  A    between atoms: C_2  and  C_3
REMARK    3  A    between atoms: C_3  and  C_4
REMARK    4  A    between atoms: C_4  and  S_5
REMARK    5  A    between atoms: S_5  and  C_6
REMARK    6  A    between atoms: C_11  and  C_21
REMARK    7  A    between atoms: C_13  and  C_17
REMARK    8  A    between atoms: C_14  and  C_16
REMARK    9  A    between atoms: C_17  and  O_19
REMARK   10  A    between atoms: O_19  and  C_20
REMARK   11  A    between atoms: C_23  and  O_30
REMARK   12  A    between atoms: C_24  and  O_28
REMARK   13  A    between atoms: O_28  and  C_29
REMARK   14  A    between atoms: O_30  and  C_31
REMARK                            x       y       z     vdW  Elec       q    Type
REMARK                         _______ _______ _______ _____ _____    ______ ____
ROOT
ATOM      1  C   UNL     1       1.151  -4.409  -2.876  0.00  0.00    +0.210 A 
ATOM      2  N   UNL     1       0.626  -5.080  -1.840  0.00  0.00    -0.187 NA
ATOM      3  C   UNL     1       0.925  -6.346  -1.945  0.00  0.00    +0.219 A 
ATOM      4  N   UNL     1       1.665  -6.513  -3.068  0.00  0.00    -0.220 N 
ATOM      5  N   UNL     1       1.790  -5.255  -3.655  0.00  0.00    -0.141 NA
ATOM      6  C   UNL     1       2.189  -7.805  -3.505  0.00  0.00    +0.179 C 
ATOM      7  C   UNL     1       1.542  -8.905  -2.708  0.00  0.00    +0.082 C 
ATOM      8  C   UNL     1       0.815  -8.678  -1.602  0.00  0.00    +0.020 C 
ATOM      9  N   UNL     1       0.597  -7.412  -1.118  0.00  0.00    -0.287 N 
ATOM     10  C   UNL     1       0.219  -9.851  -0.869  0.00  0.00    +0.061 C 
ATOM     11  H   UNL     1       0.227  -7.268  -0.233  0.00  0.00    +0.155 HD
ENDROOT
BRANCH   6  12
ATOM     12  C   UNL     1       3.681  -7.839  -3.291  0.00  0.00    -0.014 A 
ATOM     13  C   UNL     1       4.528  -8.024  -4.368  0.00  0.00    +0.055 A 
ATOM     14  C   UNL     1       5.899  -8.057  -4.173  0.00  0.00    +0.163 A 
ATOM     15  C   UNL     1       6.421  -7.902  -2.893  0.00  0.00    +0.175 A 
ATOM     16  C   UNL     1       5.567  -7.717  -1.817  0.00  0.00    +0.063 A 
ATOM     17  C   UNL     1       4.199  -7.681  -2.020  0.00  0.00    +0.025 A 
ATOM     18 BR   UNL     1       6.271  -7.507  -0.075  0.00  0.00    -0.046 Br
BRANCH  15  19
ATOM     19  O   UNL     1       7.767  -7.934  -2.696  0.00  0.00    -0.490 OA
ATOM     20  C   UNL     1       8.464  -6.689  -2.777  0.00  0.00    +0.277 C 
ENDBRANCH  15  19
BRANCH  14  21
ATOM     21  O   UNL     1       6.734  -8.239  -5.232  0.00  0.00    -0.491 OA
ATOM     22  C   UNL     1       6.128  -8.391  -6.517  0.00  0.00    +0.277 C 
ENDBRANCH  14  21
ENDBRANCH   6  12
BRANCH   7  23
ATOM     23  C   UNL     1       1.706 -10.239  -3.143  0.00  0.00    +0.339 C 
ATOM     24  O   UNL     1       1.098 -10.640  -4.117  0.00  0.00    -0.245 OA
BRANCH  23  25
ATOM     25  O   UNL     1       2.539 -11.068  -2.478  0.00  0.00    -0.465 OA
ATOM     26  C   UNL     1       2.657 -12.403  -2.974  0.00  0.00    +0.280 C 
ENDBRANCH  23  25
ENDBRANCH   7  23
BRANCH   1  27
ATOM     27  S   UNL     1       1.002  -2.675  -3.154  0.00  0.00    -0.084 S 
BRANCH  27  28
ATOM     28  C   UNL     1       0.021  -2.088  -1.746  0.00  0.00    +0.077 C 
BRANCH  28  29
ATOM     29  C   UNL     1      -0.186  -0.577  -1.864  0.00  0.00    +0.011 C 
BRANCH  29  31
ATOM     30  C   UNL     1      -1.221   1.430  -0.794  0.00  0.00    +0.004 C 
ATOM     31  C   UNL     1      -1.014  -0.082  -0.676  0.00  0.00    -0.003 C 
ENDBRANCH  29  31
ENDBRANCH  28  29
ENDBRANCH  27  28
ENDBRANCH   1  27
TORSDOF 9
