REMARK  Name = ZINC20272617
REMARK  8 active torsions:
REMARK  status: ('A' for Active; 'I' for Inactive)
REMARK    1  A    between atoms: C_4  and  C_7
REMARK    2  A    between atoms: C_7  and  C_8
REMARK    3  A    between atoms: C_7  and  C_33
REMARK    4  A    between atoms: C_8  and  C_9
REMARK    5  A    between atoms: C_9  and  N_10
REMARK    6  A    between atoms: C_11  and  C_13
REMARK    7  A    between atoms: N_19  and  C_22
REMARK    8  A    between atoms: C_22  and  C_23
REMARK                            x       y       z     vdW  Elec       q    Type
REMARK                         _______ _______ _______ _____ _____    ______ ____
ROOT
ATOM      1  C   UNL     1       2.121  -1.815   5.195  0.00  0.00    +0.082 C 
ATOM      2  C   UNL     1       0.990  -1.428   4.240  0.00  0.00    +0.020 C 
ATOM      3  C   UNL     1       2.334  -0.706   4.168  0.00  0.00    -0.021 C 
ATOM      4  C   UNL     1       3.242  -1.004   2.970  0.00  0.00    -0.011 C 
ATOM      5  C   UNL     1       2.980   0.046   1.884  0.00  0.00    -0.078 C 
ATOM      6  N   UNL     1       3.174   1.389   2.446  0.00  0.00    +0.382 N 
ATOM      7  C   UNL     1       2.185   1.685   3.490  0.00  0.00    -0.078 C 
ATOM      8  C   UNL     1       2.397   0.738   4.676  0.00  0.00    -0.011 C 
ATOM      9  H   UNL     1       4.168   1.410   2.917  0.00  0.00    -0.081 HD
ENDROOT
BRANCH   1  11
ATOM     10  N   UNL     1       1.792  -2.348   7.588  0.00  0.00    -0.315 N 
ATOM     11  C   UNL     1       1.982  -1.409   6.640  0.00  0.00    +0.217 C 
ATOM     12  O   UNL     1       2.040  -0.238   6.948  0.00  0.00    -0.275 OA
ATOM     13  H   UNL     1       1.740  -3.410   7.308  0.00  0.00    +0.149 HD
BRANCH  10  14
ATOM     14  C   UNL     1       1.657  -1.953   8.992  0.00  0.00    +0.105 C 
BRANCH  14  15
ATOM     15  C   UNL     1       1.453  -3.199   9.855  0.00  0.00    +0.031 C 
BRANCH  15  16
ATOM     16  C   UNL     1       1.311  -2.787  11.322  0.00  0.00    +0.050 C 
BRANCH  16  20
ATOM     17  C   UNL     1      -2.248  -0.477  11.815  0.00  0.00    +0.000 A 
ATOM     18  C   UNL     1      -2.305  -1.711  11.194  0.00  0.00    +0.000 A 
ATOM     19  C   UNL     1      -1.154  -2.458  11.035  0.00  0.00    +0.004 A 
ATOM     20  C   UNL     1       0.055  -1.972  11.496  0.00  0.00    -0.040 A 
ATOM     21  C   UNL     1       0.112  -0.740  12.121  0.00  0.00    +0.004 A 
ATOM     22  C   UNL     1      -1.039   0.009  12.276  0.00  0.00    +0.000 A 
ENDBRANCH  16  20
BRANCH  16  23
ATOM     23  C   UNL     1       1.233  -4.020  12.185  0.00  0.00    -0.040 A 
ATOM     24  C   UNL     1       0.314  -5.011  11.894  0.00  0.00    +0.004 A 
ATOM     25  C   UNL     1       0.246  -6.143  12.683  0.00  0.00    +0.000 A 
ATOM     26  C   UNL     1       1.090  -6.281  13.769  0.00  0.00    +0.000 A 
ATOM     27  C   UNL     1       2.005  -5.288  14.064  0.00  0.00    +0.000 A 
ATOM     28  C   UNL     1       2.076  -4.157  13.272  0.00  0.00    +0.004 A 
ENDBRANCH  16  23
ENDBRANCH  15  16
ENDBRANCH  14  15
ENDBRANCH  10  14
ENDBRANCH   1  11
BRANCH   6  29
ATOM     29  C   UNL     1       3.146   2.410   1.390  0.00  0.00    -0.042 C 
BRANCH  29  30
ATOM     30  C   UNL     1       3.101   3.779   2.017  0.00  0.00    -0.055 A 
ATOM     31  C   UNL     1       1.920   4.450   2.111  0.00  0.00    +0.002 A 
ATOM     32  C   UNL     1       1.861   5.717   2.688  0.00  0.00    +0.002 A 
ATOM     33  C   UNL     1       2.980   6.320   3.174  0.00  0.00    +0.028 A 
ATOM     34  C   UNL     1       4.218   5.659   3.095  0.00  0.00    +0.071 A 
ATOM     35  C   UNL     1       4.276   4.371   2.508  0.00  0.00    +0.002 A 
ATOM     36  C   UNL     1       5.516   3.711   2.429  0.00  0.00    +0.012 A 
ATOM     37  C   UNL     1       6.618   4.348   2.927  0.00  0.00    +0.020 A 
ATOM     38  C   UNL     1       6.492   5.615   3.491  0.00  0.00    +0.111 A 
ATOM     39  N   UNL     1       5.335   6.227   3.563  0.00  0.00    -0.255 NA
ENDBRANCH  29  30
ENDBRANCH   6  29
TORSDOF 8
