REMARK  Name = ZINC02306079
REMARK  4 active torsions:
REMARK  status: ('A' for Active; 'I' for Inactive)
REMARK    1  A    between atoms: C_1  and  O_2
REMARK    2  A    between atoms: O_2  and  C_3
REMARK    3  A    between atoms: C_6  and  C_9
REMARK    4  A    between atoms: C_27  and  C_29
REMARK                            x       y       z     vdW  Elec       q    Type
REMARK                         _______ _______ _______ _____ _____    ______ ____
ROOT
ATOM      1  C   UNL     1       2.470  -2.362  -4.353  0.00  0.00    +0.234 C 
ATOM      2  C   UNL     1       3.878  -2.756  -4.014  0.00  0.00    +0.027 C 
ATOM      3  C   UNL     1       4.141  -3.953  -3.451  0.00  0.00    +0.083 C 
ATOM      4  C   UNL     1       2.990  -4.855  -3.194  0.00  0.00    +0.045 A 
ATOM      5  C   UNL     1       3.098  -5.944  -2.340  0.00  0.00    +0.052 A 
ATOM      6  C   UNL     1       1.999  -6.758  -2.128  0.00  0.00    +0.124 A 
ATOM      7  C   UNL     1       0.798  -6.486  -2.764  0.00  0.00    +0.042 A 
ATOM      8  C   UNL     1       0.684  -5.404  -3.616  0.00  0.00    +0.049 A 
ATOM      9  C   UNL     1       1.776  -4.583  -3.838  0.00  0.00    +0.131 A 
ATOM     10  O   UNL     1       1.695  -3.519  -4.672  0.00  0.00    -0.479 OA
ATOM     11  F   UNL     1       2.097  -7.820  -1.298  0.00  0.00    -0.205 F 
ATOM     12  N   UNL     1       5.405  -4.324  -3.131  0.00  0.00    -0.213 NA
ATOM     13  C   UNL     1       6.468  -3.583  -3.338  0.00  0.00    +0.237 C 
ATOM     14  N   UNL     1       7.779  -3.797  -3.087  0.00  0.00    -0.205 NA
ATOM     15  C   UNL     1       8.487  -2.770  -3.468  0.00  0.00    +0.203 C 
ATOM     16  N   UNL     1       7.665  -1.820  -3.994  0.00  0.00    -0.251 N 
ATOM     17  N   UNL     1       6.368  -2.332  -3.913  0.00  0.00    -0.208 N 
ATOM     18  C   UNL     1       5.042  -1.830  -4.293  0.00  0.00    +0.160 C 
ATOM     19  H   UNL     1       7.928  -0.959  -4.353  0.00  0.00    +0.171 HD
ENDROOT
BRANCH  18  20
ATOM     20  C   UNL     1       5.059  -1.526  -5.769  0.00  0.00    -0.003 A 
ATOM     21  C   UNL     1       4.666  -0.281  -6.223  0.00  0.00    +0.009 A 
ATOM     22  C   UNL     1       4.681  -0.002  -7.576  0.00  0.00    +0.020 A 
ATOM     23  C   UNL     1       5.090  -0.969  -8.478  0.00  0.00    +0.042 A 
ATOM     24  C   UNL     1       5.483  -2.214  -8.024  0.00  0.00    +0.040 A 
ATOM     25  C   UNL     1       5.473  -2.492  -6.669  0.00  0.00    +0.048 A 
ATOM     26 CL   UNL     1       5.972  -4.053  -6.098  0.00  0.00    -0.083 Cl
ATOM     27 CL   UNL     1       5.108  -0.618 -10.178  0.00  0.00    -0.083 Cl
ENDBRANCH  18  20
BRANCH   1  31
ATOM     28  C   UNL     1       0.718  -0.366  -1.005  0.00  0.00    +0.120 A 
ATOM     29  C   UNL     1       1.166   0.367  -2.094  0.00  0.00    +0.046 A 
ATOM     30  C   UNL     1       1.732  -0.280  -3.175  0.00  0.00    +0.011 A 
ATOM     31  C   UNL     1       1.852  -1.658  -3.172  0.00  0.00    -0.003 A 
ATOM     32  C   UNL     1       1.406  -2.391  -2.088  0.00  0.00    +0.011 A 
ATOM     33  C   UNL     1       0.844  -1.748  -1.002  0.00  0.00    +0.046 A 
BRANCH  28  35
ATOM     34  C   UNL     1       0.062   1.692  -0.012  0.00  0.00    +0.277 C 
ATOM     35  O   UNL     1       0.160   0.268   0.060  0.00  0.00    -0.495 OA
ENDBRANCH  28  35
ENDBRANCH   1  31
TORSDOF 3
