REMARK  Name = ZINC09789900
REMARK  7 active torsions:
REMARK  status: ('A' for Active; 'I' for Inactive)
REMARK    1  A    between atoms: C_1  and  N_2
REMARK    2  A    between atoms: N_2  and  C_3
REMARK    3  A    between atoms: N_2  and  C_17
REMARK    4  A    between atoms: C_3  and  C_4
REMARK    5  A    between atoms: N_6  and  C_7
REMARK    6  A    between atoms: C_20  and  S_22
REMARK    7  A    between atoms: S_22  and  N_25
REMARK                            x       y       z     vdW  Elec       q    Type
REMARK                         _______ _______ _______ _____ _____    ______ ____
ROOT
ATOM      1  C   UNL     1       3.643   3.475   0.087  0.00  0.00    +0.131 C 
ATOM      2  N   UNL     1       3.603   2.015  -0.022  0.00  0.00    -0.311 N 
ENDROOT
BRANCH   2   3
ATOM      3  C   UNL     1       2.382   1.350  -0.005  0.00  0.00    +0.099 A 
ATOM      4  C   UNL     1       1.199   2.082   0.010  0.00  0.00    +0.043 A 
ATOM      5  C   UNL     1      -0.008   1.407   0.026  0.00  0.00    +0.033 A 
ATOM      6  C   UNL     1       0.008   0.018   0.026  0.00  0.00    +0.121 A 
ATOM      7  C   UNL     1       1.219  -0.643   0.011  0.00  0.00    +0.112 A 
ATOM      8  N   UNL     1       2.425  -0.013  -0.005  0.00  0.00    -0.348 N 
ATOM      9  H   UNL     1       3.311  -0.532  -0.016  0.00  0.00    +0.167 HD
BRANCH   6  10
ATOM     10  S   UNL     1      -1.502  -0.890   0.046  0.00  0.00    +0.062 S 
ATOM     11  O   UNL     1      -1.201  -2.166   0.594  0.00  0.00    -0.153 OA
ATOM     12  O   UNL     1      -2.484  -0.031   0.609  0.00  0.00    -0.153 OA
BRANCH  10  13
ATOM     13  N   UNL     1      -1.941  -1.143  -1.530  0.00  0.00    -0.177 NA
ATOM     14  C   UNL     1      -2.789  -0.253  -2.337  0.00  0.00    +0.109 C 
ATOM     15  C   UNL     1      -2.946  -0.905  -3.727  0.00  0.00    +0.018 C 
ATOM     16  C   UNL     1      -2.652  -2.402  -3.441  0.00  0.00    +0.018 C 
ATOM     17  C   UNL     1      -1.552  -2.301  -2.355  0.00  0.00    +0.109 C 
ENDBRANCH  10  13
ENDBRANCH   6  10
ENDBRANCH   2   3
BRANCH   2  18
ATOM     18  C   UNL     1       4.849   1.255  -0.149  0.00  0.00    +0.202 C 
BRANCH  18  19
ATOM     19  C   UNL     1       5.198   1.103  -1.607  0.00  0.00    +0.235 C 
ATOM     20  O   UNL     1       4.477   1.581  -2.457  0.00  0.00    -0.274 OA
ATOM     21  N   UNL     1       6.312   0.434  -1.967  0.00  0.00    -0.284 N 
ATOM     22  H   UNL     1       6.923   0.109  -1.287  0.00  0.00    +0.155 HD
BRANCH  21  23
ATOM     23  C   UNL     1       6.587   0.211  -3.317  0.00  0.00    +0.041 A 
ATOM     24  C   UNL     1       6.244   1.155  -4.262  0.00  0.00    +0.024 A 
ATOM     25  C   UNL     1       6.513   0.942  -5.610  0.00  0.00    +0.002 A 
ATOM     26  C   UNL     1       7.121  -0.201  -6.034  0.00  0.00    +0.008 A 
ATOM     27  C   UNL     1       7.487  -1.187  -5.103  0.00  0.00    -0.016 A 
ATOM     28  C   UNL     1       7.222  -0.980  -3.727  0.00  0.00    +0.003 A 
ATOM     29  C   UNL     1       7.585  -1.969  -2.799  0.00  0.00    +0.010 A 
ATOM     30  C   UNL     1       8.192  -3.108  -3.230  0.00  0.00    +0.001 A 
ATOM     31  C   UNL     1       8.456  -3.312  -4.583  0.00  0.00    +0.001 A 
ATOM     32  C   UNL     1       8.115  -2.377  -5.512  0.00  0.00    +0.008 A 
ENDBRANCH  21  23
ENDBRANCH  18  19
ENDBRANCH   2  18
TORSDOF 6
