REMARK  Name = ZINC04083403
REMARK  10 active torsions:
REMARK  status: ('A' for Active; 'I' for Inactive)
REMARK    1  A    between atoms: C_1  and  C_2
REMARK    2  A    between atoms: C_11  and  C_28
REMARK    3  A    between atoms: C_11  and  O_35
REMARK    4  A    between atoms: C_12  and  C_27
REMARK    5  A    between atoms: C_14  and  O_26
REMARK    6  A    between atoms: C_18  and  C_25
REMARK    7  A    between atoms: C_28  and  C_30
REMARK    8  A    between atoms: C_30  and  O_31
REMARK    9  A    between atoms: O_31  and  C_32
REMARK   10  A    between atoms: C_32  and  C_34
REMARK                            x       y       z     vdW  Elec       q    Type
REMARK                         _______ _______ _______ _____ _____    ______ ____
ROOT
ATOM      1  C   UNL     1      -2.978  -2.192   0.233  0.00  0.00    +0.012 C 
ATOM      2  C   UNL     1      -1.528  -1.737   0.064  0.00  0.00    +0.013 C 
ATOM      3  C   UNL     1      -1.444  -0.218   0.235  0.00  0.00    +0.011 C 
ATOM      4  C   UNL     1       0.026   0.211   0.187  0.00  0.00    -0.000 C 
ATOM      5  C   UNL     1       0.122   1.723   0.278  0.00  0.00    +0.002 C 
ATOM      6  C   UNL     1      -0.480   2.499  -0.899  0.00  0.00    +0.008 C 
ATOM      7  C   UNL     1       0.263   3.861  -0.835  0.00  0.00    +0.043 C 
ATOM      8  C   UNL     1       1.599   3.596  -0.096  0.00  0.00    +0.133 C 
ATOM      9  C   UNL     1       1.626   2.093   0.161  0.00  0.00    +0.009 C 
ATOM     10  C   UNL     1       2.297   1.637   1.442  0.00  0.00    +0.041 C 
ATOM     11  C   UNL     1       2.203   0.104   1.483  0.00  0.00    +0.119 C 
ATOM     12  C   UNL     1       0.756  -0.376   1.404  0.00  0.00    +0.031 C 
ATOM     13  C   UNL     1       0.741  -1.907   1.313  0.00  0.00    -0.005 C 
ATOM     14  C   UNL     1      -0.661  -2.397   1.121  0.00  0.00    -0.057 C 
ATOM     15  C   UNL     1      -1.194  -3.397   1.822  0.00  0.00    +0.046 C 
ATOM     16  C   UNL     1      -0.398  -4.083   2.845  0.00  0.00    +0.156 C 
ATOM     17  O   UNL     1      -0.918  -4.712   3.744  0.00  0.00    -0.293 OA
ATOM     18  C   UNL     1       1.109  -3.966   2.721  0.00  0.00    +0.080 C 
ATOM     19  C   UNL     1       1.438  -2.486   2.532  0.00  0.00    +0.019 C 
ATOM     20  C   UNL     1       1.552  -2.297   0.076  0.00  0.00    +0.016 C 
ATOM     21  C   UNL     1       2.247   1.369  -1.036  0.00  0.00    +0.015 C 
ENDROOT
BRANCH  11  22
ATOM     22  O   UNL     1       2.933  -0.436   0.380  0.00  0.00    -0.391 OA
ATOM     23  H   UNL     1       3.864  -0.175   0.359  0.00  0.00    +0.210 HD
ENDBRANCH  11  22
BRANCH   8  24
ATOM     24  C   UNL     1       2.764   3.998  -0.964  0.00  0.00    +0.202 C 
ATOM     25  O   UNL     1       2.631   4.062  -2.162  0.00  0.00    -0.291 OA
BRANCH  24  26
ATOM     26  C   UNL     1       4.095   4.321  -0.335  0.00  0.00    +0.309 C 
BRANCH  26  27
ATOM     27  O   UNL     1       5.047   4.677  -1.372  0.00  0.00    -0.457 OA
BRANCH  27  28
ATOM     28  C   UNL     1       6.289   4.994  -0.977  0.00  0.00    +0.304 C 
ATOM     29  O   UNL     1       6.573   4.975   0.198  0.00  0.00    -0.251 OA
ATOM     30  C   UNL     1       7.331   5.374  -1.997  0.00  0.00    +0.136 C 
ENDBRANCH  27  28
ENDBRANCH  26  27
ENDBRANCH  24  26
ENDBRANCH   8  24
BRANCH   8  31
ATOM     31  O   UNL     1       1.631   4.310   1.141  0.00  0.00    -0.380 OA
ATOM     32  H   UNL     1       1.616   5.272   1.040  0.00  0.00    +0.211 HD
ENDBRANCH   8  31
TORSDOF 6
