REMARK  Name = ZINC09673405
REMARK  6 active torsions:
REMARK  status: ('A' for Active; 'I' for Inactive)
REMARK    1  A    between atoms: C_1  and  C_2
REMARK    2  A    between atoms: C_5  and  C_8
REMARK    3  A    between atoms: C_15  and  C_18
REMARK    4  A    between atoms: C_23  and  O_24
REMARK    5  A    between atoms: O_24  and  C_25
REMARK    6  A    between atoms: N_28  and  C_31
REMARK                            x       y       z     vdW  Elec       q    Type
REMARK                         _______ _______ _______ _____ _____    ______ ____
ROOT
ATOM      1  C   UNL     1       0.043  -4.277  -0.022  0.00  0.00    +0.261 C 
ATOM      2  O   UNL     1      -0.052  -4.885  -1.071  0.00  0.00    -0.269 OA
ATOM      3  N   UNL     1       0.171  -4.952   1.138  0.00  0.00    -0.220 N 
ATOM      4  C   UNL     1       0.338  -6.410   1.291  0.00  0.00    +0.194 C 
ATOM      5  C   UNL     1       1.086  -6.586   2.643  0.00  0.00    +0.130 C 
ATOM      6  C   UNL     1       1.244  -5.130   3.138  0.00  0.00    +0.120 C 
ATOM      7  N   UNL     1       0.177  -4.409   2.404  0.00  0.00    -0.229 NA
ATOM      8  C   UNL     1       2.430  -7.140   2.229  0.00  0.00    +0.234 C 
ATOM      9  O   UNL     1       3.340  -7.405   2.984  0.00  0.00    -0.274 OA
ATOM     10  N   UNL     1       2.459  -7.291   0.900  0.00  0.00    -0.207 N 
ATOM     11  C   UNL     1       1.330  -6.904   0.261  0.00  0.00    +0.249 C 
ATOM     12  O   UNL     1       1.130  -6.961  -0.933  0.00  0.00    -0.273 OA
ATOM     13  H   UNL     1      -0.717  -4.534   2.856  0.00  0.00    +0.145 HD
ENDROOT
BRANCH  10  14
ATOM     14  C   UNL     1       3.575  -7.797   0.218  0.00  0.00    +0.062 A 
ATOM     15  C   UNL     1       3.692  -9.162  -0.008  0.00  0.00    +0.027 A 
ATOM     16  C   UNL     1       4.792  -9.658  -0.679  0.00  0.00    +0.022 A 
ATOM     17  C   UNL     1       5.777  -8.796  -1.128  0.00  0.00    +0.042 A 
ATOM     18  C   UNL     1       5.664  -7.436  -0.904  0.00  0.00    +0.042 A 
ATOM     19  C   UNL     1       4.563  -6.933  -0.237  0.00  0.00    +0.064 A 
ATOM     20 CL   UNL     1       4.418  -5.225   0.037  0.00  0.00    -0.082 Cl
ATOM     21 CL   UNL     1       7.159  -9.424  -1.972  0.00  0.00    -0.083 Cl
ENDBRANCH  10  14
BRANCH   1  26
ATOM     22  C   UNL     1      -0.055   1.476  -0.011  0.00  0.00    +0.044 C 
ATOM     23  C   UNL     1      -0.029  -0.030  -0.014  0.00  0.00    -0.050 A 
ATOM     24  C   UNL     1      -0.021  -0.717  -1.215  0.00  0.00    +0.004 A 
ATOM     25  C   UNL     1       0.003  -2.096  -1.225  0.00  0.00    +0.013 A 
ATOM     26  C   UNL     1       0.018  -2.799  -0.019  0.00  0.00    +0.038 A 
ATOM     27  C   UNL     1       0.009  -2.101   1.189  0.00  0.00    +0.013 A 
ATOM     28  C   UNL     1      -0.009  -0.721   1.185  0.00  0.00    +0.004 A 
ENDBRANCH   1  26
BRANCH   6  29
ATOM     29  C   UNL     1       1.025  -5.046   4.627  0.00  0.00    +0.013 A 
ATOM     30  C   UNL     1      -0.239  -4.801   5.128  0.00  0.00    +0.009 A 
ATOM     31  C   UNL     1      -0.440  -4.724   6.493  0.00  0.00    +0.001 A 
ATOM     32  C   UNL     1       0.623  -4.893   7.362  0.00  0.00    +0.004 A 
ATOM     33  C   UNL     1       1.888  -5.139   6.866  0.00  0.00    +0.046 A 
ATOM     34  C   UNL     1       2.092  -5.222   5.496  0.00  0.00    +0.125 A 
BRANCH  34  35
ATOM     35  O   UNL     1       3.335  -5.470   5.006  0.00  0.00    -0.495 OA
ATOM     36  C   UNL     1       4.386  -5.640   5.960  0.00  0.00    +0.277 C 
ENDBRANCH  34  35
ENDBRANCH   6  29
TORSDOF 4
