REMARK  Name = ZINC19848997
REMARK  7 active torsions:
REMARK  status: ('A' for Active; 'I' for Inactive)
REMARK    1  A    between atoms: C_1  and  C_2
REMARK    2  A    between atoms: C_2  and  C_3
REMARK    3  A    between atoms: C_3  and  C_4
REMARK    4  A    between atoms: C_4  and  C_31
REMARK    5  A    between atoms: C_9  and  C_12
REMARK    6  A    between atoms: C_17  and  O_18
REMARK    7  A    between atoms: N_21  and  C_24
REMARK                            x       y       z     vdW  Elec       q    Type
REMARK                         _______ _______ _______ _____ _____    ______ ____
ROOT
ATOM      1  C   UNL     1       0.517  -1.953  -1.113  0.00  0.00    +0.048 C 
ATOM      2  C   UNL     1       1.189  -2.311  -2.434  0.00  0.00    +0.086 C 
ATOM      3  C   UNL     1       0.795  -3.836  -2.447  0.00  0.00    +0.077 C 
ATOM      4  C   UNL     1      -0.641  -3.822  -2.141  0.00  0.00    -0.023 C 
ATOM      5  N   UNL     1      -0.807  -2.651  -1.205  0.00  0.00    +0.396 N 
ATOM      6  C   UNL     1       1.713  -4.374  -3.422  0.00  0.00    +0.229 C 
ATOM      7  O   UNL     1       1.516  -5.285  -4.198  0.00  0.00    -0.275 OA
ATOM      8  N   UNL     1       2.857  -3.629  -3.280  0.00  0.00    -0.210 N 
ATOM      9  C   UNL     1       2.671  -2.491  -2.523  0.00  0.00    +0.229 C 
ATOM     10  O   UNL     1       3.522  -1.785  -2.027  0.00  0.00    -0.275 OA
ATOM     11  H   UNL     1      -1.090  -2.971  -0.291  0.00  0.00    -0.083 HD
ATOM     12  H   UNL     1      -1.501  -2.020  -1.578  0.00  0.00    -0.083 HD
ENDROOT
BRANCH   8  13
ATOM     13  C   UNL     1       4.088  -3.979  -3.854  0.00  0.00    +0.045 A 
ATOM     14  C   UNL     1       5.202  -3.174  -3.657  0.00  0.00    +0.024 A 
ATOM     15  C   UNL     1       6.413  -3.521  -4.223  0.00  0.00    +0.003 A 
ATOM     16  C   UNL     1       6.517  -4.670  -4.986  0.00  0.00    +0.020 A 
ATOM     17  C   UNL     1       5.410  -5.475  -5.184  0.00  0.00    +0.043 A 
ATOM     18  C   UNL     1       4.196  -5.135  -4.615  0.00  0.00    +0.044 A 
ATOM     19 CL   UNL     1       5.545  -6.916  -6.142  0.00  0.00    -0.083 Cl
ENDBRANCH   8  13
BRANCH   4  20
ATOM     20  C   UNL     1      -1.446  -3.637  -3.402  0.00  0.00    -0.019 A 
ATOM     21  C   UNL     1      -1.812  -2.369  -3.808  0.00  0.00    +0.005 A 
ATOM     22  C   UNL     1      -2.550  -2.198  -4.965  0.00  0.00    +0.000 A 
ATOM     23  C   UNL     1      -2.924  -3.297  -5.717  0.00  0.00    +0.004 A 
ATOM     24  C   UNL     1      -2.560  -4.567  -5.315  0.00  0.00    +0.045 A 
ATOM     25  C   UNL     1      -1.814  -4.740  -4.158  0.00  0.00    +0.118 A 
BRANCH  25  26
ATOM     26  O   UNL     1      -1.450  -5.988  -3.763  0.00  0.00    -0.507 OA
ATOM     27  H   UNL     1      -2.091  -6.420  -3.182  0.00  0.00    +0.292 HD
ENDBRANCH  25  26
ENDBRANCH   4  20
BRANCH   1  28
ATOM     28  C   UNL     1       1.315  -2.477   0.054  0.00  0.00    +0.346 C 
ATOM     29  O   UNL     1       0.825  -3.303   0.805  0.00  0.00    -0.248 OA
ATOM     30  O   UNL     1       2.450  -2.075   0.246  0.00  0.00    -0.248 OA
ENDBRANCH   1  28
BRANCH   1  31
ATOM     31  C   UNL     1       0.324  -0.440  -0.996  0.00  0.00    -0.001 C 
BRANCH  31  33
ATOM     32  C   UNL     1      -0.653   1.391   0.395  0.00  0.00    +0.004 C 
ATOM     33  C   UNL     1      -0.459  -0.122   0.279  0.00  0.00    -0.004 C 
ENDBRANCH  31  33
ENDBRANCH   1  31
TORSDOF 6
