REMARK  Name = ZINC63258770
REMARK  3 active torsions:
REMARK  status: ('A' for Active; 'I' for Inactive)
REMARK    1  A    between atoms: C_6  and  S_10
REMARK    2  A    between atoms: S_10  and  C_11
REMARK    3  A    between atoms: C_17  and  N_21
REMARK                            x       y       z     vdW  Elec       q    Type
REMARK                         _______ _______ _______ _____ _____    ______ ____
ROOT
ATOM      1  C   UNL     1       2.921  -1.946  -2.892  0.00  0.00    +0.196 C 
ATOM      2  N   UNL     1       3.343  -0.541  -2.809  0.00  0.00    -0.323 N 
ATOM      3  C   UNL     1       2.350   0.421  -2.631  0.00  0.00    +0.042 A 
ATOM      4  C   UNL     1       2.563   1.808  -2.530  0.00  0.00    +0.026 A 
ATOM      5  C   UNL     1       1.513   2.679  -2.355  0.00  0.00    +0.034 A 
ATOM      6  C   UNL     1       0.211   2.220  -2.272  0.00  0.00    +0.127 A 
ATOM      7  C   UNL     1      -0.029   0.860  -2.369  0.00  0.00    +0.049 A 
ATOM      8  C   UNL     1       1.023  -0.011  -2.545  0.00  0.00    +0.033 A 
ATOM      9  S   UNL     1       1.100  -1.782  -2.707  0.00  0.00    -0.090 S 
ATOM     10  H   UNL     1       4.278  -0.292  -2.874  0.00  0.00    +0.148 HD
ENDROOT
BRANCH   6  11
ATOM     11  N   UNL     1      -0.909   3.169  -2.083  0.00  0.00    +0.056 N 
ATOM     12  O   UNL     1      -0.690   4.355  -1.999  0.00  0.00    -0.126 OA
ATOM     13  O   UNL     1      -2.044   2.758  -2.012  0.00  0.00    -0.126 OA
ENDBRANCH   6  11
BRANCH   1  14
ATOM     14  S   UNL     1       3.629  -2.921  -1.536  0.00  0.00    -0.081 S 
BRANCH  14  20
ATOM     15  C   UNL     1      -0.016   1.344   0.009  0.00  0.00    +0.002 A 
ATOM     16  C   UNL     1       1.158   2.118   0.002  0.00  0.00    +0.002 A 
ATOM     17  C   UNL     1       2.389   1.570  -0.013  0.00  0.00    +0.027 A 
ATOM     18  C   UNL     1       2.533   0.108  -0.022  0.00  0.00    +0.061 A 
ATOM     19  N   UNL     1       3.569  -0.680  -0.036  0.00  0.00    -0.355 N 
ATOM     20  C   UNL     1       3.071  -2.062  -0.039  0.00  0.00    +0.238 C 
ATOM     21  N   UNL     1       1.606  -1.974  -0.024  0.00  0.00    -0.355 N 
ATOM     22  C   UNL     1       1.290  -0.712  -0.014  0.00  0.00    +0.061 A 
ATOM     23  C   UNL     1       0.002  -0.004   0.002  0.00  0.00    +0.027 A 
ATOM     24  H   UNL     1       4.499  -0.405  -0.045  0.00  0.00    +0.162 HD
ATOM     25  H   UNL     1       0.987  -2.721  -0.022  0.00  0.00    +0.162 HD
ENDBRANCH  14  20
ENDBRANCH   1  14
TORSDOF 3
