REMARK  Name = ZINC01930652
REMARK  12 active torsions:
REMARK  status: ('A' for Active; 'I' for Inactive)
REMARK    1  A    between atoms: C_1  and  C_2
REMARK    2  A    between atoms: C_2  and  N_59
REMARK    3  A    between atoms: C_3  and  C_4
REMARK    4  A    between atoms: C_3  and  N_59
REMARK    5  A    between atoms: C_10  and  C_11
REMARK    6  A    between atoms: C_10  and  N_59
REMARK    7  A    between atoms: N_13  and  C_14
REMARK    8  A    between atoms: C_15  and  C_25
REMARK    9  A    between atoms: C_20  and  C_24
REMARK   10  A    between atoms: C_25  and  O_27
REMARK   11  A    between atoms: O_27  and  C_28
REMARK   12  A    between atoms: C_28  and  C_29
REMARK                            x       y       z     vdW  Elec       q    Type
REMARK                         _______ _______ _______ _____ _____    ______ ____
ROOT
ATOM      1  C   UNL     1       5.952  -1.988  -2.856  0.00  0.00    +0.201 C 
ATOM      2  O   UNL     1       5.250  -1.674  -3.794  0.00  0.00    -0.278 OA
ATOM      3  N   UNL     1       7.148  -2.569  -3.074  0.00  0.00    -0.281 N 
ATOM      4  H   UNL     1       7.710  -2.819  -2.324  0.00  0.00    +0.155 HD
ENDROOT
BRANCH   3   5
ATOM      5  C   UNL     1       7.576  -2.808  -4.370  0.00  0.00    +0.086 A 
ATOM      6  C   UNL     1       8.763  -3.391  -4.794  0.00  0.00    +0.091 A 
ATOM      7  C   UNL     1       8.970  -3.528  -6.226  0.00  0.00    -0.021 A 
ATOM      8  C   UNL     1       7.965  -3.064  -6.999  0.00  0.00    -0.004 A 
ATOM      9  S   UNL     1       6.755  -2.461  -5.856  0.00  0.00    -0.077 S 
ATOM     10  C   UNL     1       7.900  -3.072  -8.496  0.00  0.00    +0.046 C 
ATOM     11  C   UNL     1       9.310  -3.344  -9.040  0.00  0.00    -0.009 C 
ATOM     12  C   UNL     1       9.905  -4.540  -8.291  0.00  0.00    +0.008 C 
ATOM     13  C   UNL     1      10.217  -4.146  -6.846  0.00  0.00    +0.037 C 
ATOM     14  C   UNL     1       9.230  -3.660 -10.535  0.00  0.00    +0.008 C 
BRANCH   6  15
ATOM     15  C   UNL     1       9.769  -3.850  -3.833  0.00  0.00    +0.342 C 
ATOM     16  O   UNL     1       9.729  -4.990  -3.410  0.00  0.00    -0.245 OA
BRANCH  15  17
ATOM     17  O   UNL     1      10.739  -3.010  -3.418  0.00  0.00    -0.461 OA
BRANCH  17  18
ATOM     18  C   UNL     1      11.701  -3.533  -2.466  0.00  0.00    +0.229 C 
ATOM     19  C   UNL     1      12.716  -2.443  -2.115  0.00  0.00    +0.048 C 
ENDBRANCH  17  18
ENDBRANCH  15  17
ENDBRANCH   6  15
ENDBRANCH   3   5
BRANCH   1  20
ATOM     20  C   UNL     1       5.487  -1.727  -1.446  0.00  0.00    +0.019 C 
BRANCH  20  21
ATOM     21  N   UNL     1       4.212  -0.980  -1.497  0.00  0.00    +0.388 N 
ATOM     22  H   UNL     1       3.595  -1.422  -2.188  0.00  0.00    -0.081 HD
BRANCH  21  24
ATOM     23  C   UNL     1       5.359   1.121  -0.880  0.00  0.00    -0.017 C 
ATOM     24  C   UNL     1       4.462   0.419  -1.902  0.00  0.00    -0.081 C 
ENDBRANCH  21  24
BRANCH  21  25
ATOM     25  C   UNL     1       3.554  -1.014  -0.174  0.00  0.00    -0.042 C 
BRANCH  25  26
ATOM     26  C   UNL     1       2.166  -0.442  -0.307  0.00  0.00    -0.064 A 
ATOM     27  C   UNL     1       1.106  -1.269  -0.626  0.00  0.00    +0.002 A 
ATOM     28  C   UNL     1      -0.168  -0.744  -0.748  0.00  0.00    +0.000 A 
ATOM     29  C   UNL     1      -0.380   0.607  -0.551  0.00  0.00    +0.000 A 
ATOM     30  C   UNL     1       0.681   1.434  -0.231  0.00  0.00    +0.000 A 
ATOM     31  C   UNL     1       1.954   0.910  -0.110  0.00  0.00    +0.002 A 
ENDBRANCH  25  26
ENDBRANCH  21  25
ENDBRANCH  20  21
ENDBRANCH   1  20
TORSDOF 9
