REMARK  Name = ZINC12464406
REMARK  8 active torsions:
REMARK  status: ('A' for Active; 'I' for Inactive)
REMARK    1  A    between atoms: C_1  and  C_2
REMARK    2  A    between atoms: C_5  and  C_8
REMARK    3  A    between atoms: C_11  and  C_28
REMARK    4  A    between atoms: C_14  and  C_16
REMARK    5  A    between atoms: C_16  and  S_17
REMARK    6  A    between atoms: S_17  and  C_18
REMARK    7  A    between atoms: C_23  and  C_27
REMARK    8  A    between atoms: C_24  and  C_26
REMARK                            x       y       z     vdW  Elec       q    Type
REMARK                         _______ _______ _______ _____ _____    ______ ____
ROOT
ATOM      1  C   UNL     1      -3.041   7.199   0.050  0.00  0.00    +0.137 C 
ATOM      2  C   UNL     1      -2.267   8.532   0.059  0.00  0.00    +0.087 C 
ATOM      3  C   UNL     1      -0.815   8.110   0.050  0.00  0.00    +0.069 C 
ATOM      4  N   UNL     1      -0.741   6.824   0.042  0.00  0.00    -0.181 NA
ATOM      5  N   UNL     1      -1.978   6.182   0.045  0.00  0.00    -0.184 N 
ATOM      6  C   UNL     1      -2.168   4.848   0.039  0.00  0.00    +0.246 C 
ATOM      7  O   UNL     1      -3.294   4.396   0.042  0.00  0.00    -0.273 OA
ENDROOT
BRANCH   1  12
ATOM      8  C   UNL     1      -6.295   6.761  -4.706  0.00  0.00    +0.044 C 
ATOM      9  C   UNL     1      -5.447   6.875  -3.466  0.00  0.00    -0.050 A 
ATOM     10  C   UNL     1      -6.035   7.169  -2.250  0.00  0.00    +0.004 A 
ATOM     11  C   UNL     1      -5.257   7.274  -1.113  0.00  0.00    +0.006 A 
ATOM     12  C   UNL     1      -3.890   7.085  -1.190  0.00  0.00    -0.025 A 
ATOM     13  C   UNL     1      -3.301   6.795  -2.407  0.00  0.00    +0.006 A 
ATOM     14  C   UNL     1      -4.080   6.686  -3.544  0.00  0.00    +0.004 A 
ENDBRANCH   1  12
BRANCH   3  15
ATOM     15  C   UNL     1       0.338   9.029   0.048  0.00  0.00    -0.002 A 
ATOM     16  C   UNL     1       0.134  10.411   0.050  0.00  0.00    +0.011 A 
ATOM     17  C   UNL     1       1.217  11.265   0.055  0.00  0.00    +0.016 A 
ATOM     18  C   UNL     1       2.504  10.756   0.045  0.00  0.00    +0.018 A 
ATOM     19  C   UNL     1       2.713   9.387   0.037  0.00  0.00    +0.016 A 
ATOM     20  C   UNL     1       1.639   8.522   0.038  0.00  0.00    +0.011 A 
ATOM     21 BR   UNL     1       3.983  11.934   0.043  0.00  0.00    -0.050 Br
ENDBRANCH   3  15
BRANCH   6  22
ATOM     22  C   UNL     1      -0.983   3.918   0.028  0.00  0.00    +0.175 C 
BRANCH  22  23
ATOM     23  S   UNL     1      -1.562   2.203   0.021  0.00  0.00    -0.078 S 
BRANCH  23  24
ATOM     24  C   UNL     1      -0.016   1.358   0.009  0.00  0.00    +0.170 A 
ATOM     25  N   UNL     1       0.002  -0.004   0.002  0.00  0.00    -0.302 N 
ATOM     26  H   UNL     1      -0.830  -0.502   0.007  0.00  0.00    +0.171 HD
ATOM     27  C   UNL     1       1.183  -0.658  -0.013  0.00  0.00    +0.255 A 
ATOM     28  O   UNL     1       1.218  -1.878  -0.020  0.00  0.00    -0.267 OA
ATOM     29  C   UNL     1       2.372   0.093  -0.020  0.00  0.00    +0.035 A 
ATOM     30  C   UNL     1       2.292   1.456  -0.012  0.00  0.00    +0.049 A 
ATOM     31  N   UNL     1       1.104   2.055   0.003  0.00  0.00    -0.228 NA
ATOM     32  C   UNL     1       3.551   2.283  -0.019  0.00  0.00    +0.066 C 
ATOM     33  C   UNL     1       3.712  -0.595  -0.037  0.00  0.00    +0.051 C 
ENDBRANCH  23  24
ENDBRANCH  22  23
ENDBRANCH   6  22
TORSDOF 5
