REMARK  Name = ZINC43154815
REMARK  9 active torsions:
REMARK  status: ('A' for Active; 'I' for Inactive)
REMARK    1  A    between atoms: C_1  and  C_2
REMARK    2  A    between atoms: C_2  and  C_4
REMARK    3  A    between atoms: C_2  and  N_15
REMARK    4  A    between atoms: N_6  and  C_7
REMARK    5  A    between atoms: N_15  and  C_16
REMARK    6  A    between atoms: C_16  and  C_18
REMARK    7  A    between atoms: C_16  and  C_28
REMARK    8  A    between atoms: C_28  and  C_29
REMARK    9  A    between atoms: C_28  and  C_30
REMARK                            x       y       z     vdW  Elec       q    Type
REMARK                         _______ _______ _______ _____ _____    ______ ____
ROOT
ATOM      1  N   UNL     1       0.678  -0.507   1.189  0.00  0.00    +0.391 N 
ATOM      2  H   UNL     1       0.069  -0.026   0.544  0.00  0.00    -0.084 HD
ATOM      3  H   UNL     1       0.389  -0.310   2.136  0.00  0.00    -0.084 HD
ENDROOT
BRANCH   1   5
ATOM      4  C   UNL     1       0.883  -2.238  -0.531  0.00  0.00    -0.004 C 
ATOM      5  C   UNL     1       0.604  -1.954   0.946  0.00  0.00    +0.014 C 
BRANCH   5   6
ATOM      6  C   UNL     1      -0.772  -2.454   1.303  0.00  0.00    +0.203 C 
ATOM      7  O   UNL     1      -1.609  -1.680   1.718  0.00  0.00    -0.277 OA
ATOM      8  N   UNL     1      -1.073  -3.760   1.160  0.00  0.00    -0.285 N 
ATOM      9  H   UNL     1      -0.383  -4.390   0.901  0.00  0.00    +0.155 HD
BRANCH   8  10
ATOM     10  C   UNL     1      -2.381  -4.206   1.385  0.00  0.00    +0.069 A 
ATOM     11  C   UNL     1      -3.442  -3.313   1.319  0.00  0.00    +0.027 A 
ATOM     12  C   UNL     1      -4.732  -3.755   1.541  0.00  0.00    +0.022 A 
ATOM     13  C   UNL     1      -4.968  -5.087   1.831  0.00  0.00    +0.044 A 
ATOM     14  C   UNL     1      -3.914  -5.981   1.898  0.00  0.00    +0.060 A 
ATOM     15  C   UNL     1      -2.621  -5.545   1.671  0.00  0.00    +0.146 A 
ATOM     16  F   UNL     1      -1.592  -6.419   1.731  0.00  0.00    -0.203 F 
ATOM     17 CL   UNL     1      -6.590  -5.638   2.111  0.00  0.00    -0.083 Cl
ENDBRANCH   8  10
ENDBRANCH   5   6
ENDBRANCH   1   5
BRANCH   1  18
ATOM     18  C   UNL     1       2.059  -0.047   0.993  0.00  0.00    -0.037 C 
BRANCH  18  19
ATOM     19  C   UNL     1       2.956  -0.702   2.012  0.00  0.00    -0.057 A 
ATOM     20  C   UNL     1       2.517  -0.869   3.312  0.00  0.00    +0.006 A 
ATOM     21  C   UNL     1       3.337  -1.467   4.249  0.00  0.00    +0.049 A 
ATOM     22  C   UNL     1       4.603  -1.903   3.887  0.00  0.00    +0.162 A 
ATOM     23  C   UNL     1       5.044  -1.738   2.580  0.00  0.00    +0.162 A 
ATOM     24  C   UNL     1       4.214  -1.140   1.643  0.00  0.00    +0.051 A 
ATOM     25  O   UNL     1       6.279  -2.166   2.201  0.00  0.00    -0.485 OA
ATOM     26  C   UNL     1       7.219  -2.426   3.250  0.00  0.00    +0.270 C 
ATOM     27  C   UNL     1       6.512  -3.249   4.336  0.00  0.00    +0.270 C 
ATOM     28  O   UNL     1       5.401  -2.488   4.822  0.00  0.00    -0.485 OA
ENDBRANCH  18  19
BRANCH  18  29
ATOM     29  C   UNL     1       2.120   1.472   1.162  0.00  0.00    -0.027 C 
ATOM     30  C   UNL     1       3.542   1.961   0.878  0.00  0.00    +0.006 C 
ATOM     31  C   UNL     1       1.149   2.134   0.182  0.00  0.00    +0.006 C 
ENDBRANCH  18  29
ENDBRANCH   1  18
TORSDOF 6
