REMARK  Name = ZINC39467103
REMARK  6 active torsions:
REMARK  status: ('A' for Active; 'I' for Inactive)
REMARK    1  A    between atoms: C_1  and  S_2
REMARK    2  A    between atoms: S_2  and  C_3
REMARK    3  A    between atoms: C_15  and  C_16
REMARK    4  A    between atoms: C_21  and  O_22
REMARK    5  A    between atoms: P_25  and  C_28
REMARK    6  A    between atoms: C_33  and  O_34
REMARK                            x       y       z     vdW  Elec       q    Type
REMARK                         _______ _______ _______ _____ _____    ______ ____
ROOT
ATOM      1  C   UNL     1       0.848  -0.411  -1.489  0.00  0.00    +0.011 C 
ATOM      2  C   UNL     1       1.300   0.556  -2.295  0.00  0.00    -0.010 C 
ATOM      3  C   UNL     1       2.011   0.189  -3.569  0.00  0.00    +0.005 C 
ATOM      4  C   UNL     1       1.938   1.332  -4.573  0.00  0.00    -0.046 C 
ATOM      5  N   UNL     1       0.544   1.625  -4.943  0.00  0.00    +0.398 N 
ATOM      6  C   UNL     1      -0.075   0.451  -5.563  0.00  0.00    -0.020 C 
ATOM      7  C   UNL     1      -0.060  -0.732  -4.587  0.00  0.00    -0.003 C 
ATOM      8  C   UNL     1       1.359  -1.052  -4.185  0.00  0.00    +0.016 C 
ATOM      9  C   UNL     1       1.307  -2.145  -3.144  0.00  0.00    -0.013 C 
ATOM     10  C   UNL     1       1.073  -1.829  -1.860  0.00  0.00    -0.005 C 
ATOM     11  C   UNL     1      -1.543   0.712  -5.924  0.00  0.00    +0.157 C 
ATOM     12  O   UNL     1      -1.620   1.785  -6.880  0.00  0.00    -0.316 OA
ATOM     13  P   UNL     1      -0.819   3.159  -6.537  0.00  0.00    +0.291 P 
ATOM     14  O   UNL     1      -1.601   3.987  -5.593  0.00  0.00    -0.269 OA
ATOM     15  N   UNL     1       0.601   2.671  -5.840  0.00  0.00    -0.288 NA
ATOM     16  H   UNL     1       1.442   3.106  -6.048  0.00  0.00    +0.111 HD
ATOM     17  H   UNL     1       0.025   1.906  -4.124  0.00  0.00    -0.055 HD
ENDROOT
BRANCH  10  18
ATOM     18  C   UNL     1       1.034  -2.887  -0.823  0.00  0.00    +0.024 A 
ATOM     19  C   UNL     1       2.217  -3.464  -0.367  0.00  0.00    +0.012 A 
ATOM     20  C   UNL     1       2.175  -4.449   0.598  0.00  0.00    +0.001 A 
ATOM     21  C   UNL     1       0.962  -4.867   1.116  0.00  0.00    +0.004 A 
ATOM     22  C   UNL     1      -0.218  -4.302   0.671  0.00  0.00    +0.046 A 
ATOM     23  C   UNL     1      -0.191  -3.307  -0.294  0.00  0.00    +0.125 A 
BRANCH  23  24
ATOM     24  O   UNL     1      -1.349  -2.746  -0.728  0.00  0.00    -0.506 OA
ATOM     25  H   UNL     1      -1.746  -3.199  -1.484  0.00  0.00    +0.292 HD
ENDBRANCH  23  24
ENDBRANCH  10  18
BRANCH  13  26
ATOM     26  C   UNL     1      -0.484   4.088  -8.059  0.00  0.00    +0.091 A 
ATOM     27  C   UNL     1       0.682   3.861  -8.766  0.00  0.00    +0.018 A 
ATOM     28  C   UNL     1       0.937   4.569  -9.925  0.00  0.00    +0.001 A 
ATOM     29  C   UNL     1       0.027   5.505 -10.382  0.00  0.00    +0.004 A 
ATOM     30  C   UNL     1      -1.140   5.735  -9.680  0.00  0.00    +0.046 A 
ATOM     31  C   UNL     1      -1.401   5.022  -8.518  0.00  0.00    +0.131 A 
BRANCH  31  32
ATOM     32  O   UNL     1      -2.551   5.242  -7.829  0.00  0.00    -0.506 OA
ATOM     33  H   UNL     1      -2.481   5.934  -7.157  0.00  0.00    +0.292 HD
ENDBRANCH  31  32
ENDBRANCH  13  26
BRANCH   1  35
ATOM     34  C   UNL     1      -0.022   1.810   0.012  0.00  0.00    +0.090 C 
ATOM     35  S   UNL     1       0.002  -0.004   0.002  0.00  0.00    -0.128 S 
ENDBRANCH   1  35
TORSDOF 5
