REMARK  Name = ZINC09332306
REMARK  4 active torsions:
REMARK  status: ('A' for Active; 'I' for Inactive)
REMARK    1  A    between atoms: C_5  and  N_7
REMARK    2  A    between atoms: C_16  and  S_17
REMARK    3  A    between atoms: S_17  and  C_18
REMARK    4  A    between atoms: C_18  and  C_19
REMARK                            x       y       z     vdW  Elec       q    Type
REMARK                         _______ _______ _______ _____ _____    ______ ____
ROOT
ATOM      1  N   UNL     1      -2.429   1.038   0.019  0.00  0.00    -0.253 N 
ATOM      2  C   UNL     1      -3.006   0.713  -1.153  0.00  0.00    +0.268 A 
ATOM      3  O   UNL     1      -2.486   1.035  -2.207  0.00  0.00    -0.267 OA
ATOM      4  C   UNL     1      -4.233  -0.022  -1.143  0.00  0.00    +0.076 A 
ATOM      5  C   UNL     1      -5.025  -0.479  -2.287  0.00  0.00    -0.023 A 
ATOM      6  C   UNL     1      -6.160  -1.154  -2.015  0.00  0.00    -0.004 A 
ATOM      7  S   UNL     1      -6.244  -1.220  -0.245  0.00  0.00    -0.073 S 
ATOM      8  C   UNL     1      -4.749  -0.338   0.125  0.00  0.00    +0.117 A 
ATOM      9  N   UNL     1      -4.133   0.018   1.247  0.00  0.00    -0.215 NA
ATOM     10  C   UNL     1      -3.000   0.690   1.211  0.00  0.00    +0.178 A 
ATOM     11  C   UNL     1      -7.137  -1.722  -2.999  0.00  0.00    +0.043 C 
ATOM     12  C   UNL     1      -6.853  -1.103  -4.375  0.00  0.00    +0.005 C 
ATOM     13  C   UNL     1      -5.348  -1.183  -4.648  0.00  0.00    +0.005 C 
ATOM     14  C   UNL     1      -4.601  -0.215  -3.729  0.00  0.00    +0.037 C 
ENDROOT
BRANCH   1  19
ATOM     15  C   UNL     1       1.174   1.783   0.000  0.00  0.00    +0.002 A 
ATOM     16  C   UNL     1       1.157   3.166   0.007  0.00  0.00    +0.003 A 
ATOM     17  C   UNL     1      -0.046   3.846   0.021  0.00  0.00    +0.040 A 
ATOM     18  C   UNL     1      -1.238   3.144   0.030  0.00  0.00    +0.147 A 
ATOM     19  C   UNL     1      -1.224   1.754   0.017  0.00  0.00    +0.087 A 
ATOM     20  C   UNL     1      -0.013   1.076   0.008  0.00  0.00    +0.029 A 
ATOM     21  F   UNL     1      -2.414   3.808   0.044  0.00  0.00    -0.203 F 
ENDBRANCH   1  19
BRANCH  10  22
ATOM     22  S   UNL     1      -2.212   1.146   2.719  0.00  0.00    -0.079 S 
BRANCH  22  23
ATOM     23  C   UNL     1      -3.380   0.443   3.910  0.00  0.00    +0.151 C 
BRANCH  23  24
ATOM     24  C   UNL     1      -2.897   0.718   5.310  0.00  0.00    +0.121 A 
ATOM     25  N   UNL     1      -3.644   0.266   6.352  0.00  0.00    -0.309 N 
ATOM     26  H   UNL     1      -4.467  -0.220   6.189  0.00  0.00    +0.170 HD
ATOM     27  C   UNL     1      -3.228   0.502   7.619  0.00  0.00    +0.266 A 
ATOM     28  O   UNL     1      -3.875   0.111   8.575  0.00  0.00    -0.267 OA
ATOM     29  C   UNL     1      -2.037   1.207   7.800  0.00  0.00    +0.102 A 
ATOM     30  C   UNL     1      -1.283   1.664   6.705  0.00  0.00    +0.085 A 
ATOM     31  N   UNL     1      -1.788   1.369   5.462  0.00  0.00    -0.232 NA
ATOM     32  C   UNL     1      -0.109   2.357   7.028  0.00  0.00    +0.036 A 
ATOM     33  C   UNL     1       0.233   2.549   8.320  0.00  0.00    +0.048 A 
ATOM     34  S   UNL     1      -1.099   1.752   9.202  0.00  0.00    -0.090 S 
ENDBRANCH  23  24
ENDBRANCH  22  23
ENDBRANCH  10  22
TORSDOF 4
