REMARK  Name = ZINC15068478
REMARK  9 active torsions:
REMARK  status: ('A' for Active; 'I' for Inactive)
REMARK    1  A    between atoms: C_1  and  O_2
REMARK    2  A    between atoms: O_2  and  C_3
REMARK    3  A    between atoms: C_12  and  C_13
REMARK    4  A    between atoms: C_13  and  N_14
REMARK    5  A    between atoms: C_25  and  N_63
REMARK    6  A    between atoms: C_29  and  C_30
REMARK    7  A    between atoms: C_29  and  N_63
REMARK    8  A    between atoms: C_32  and  C_33
REMARK    9  A    between atoms: C_32  and  N_63
REMARK                            x       y       z     vdW  Elec       q    Type
REMARK                         _______ _______ _______ _____ _____    ______ ____
ROOT
ATOM      1  N   UNL     1       0.668   2.817   8.723  0.00  0.00    -0.294 N 
ATOM      2  C   UNL     1       1.119   1.593   9.086  0.00  0.00    +0.203 A 
ATOM      3  N   UNL     1       1.313   0.617   8.226  0.00  0.00    -0.230 NA
ATOM      4  C   UNL     1       1.048   0.867   6.947  0.00  0.00    +0.116 A 
ATOM      5  C   UNL     1       0.575   2.110   6.471  0.00  0.00    +0.076 A 
ATOM      6  C   UNL     1       0.377   3.148   7.442  0.00  0.00    +0.263 A 
ATOM      7  O   UNL     1      -0.028   4.255   7.134  0.00  0.00    -0.267 OA
ATOM      8  C   UNL     1       0.340   2.200   5.041  0.00  0.00    -0.023 A 
ATOM      9  C   UNL     1       0.597   1.088   4.312  0.00  0.00    -0.006 A 
ATOM     10  S   UNL     1       1.158  -0.118   5.487  0.00  0.00    -0.073 S 
ATOM     11  C   UNL     1       0.440   0.917   2.833  0.00  0.00    +0.027 C 
ATOM     12  C   UNL     1       0.292   2.306   2.195  0.00  0.00    -0.063 C 
ATOM     13  C   UNL     1      -0.741   3.108   2.993  0.00  0.00    -0.010 C 
ATOM     14  C   UNL     1      -0.171   3.469   4.364  0.00  0.00    +0.035 C 
ENDROOT
BRANCH  12  15
ATOM     15  N   UNL     1      -0.165   2.191   0.794  0.00  0.00    +0.386 N 
ATOM     16  H   UNL     1      -0.309   3.132   0.412  0.00  0.00    -0.081 HD
BRANCH  15  17
ATOM     17  C   UNL     1       0.858   1.495  -0.015  0.00  0.00    -0.051 C 
BRANCH  17  18
ATOM     18  C   UNL     1       2.017   2.432  -0.240  0.00  0.00    -0.053 C 
ATOM     19  C   UNL     1       3.231   2.061   0.083  0.00  0.00    +0.002 C 
ENDBRANCH  17  18
ENDBRANCH  15  17
BRANCH  15  20
ATOM     20  C   UNL     1      -1.443   1.449   0.739  0.00  0.00    -0.051 C 
BRANCH  20  21
ATOM     21  C   UNL     1      -2.059   1.648  -0.622  0.00  0.00    -0.053 C 
ATOM     22  C   UNL     1      -2.396   0.610  -1.346  0.00  0.00    +0.002 C 
ENDBRANCH  20  21
ENDBRANCH  15  20
ENDBRANCH  12  15
BRANCH   1  23
ATOM     23  C   UNL     1       0.487   3.832   9.764  0.00  0.00    +0.165 C 
BRANCH  23  33
ATOM     24  C   UNL     1      -1.971   4.229   9.853  0.00  0.00    +0.126 A 
ATOM     25  C   UNL     1      -3.231   4.073  10.439  0.00  0.00    +0.046 A 
ATOM     26  C   UNL     1      -3.387   3.345  11.577  0.00  0.00    +0.012 A 
ATOM     27  C   UNL     1      -2.268   2.740  12.177  0.00  0.00    -0.017 A 
ATOM     28  C   UNL     1      -2.394   1.982  13.353  0.00  0.00    +0.008 A 
ATOM     29  C   UNL     1      -1.290   1.410  13.907  0.00  0.00    +0.001 A 
ATOM     30  C   UNL     1      -0.033   1.564  13.325  0.00  0.00    +0.001 A 
ATOM     31  C   UNL     1       0.127   2.291  12.185  0.00  0.00    +0.009 A 
ATOM     32  C   UNL     1      -0.991   2.893  11.582  0.00  0.00    -0.010 A 
ATOM     33  C   UNL     1      -0.863   3.654  10.409  0.00  0.00    +0.022 A 
BRANCH  24  35
ATOM     34  C   UNL     1      -3.040   5.538   8.181  0.00  0.00    +0.277 C 
ATOM     35  O   UNL     1      -1.846   4.962   8.715  0.00  0.00    -0.495 OA
ENDBRANCH  24  35
ENDBRANCH  23  33
ENDBRANCH   1  23
TORSDOF 8
