REMARK  Name = ZINC63349878
REMARK  10 active torsions:
REMARK  status: ('A' for Active; 'I' for Inactive)
REMARK    1  A    between atoms: C_1  and  C_2
REMARK    2  A    between atoms: C_4  and  O_11
REMARK    3  A    between atoms: C_7  and  N_8
REMARK    4  A    between atoms: O_11  and  C_12
REMARK    5  A    between atoms: C_12  and  C_13
REMARK    6  A    between atoms: C_15  and  C_21
REMARK    7  A    between atoms: C_18  and  O_19
REMARK    8  A    between atoms: O_19  and  C_20
REMARK    9  A    between atoms: C_28  and  O_33
REMARK   10  A    between atoms: O_33  and  C_34
REMARK                            x       y       z     vdW  Elec       q    Type
REMARK                         _______ _______ _______ _____ _____    ______ ____
ROOT
ATOM      1  C   UNL     1      -0.051  -4.724  -3.731  0.00  0.00    +0.032 A 
ATOM      2  C   UNL     1      -0.423  -3.906  -4.781  0.00  0.00    +0.015 A 
ATOM      3  C   UNL     1      -0.572  -4.434  -6.050  0.00  0.00    -0.028 A 
ATOM      4  C   UNL     1      -0.349  -5.780  -6.272  0.00  0.00    +0.009 A 
ATOM      5  C   UNL     1       0.024  -6.602  -5.227  0.00  0.00    +0.046 A 
ATOM      6  C   UNL     1       0.179  -6.074  -3.953  0.00  0.00    +0.126 A 
ENDROOT
BRANCH   3   7
ATOM      7  C   UNL     1      -0.979  -3.540  -7.193  0.00  0.00    +0.111 C 
ATOM      8  C   UNL     1       0.254  -3.168  -8.021  0.00  0.00    +0.128 C 
ATOM      9  C   UNL     1      -0.264  -2.414  -9.241  0.00  0.00    -0.035 C 
ATOM     10  C   UNL     1       0.387  -1.260  -9.272  0.00  0.00    +0.003 A 
ATOM     11  C   UNL     1       0.386  -0.155 -10.244  0.00  0.00    +0.055 A 
ATOM     12  C   UNL     1       1.180   0.912  -9.955  0.00  0.00    +0.121 A 
ATOM     13  C   UNL     1       1.979   1.008  -8.806  0.00  0.00    +0.047 A 
ATOM     14  C   UNL     1       2.059   0.048  -7.850  0.00  0.00    +0.029 A 
ATOM     15  C   UNL     1       1.248  -1.161  -8.053  0.00  0.00    +0.043 A 
ATOM     16  N   UNL     1       1.148  -2.249  -7.318  0.00  0.00    -0.376 N 
ATOM     17  C   UNL     1      -1.382  -2.962 -10.094  0.00  0.00    +0.048 C 
ATOM     18  C   UNL     1      -2.490  -3.403  -9.120  0.00  0.00    +0.086 C 
ATOM     19  N   UNL     1      -1.927  -4.251  -8.065  0.00  0.00    -0.307 NA
ATOM     20  H   UNL     1      -1.506  -5.081  -8.455  0.00  0.00    +0.123 HD
ATOM     21  H   UNL     1       1.579  -2.417  -6.465  0.00  0.00    +0.160 HD
BRANCH  12  22
ATOM     22  O   UNL     1       1.201   1.948 -10.835  0.00  0.00    -0.495 OA
ATOM     23  C   UNL     1       2.041   3.058 -10.511  0.00  0.00    +0.277 C 
ENDBRANCH  12  22
ENDBRANCH   3   7
BRANCH   6  24
ATOM     24  O   UNL     1       0.551  -6.879  -2.923  0.00  0.00    -0.495 OA
ATOM     25  C   UNL     1       0.771  -8.259  -3.225  0.00  0.00    +0.277 C 
ENDBRANCH   6  24
BRANCH   1  26
ATOM     26  C   UNL     1       0.111  -4.149  -2.348  0.00  0.00    +0.268 C 
BRANCH  26  27
ATOM     27  O   UNL     1      -0.179  -2.750  -2.376  0.00  0.00    -0.487 OA
BRANCH  27  31
ATOM     28  C   UNL     1      -0.537   1.447   0.089  0.00  0.00    +0.046 C 
ATOM     29  C   UNL     1      -0.246  -0.031   0.040  0.00  0.00    -0.017 A 
ATOM     30  C   UNL     1      -0.348  -0.715  -1.157  0.00  0.00    +0.051 A 
ATOM     31  C   UNL     1      -0.080  -2.075  -1.201  0.00  0.00    +0.121 A 
ATOM     32  C   UNL     1       0.289  -2.745  -0.044  0.00  0.00    +0.048 A 
ATOM     33  C   UNL     1       0.389  -2.057   1.149  0.00  0.00    +0.036 A 
ATOM     34  C   UNL     1       0.127  -0.700   1.190  0.00  0.00    +0.129 A 
BRANCH  34  35
ATOM     35  N   UNL     1       0.241   0.037   2.469  0.00  0.00    +0.057 N 
ATOM     36  O   UNL     1       0.676   1.165   2.480  0.00  0.00    -0.126 OA
ATOM     37  O   UNL     1      -0.100  -0.490   3.502  0.00  0.00    -0.126 OA
ENDBRANCH  34  35
ENDBRANCH  27  31
ENDBRANCH  26  27
ENDBRANCH   1  26
TORSDOF 7
