REMARK  Name = ZINC05618624
REMARK  13 active torsions:
REMARK  status: ('A' for Active; 'I' for Inactive)
REMARK    1  A    between atoms: C_3  and  S_26
REMARK    2  A    between atoms: C_6  and  O_7
REMARK    3  A    between atoms: O_7  and  C_8
REMARK    4  A    between atoms: C_8  and  C_9
REMARK    5  A    between atoms: C_9  and  C_10
REMARK    6  A    between atoms: C_10  and  C_11
REMARK    7  A    between atoms: C_11  and  C_12
REMARK    8  A    between atoms: C_12  and  C_13
REMARK    9  A    between atoms: C_13  and  C_14
REMARK   10  A    between atoms: C_14  and  C_15
REMARK   11  A    between atoms: C_15  and  O_16
REMARK   12  A    between atoms: O_16  and  C_17
REMARK   13  A    between atoms: C_20  and  S_23
REMARK                            x       y       z     vdW  Elec       q    Type
REMARK                         _______ _______ _______ _____ _____    ______ ____
ROOT
ATOM      1  C   UNL     1       3.345   7.848   0.011  0.00  0.00    +0.000 C 
ENDROOT
BRANCH   1   2
ATOM      2  C   UNL     1       3.563   6.333   0.001  0.00  0.00    +0.003 C 
BRANCH   2   3
ATOM      3  C   UNL     1       2.208   5.623   0.010  0.00  0.00    +0.041 C 
BRANCH   3   4
ATOM      4  C   UNL     1       2.426   4.108   0.001  0.00  0.00    +0.229 C 
BRANCH   4   5
ATOM      5  O   UNL     1       1.160   3.445   0.009  0.00  0.00    -0.492 OA
BRANCH   5  11
ATOM      6  C   UNL     1      -0.017   1.377   0.010  0.00  0.00    +0.047 A 
ATOM      7  C   UNL     1       0.002  -0.004   0.002  0.00  0.00    +0.033 A 
ATOM      8  C   UNL     1       1.208  -0.680  -0.013  0.00  0.00    +0.120 A 
ATOM      9  C   UNL     1       2.398   0.024  -0.021  0.00  0.00    +0.033 A 
ATOM     10  C   UNL     1       2.385   1.405  -0.013  0.00  0.00    +0.047 A 
ATOM     11  C   UNL     1       1.176   2.086   0.002  0.00  0.00    +0.121 A 
BRANCH   8  12
ATOM     12  S   UNL     1       1.228  -2.442  -0.022  0.00  0.00    +0.140 S 
ATOM     13  O   UNL     1       2.484  -2.836   0.514  0.00  0.00    -0.140 OA
ATOM     14  O   UNL     1      -0.007  -2.865   0.539  0.00  0.00    -0.140 OA
ATOM     15  O   UNL     1       1.220  -2.885  -1.478  0.00  0.00    -0.043 OA
ENDBRANCH   8  12
ENDBRANCH   5  11
ENDBRANCH   4   5
ENDBRANCH   3   4
ENDBRANCH   2   3
ENDBRANCH   1   2
BRANCH   1  16
ATOM     16  C   UNL     1       4.700   8.558   0.002  0.00  0.00    +0.000 C 
BRANCH  16  17
ATOM     17  C   UNL     1       4.481  10.072   0.011  0.00  0.00    +0.003 C 
BRANCH  17  18
ATOM     18  C   UNL     1       5.837  10.783   0.002  0.00  0.00    +0.041 C 
BRANCH  18  19
ATOM     19  C   UNL     1       5.619  12.297   0.012  0.00  0.00    +0.229 C 
BRANCH  19  20
ATOM     20  O   UNL     1       6.884  12.961   0.004  0.00  0.00    -0.492 OA
BRANCH  20  21
ATOM     21  C   UNL     1       6.868  14.320   0.011  0.00  0.00    +0.121 A 
ATOM     22  C   UNL     1       5.660  15.000   0.019  0.00  0.00    +0.047 A 
ATOM     23  C   UNL     1       5.646  16.382   0.031  0.00  0.00    +0.033 A 
ATOM     24  C   UNL     1       6.836  17.086   0.024  0.00  0.00    +0.120 A 
ATOM     25  C   UNL     1       8.042  16.410   0.009  0.00  0.00    +0.033 A 
ATOM     26  C   UNL     1       8.061  15.028   0.003  0.00  0.00    +0.047 A 
BRANCH  24  27
ATOM     27  S   UNL     1       6.816  18.848   0.033  0.00  0.00    +0.140 S 
ATOM     28  O   UNL     1       5.571  19.236   0.597  0.00  0.00    -0.140 OA
ATOM     29  O   UNL     1       8.061  19.266   0.575  0.00  0.00    -0.140 OA
ATOM     30  O   UNL     1       6.797  19.305  -1.419  0.00  0.00    -0.043 OA
ENDBRANCH  24  27
ENDBRANCH  20  21
ENDBRANCH  19  20
ENDBRANCH  18  19
ENDBRANCH  17  18
ENDBRANCH  16  17
ENDBRANCH   1  16
TORSDOF 13
