REMARK  Name = ZINC14470754
REMARK  5 active torsions:
REMARK  status: ('A' for Active; 'I' for Inactive)
REMARK    1  A    between atoms: C_1  and  C_2
REMARK    2  A    between atoms: N_5  and  S_8
REMARK    3  A    between atoms: S_8  and  C_11
REMARK    4  A    between atoms: C_24  and  C_27
REMARK    5  A    between atoms: C_31  and  N_33
REMARK                            x       y       z     vdW  Elec       q    Type
REMARK                         _______ _______ _______ _____ _____    ______ ____
ROOT
ATOM      1  C   UNL     1      -4.967   6.995  -1.102  0.00  0.00    +0.106 A 
ATOM      2  C   UNL     1      -4.818   7.276   0.244  0.00  0.00    +0.030 A 
ATOM      3  C   UNL     1      -3.596   7.097   0.858  0.00  0.00    +0.025 A 
ATOM      4  C   UNL     1      -2.506   6.634   0.131  0.00  0.00    +0.031 A 
ATOM      5  C   UNL     1      -2.667   6.340  -1.228  0.00  0.00    -0.018 A 
ATOM      6  C   UNL     1      -3.891   6.527  -1.833  0.00  0.00    +0.034 A 
ATOM      7  C   UNL     1      -1.488   5.829  -1.960  0.00  0.00    +0.049 C 
ATOM      8  C   UNL     1      -1.311   5.994  -3.435  0.00  0.00    -0.023 C 
ATOM      9  C   UNL     1      -0.018   6.116  -3.709  0.00  0.00    -0.030 C 
ATOM     10  C   UNL     1       0.799   6.051  -2.417  0.00  0.00    +0.033 C 
ATOM     11  C   UNL     1      -0.225   6.533  -1.381  0.00  0.00    +0.029 C 
ATOM     12  C   UNL     1      -0.079   6.003   0.035  0.00  0.00    +0.105 C 
ATOM     13  N   UNL     1      -1.267   6.495   0.768  0.00  0.00    -0.336 N 
ATOM     14  H   UNL     1      -1.185   6.724   1.706  0.00  0.00    +0.147 HD
ENDROOT
BRANCH  12  15
ATOM     15  C   UNL     1      -0.059   4.497   0.027  0.00  0.00    -0.025 A 
ATOM     16  C   UNL     1      -1.238   3.789   0.169  0.00  0.00    +0.007 A 
ATOM     17  C   UNL     1      -1.221   2.407   0.155  0.00  0.00    +0.022 A 
ATOM     18  C   UNL     1      -0.022   1.732   0.012  0.00  0.00    +0.071 A 
ATOM     19  C   UNL     1       1.158   2.441  -0.131  0.00  0.00    +0.145 A 
ATOM     20  C   UNL     1       1.139   3.823  -0.123  0.00  0.00    +0.039 A 
ATOM     21 CL   UNL     1       0.002  -0.004   0.002  0.00  0.00    -0.081 Cl
BRANCH  19  22
ATOM     22  N   UNL     1       2.440   1.719  -0.290  0.00  0.00    +0.058 N 
ATOM     23  O   UNL     1       3.479   2.343  -0.415  0.00  0.00    -0.126 OA
ATOM     24  O   UNL     1       2.457   0.501  -0.297  0.00  0.00    -0.126 OA
ENDBRANCH  19  22
ENDBRANCH  12  15
BRANCH   1  25
ATOM     25  S   UNL     1      -6.528   7.232  -1.885  0.00  0.00    +0.061 S 
ATOM     26  O   UNL     1      -7.229   8.194  -1.109  0.00  0.00    -0.153 OA
ATOM     27  O   UNL     1      -6.264   7.415  -3.269  0.00  0.00    -0.153 OA
BRANCH  25  32
ATOM     28  C   UNL     1      -7.497   1.791  -0.355  0.00  0.00    +0.007 C 
ATOM     29  C   UNL     1      -7.866   3.128  -1.002  0.00  0.00    -0.012 C 
ATOM     30  C   UNL     1      -7.831   4.233   0.056  0.00  0.00    +0.020 C 
ATOM     31  C   UNL     1      -8.234   5.563  -0.587  0.00  0.00    +0.110 C 
ATOM     32  N   UNL     1      -7.366   5.810  -1.746  0.00  0.00    -0.177 NA
ATOM     33  C   UNL     1      -7.260   4.775  -2.783  0.00  0.00    +0.110 C 
ATOM     34  C   UNL     1      -6.864   3.451  -2.112  0.00  0.00    +0.020 C 
ENDBRANCH  25  32
ENDBRANCH   1  25
TORSDOF 4
