REMARK  Name = ZINC44915774
REMARK  6 active torsions:
REMARK  status: ('A' for Active; 'I' for Inactive)
REMARK    1  A    between atoms: C_4  and  C_7
REMARK    2  A    between atoms: C_7  and  C_9
REMARK    3  A    between atoms: C_14  and  N_15
REMARK    4  A    between atoms: C_16  and  C_18
REMARK    5  A    between atoms: N_23  and  C_25
REMARK    6  A    between atoms: C_25  and  C_26
REMARK                            x       y       z     vdW  Elec       q    Type
REMARK                         _______ _______ _______ _____ _____    ______ ____
ROOT
ATOM      1  N   UNL     1       6.268  -2.003   0.048  0.00  0.00    -0.285 N 
ATOM      2  C   UNL     1       7.468  -2.614  -0.012  0.00  0.00    +0.219 C 
ATOM      3  O   UNL     1       7.530  -3.825  -0.063  0.00  0.00    -0.275 OA
ATOM      4  H   UNL     1       6.219  -1.043   0.175  0.00  0.00    +0.155 HD
ENDROOT
BRANCH   2   5
ATOM      5  C   UNL     1       8.732  -1.794  -0.015  0.00  0.00    +0.059 C 
ATOM      6  C   UNL     1       8.733  -0.861  -1.230  0.00  0.00    +0.009 C 
ATOM      7  C   UNL     1      10.055  -0.089  -1.267  0.00  0.00    -0.018 C 
ATOM      8  C   UNL     1      11.219  -1.083  -1.297  0.00  0.00    -0.078 C 
ATOM      9  N   UNL     1      11.177  -1.927  -0.098  0.00  0.00    +0.383 N 
ATOM     10  C   UNL     1       9.944  -2.724  -0.091  0.00  0.00    -0.066 C 
ATOM     11  H   UNL     1      11.203  -1.343   0.725  0.00  0.00    -0.081 HD
BRANCH   9  12
ATOM     12  C   UNL     1      12.339  -2.826  -0.093  0.00  0.00    -0.043 C 
BRANCH  12  13
ATOM     13  C   UNL     1      13.602  -2.014   0.035  0.00  0.00    -0.063 A 
ATOM     14  C   UNL     1      14.246  -1.555  -1.100  0.00  0.00    +0.002 A 
ATOM     15  C   UNL     1      15.404  -0.810  -0.984  0.00  0.00    +0.001 A 
ATOM     16  C   UNL     1      15.919  -0.522   0.267  0.00  0.00    +0.015 A 
ATOM     17  C   UNL     1      15.275  -0.981   1.401  0.00  0.00    +0.018 A 
ATOM     18  C   UNL     1      14.113  -1.722   1.285  0.00  0.00    +0.017 A 
ATOM     19 BR   UNL     1      15.980  -0.589   3.112  0.00  0.00    -0.050 Br
ENDBRANCH  12  13
ENDBRANCH   9  12
ENDBRANCH   2   5
BRANCH   1  25
ATOM     20  C   UNL     1       3.901  -2.281   0.488  0.00  0.00    +0.043 A 
ATOM     21  C   UNL     1       2.733  -3.039   0.355  0.00  0.00    +0.013 A 
ATOM     22  C   UNL     1       2.767  -4.240  -0.318  0.00  0.00    +0.001 A 
ATOM     23  C   UNL     1       3.954  -4.704  -0.864  0.00  0.00    +0.002 A 
ATOM     24  C   UNL     1       5.115  -3.967  -0.741  0.00  0.00    +0.024 A 
ATOM     25  C   UNL     1       5.099  -2.751  -0.072  0.00  0.00    +0.044 A 
BRANCH  20  26
ATOM     26  C   UNL     1       3.872  -0.994   1.206  0.00  0.00    +0.195 C 
ATOM     27  O   UNL     1       3.316  -0.033   0.709  0.00  0.00    -0.287 OA
BRANCH  26  31
ATOM     28  C   UNL     1       5.728  -0.642   5.010  0.00  0.00    +0.000 A 
ATOM     29  C   UNL     1       5.190   0.477   4.400  0.00  0.00    +0.001 A 
ATOM     30  C   UNL     1       4.586   0.370   3.164  0.00  0.00    +0.012 A 
ATOM     31  C   UNL     1       4.518  -0.871   2.529  0.00  0.00    +0.022 A 
ATOM     32  C   UNL     1       5.063  -1.997   3.150  0.00  0.00    +0.012 A 
ATOM     33  C   UNL     1       5.664  -1.876   4.386  0.00  0.00    +0.001 A 
ENDBRANCH  26  31
ENDBRANCH  20  26
ENDBRANCH   1  25
TORSDOF 6
