REMARK  Name = ZINC14978306
REMARK  8 active torsions:
REMARK  status: ('A' for Active; 'I' for Inactive)
REMARK    1  A    between atoms: C_1  and  N_2
REMARK    2  A    between atoms: N_2  and  C_3
REMARK    3  A    between atoms: C_3  and  C_5
REMARK    4  A    between atoms: C_3  and  C_13
REMARK    5  A    between atoms: C_5  and  C_6
REMARK    6  A    between atoms: C_18  and  C_19
REMARK    7  A    between atoms: C_18  and  N_61
REMARK    8  A    between atoms: C_28  and  C_30
REMARK                            x       y       z     vdW  Elec       q    Type
REMARK                         _______ _______ _______ _____ _____    ______ ____
ROOT
ATOM      1  C   UNL     1       4.982   1.810  -0.240  0.00  0.00    +0.083 C 
ENDROOT
BRANCH   1   2
ATOM      2  C   UNL     1       5.552   2.188  -1.609  0.00  0.00    +0.006 C 
ATOM      3  C   UNL     1       5.580   3.712  -1.750  0.00  0.00    -0.013 C 
ATOM      4  C   UNL     1       6.092   4.082  -3.144  0.00  0.00    -0.078 C 
ATOM      5  C   UNL     1       5.208   2.027  -4.077  0.00  0.00    -0.078 C 
ATOM      6  C   UNL     1       4.669   1.596  -2.711  0.00  0.00    -0.013 C 
ATOM      7  N   UNL     1       5.185   3.503  -4.158  0.00  0.00    +0.382 N 
ATOM      8  H   UNL     1       4.229   3.832  -3.976  0.00  0.00    -0.081 HD
BRANCH   7   9
ATOM      9  C   UNL     1       5.594   3.941  -5.509  0.00  0.00    -0.043 C 
BRANCH   9  10
ATOM     10  C   UNL     1       5.353   5.423  -5.632  0.00  0.00    -0.062 A 
ATOM     11  C   UNL     1       6.375   6.310  -5.296  0.00  0.00    +0.004 A 
ATOM     12  C   UNL     1       6.210   7.651  -5.389  0.00  0.00    +0.031 A 
ATOM     13  C   UNL     1       4.973   8.184  -5.839  0.00  0.00    +0.100 A 
ATOM     14  C   UNL     1       3.903   7.255  -6.191  0.00  0.00    +0.100 A 
ATOM     15  C   UNL     1       4.150   5.863  -6.073  0.00  0.00    +0.032 A 
ATOM     16  N   UNL     1       2.804   7.889  -6.595  0.00  0.00    -0.191 NA
ATOM     17  S   UNL     1       3.129   9.420  -6.521  0.00  0.00    +0.116 S 
ATOM     18  N   UNL     1       4.607   9.453  -6.001  0.00  0.00    -0.191 NA
ENDBRANCH   9  10
ENDBRANCH   7   9
ENDBRANCH   1   2
BRANCH   1  20
ATOM     19  C   UNL     1       3.225   3.640  -0.174  0.00  0.00    +0.132 C 
ATOM     20  N   UNL     1       3.577   2.218  -0.167  0.00  0.00    -0.297 N 
ATOM     21  C   UNL     1       2.608   1.284  -0.093  0.00  0.00    +0.253 C 
ATOM     22  O   UNL     1       2.902   0.110   0.027  0.00  0.00    -0.269 OA
BRANCH  21  23
ATOM     23  C   UNL     1       1.199   1.684  -0.157  0.00  0.00    +0.074 A 
ATOM     24  C   UNL     1       0.065   0.887  -0.172  0.00  0.00    +0.021 A 
ATOM     25  C   UNL     1      -1.148   1.527  -0.243  0.00  0.00    +0.008 A 
ATOM     26  C   UNL     1      -1.180   2.885  -0.283  0.00  0.00    +0.046 A 
ATOM     27  S   UNL     1       0.497   3.322  -0.236  0.00  0.00    -0.092 S 
ENDBRANCH  21  23
ENDBRANCH   1  20
BRANCH   1  28
ATOM     28  C   UNL     1       5.777   2.522   0.857  0.00  0.00    +0.060 C 
BRANCH  28  29
ATOM     29  C   UNL     1       5.297   2.057   2.207  0.00  0.00    -0.010 A 
ATOM     30  C   UNL     1       4.343   2.787   2.891  0.00  0.00    +0.006 A 
ATOM     31  C   UNL     1       3.899   2.358   4.127  0.00  0.00    +0.000 A 
ATOM     32  C   UNL     1       4.416   1.204   4.686  0.00  0.00    +0.003 A 
ATOM     33  C   UNL     1       5.373   0.475   4.007  0.00  0.00    +0.038 A 
ATOM     34  C   UNL     1       5.815   0.901   2.766  0.00  0.00    +0.127 A 
ATOM     35  F   UNL     1       6.752   0.190   2.101  0.00  0.00    -0.205 F 
ENDBRANCH  28  29
ENDBRANCH   1  28
TORSDOF 7
