REMARK  Name = ZINC25615850
REMARK  9 active torsions:
REMARK  status: ('A' for Active; 'I' for Inactive)
REMARK    1  A    between atoms: C_1  and  C_2
REMARK    2  A    between atoms: C_5  and  N_9
REMARK    3  A    between atoms: C_13  and  S_14
REMARK    4  A    between atoms: S_14  and  C_15
REMARK    5  A    between atoms: C_15  and  C_16
REMARK    6  A    between atoms: N_18  and  C_19
REMARK    7  A    between atoms: C_19  and  C_20
REMARK    8  A    between atoms: C_20  and  C_22
REMARK    9  A    between atoms: C_20  and  N_27
REMARK                            x       y       z     vdW  Elec       q    Type
REMARK                         _______ _______ _______ _____ _____    ______ ____
ROOT
ATOM      1  C   UNL     1      -5.885   1.683  -3.525  0.00  0.00    +0.223 C 
ATOM      2  O   UNL     1      -5.281   0.683  -3.853  0.00  0.00    -0.275 OA
ATOM      3  N   UNL     1      -6.940   2.101  -4.252  0.00  0.00    -0.316 N 
ATOM      4  H   UNL     1      -7.488   3.007  -3.954  0.00  0.00    +0.149 HD
ENDROOT
BRANCH   1   5
ATOM      5  C   UNL     1      -5.457   2.456  -2.305  0.00  0.00    +0.173 C 
BRANCH   5   6
ATOM      6  S   UNL     1      -4.023   1.648  -1.551  0.00  0.00    -0.076 S 
BRANCH   6  11
ATOM      7  N   UNL     1      -2.760   2.611   0.755  0.00  0.00    -0.277 N 
ATOM      8  C   UNL     1      -2.932   3.674   1.602  0.00  0.00    +0.230 A 
ATOM      9  N   UNL     1      -3.955   4.353   1.168  0.00  0.00    -0.137 NA
ATOM     10  N   UNL     1      -4.440   3.800   0.115  0.00  0.00    -0.122 NA
ATOM     11  C   UNL     1      -3.743   2.729  -0.189  0.00  0.00    +0.196 A 
BRANCH   7  16
ATOM     12  C   UNL     1       1.219  -1.425   1.082  0.00  0.00    +0.045 C 
ATOM     13  C   UNL     1       0.163  -0.354   0.995  0.00  0.00    -0.032 A 
ATOM     14  C   UNL     1       0.524   0.979   1.063  0.00  0.00    +0.007 A 
ATOM     15  C   UNL     1      -0.442   1.963   0.984  0.00  0.00    +0.026 A 
ATOM     16  C   UNL     1      -1.777   1.614   0.836  0.00  0.00    +0.051 A 
ATOM     17  C   UNL     1      -2.138   0.276   0.761  0.00  0.00    +0.046 A 
ATOM     18  C   UNL     1      -1.167  -0.706   0.847  0.00  0.00    +0.046 A 
ATOM     19 CL   UNL     1      -1.617  -2.380   0.762  0.00  0.00    -0.083 Cl
ENDBRANCH   7  16
ENDBRANCH   6  11
ENDBRANCH   5   6
ENDBRANCH   1   5
BRANCH   3  20
ATOM     20  C   UNL     1      -7.357   1.349  -5.438  0.00  0.00    +0.096 C 
BRANCH  20  21
ATOM     21  C   UNL     1      -8.569   2.033  -6.075  0.00  0.00    +0.016 C 
BRANCH  21  22
ATOM     22  N   UNL     1      -9.632   2.179  -5.071  0.00  0.00    +0.387 N 
ATOM     23  C   UNL     1      -9.994   0.879  -4.494  0.00  0.00    -0.078 C 
ATOM     24  C   UNL     1     -10.995   1.085  -3.355  0.00  0.00    -0.019 C 
ATOM     25  C   UNL     1     -12.242   1.789  -3.899  0.00  0.00    -0.004 C 
ATOM     26  C   UNL     1     -11.830   3.118  -4.537  0.00  0.00    -0.019 C 
ATOM     27  C   UNL     1     -10.805   2.853  -5.642  0.00  0.00    -0.078 C 
ATOM     28  H   UNL     1      -9.246   2.811  -4.258  0.00  0.00    -0.081 HD
ENDBRANCH  21  22
BRANCH  21  29
ATOM     29  C   UNL     1      -9.073   1.194  -7.221  0.00  0.00    +0.093 A 
ATOM     30  C   UNL     1      -8.948   1.491  -8.527  0.00  0.00    +0.043 A 
ATOM     31  C   UNL     1      -9.557   0.437  -9.247  0.00  0.00    +0.041 A 
ATOM     32  C   UNL     1     -10.024  -0.436  -8.338  0.00  0.00    +0.195 A 
ATOM     33  O   UNL     1      -9.729   0.027  -7.112  0.00  0.00    -0.469 OA
ENDBRANCH  21  29
ENDBRANCH  20  21
ENDBRANCH   3  20
TORSDOF 8
