REMARK  Name = ZINC35836459
REMARK  7 active torsions:
REMARK  status: ('A' for Active; 'I' for Inactive)
REMARK    1  A    between atoms: C_1  and  C_2
REMARK    2  A    between atoms: C_4  and  C_27
REMARK    3  A    between atoms: C_5  and  C_9
REMARK    4  A    between atoms: C_7  and  C_8
REMARK    5  A    between atoms: N_14  and  C_17
REMARK    6  A    between atoms: N_20  and  C_24
REMARK    7  A    between atoms: C_24  and  C_25
REMARK                            x       y       z     vdW  Elec       q    Type
REMARK                         _______ _______ _______ _____ _____    ______ ____
ROOT
ATOM      1  C   UNL     1       0.182  -4.239   0.422  0.00  0.00    +0.142 C 
ATOM      2  C   UNL     1      -1.192  -4.827   0.172  0.00  0.00    +0.058 C 
ATOM      3  C   UNL     1      -1.774  -5.512   1.177  0.00  0.00    +0.043 C 
ATOM      4  C   UNL     1      -3.116  -5.976   0.654  0.00  0.00    +0.159 C 
ATOM      5  N   UNL     1      -3.181  -5.468  -0.724  0.00  0.00    -0.289 N 
ATOM      6  C   UNL     1      -2.035  -4.804  -0.959  0.00  0.00    +0.247 C 
ATOM      7  O   UNL     1      -1.761  -4.254  -2.010  0.00  0.00    -0.270 OA
ATOM      8  N   UNL     1      -1.148  -5.671   2.380  0.00  0.00    -0.253 N 
ATOM      9  C   UNL     1       0.065  -5.175   2.656  0.00  0.00    +0.307 C 
ATOM     10  O   UNL     1       0.543  -5.369   3.756  0.00  0.00    -0.252 OA
ATOM     11  N   UNL     1       0.770  -4.467   1.753  0.00  0.00    -0.288 N 
ATOM     12  H   UNL     1       1.647  -4.115   1.974  0.00  0.00    +0.151 HD
ENDROOT
BRANCH   1  17
ATOM     13  C   UNL     1      -0.138   1.466  -0.437  0.00  0.00    +0.044 C 
ATOM     14  C   UNL     1      -0.054  -0.022  -0.212  0.00  0.00    -0.047 A 
ATOM     15  C   UNL     1       1.158  -0.673  -0.341  0.00  0.00    +0.007 A 
ATOM     16  C   UNL     1       1.235  -2.038  -0.135  0.00  0.00    -0.045 A 
ATOM     17  C   UNL     1       0.099  -2.751   0.199  0.00  0.00    -0.019 A 
ATOM     18  C   UNL     1      -1.113  -2.100   0.329  0.00  0.00    +0.009 A 
ATOM     19  C   UNL     1      -1.189  -0.734   0.127  0.00  0.00    -0.047 A 
ATOM     20  C   UNL     1      -2.510  -0.023   0.273  0.00  0.00    +0.044 C 
ATOM     21  C   UNL     1       2.556  -2.748  -0.277  0.00  0.00    +0.044 C 
ENDBRANCH   1  17
BRANCH   5  22
ATOM     22  C   UNL     1      -4.288  -5.651  -1.666  0.00  0.00    +0.077 C 
ATOM     23  C   UNL     1      -4.064  -5.211  -3.114  0.00  0.00    +0.024 C 
ATOM     24  C   UNL     1      -4.977  -4.393  -2.199  0.00  0.00    +0.024 C 
ENDBRANCH   5  22
BRANCH   8  25
ATOM     25  C   UNL     1      -1.841  -6.428   3.426  0.00  0.00    +0.141 C 
BRANCH  25  26
ATOM     26  C   UNL     1      -1.480  -7.887   3.314  0.00  0.00    -0.015 C 
ATOM     27  C   UNL     1      -0.986  -8.520   4.348  0.00  0.00    +0.005 C 
ENDBRANCH  25  26
ENDBRANCH   8  25
TORSDOF 4
