REMARK  Name = ZINC32446966
REMARK  11 active torsions:
REMARK  status: ('A' for Active; 'I' for Inactive)
REMARK    1  A    between atoms: C_1  and  C_2
REMARK    2  A    between atoms: C_2  and  C_3
REMARK    3  A    between atoms: C_3  and  C_5
REMARK    4  A    between atoms: C_3  and  N_26
REMARK    5  A    between atoms: C_5  and  N_6
REMARK    6  A    between atoms: C_7  and  C_9
REMARK    7  A    between atoms: C_9  and  C_10
REMARK    8  A    between atoms: C_10  and  C_11
REMARK    9  A    between atoms: C_12  and  C_25
REMARK   10  A    between atoms: C_16  and  C_21
REMARK   11  A    between atoms: C_19  and  C_20
REMARK                            x       y       z     vdW  Elec       q    Type
REMARK                         _______ _______ _______ _____ _____    ______ ____
ROOT
ATOM      1  N   UNL     1      -0.976  -0.277   2.510  0.00  0.00    -0.317 N 
ATOM      2  C   UNL     1      -1.304   0.033   3.780  0.00  0.00    +0.213 C 
ATOM      3  O   UNL     1      -2.376   0.546   4.022  0.00  0.00    -0.276 OA
ATOM      4  H   UNL     1      -0.004  -0.742   2.290  0.00  0.00    +0.149 HD
ENDROOT
BRANCH   1   5
ATOM      5  C   UNL     1      -1.915   0.007   1.421  0.00  0.00    +0.089 C 
BRANCH   5   6
ATOM      6  C   UNL     1      -1.361  -0.557   0.111  0.00  0.00    -0.051 C 
BRANCH   6   7
ATOM      7  N   UNL     1      -2.243  -0.171  -0.999  0.00  0.00    +0.385 N 
ATOM      8  C   UNL     1      -2.283   1.292  -1.157  0.00  0.00    -0.073 C 
ATOM      9  C   UNL     1      -2.898   1.616  -2.519  0.00  0.00    +0.017 C 
ATOM     10  C   UNL     1      -4.193   0.864  -2.691  0.00  0.00    -0.048 A 
ATOM     11  C   UNL     1      -5.071   1.278  -3.681  0.00  0.00    +0.004 A 
ATOM     12  C   UNL     1      -6.266   0.615  -3.874  0.00  0.00    +0.000 A 
ATOM     13  C   UNL     1      -6.590  -0.467  -3.076  0.00  0.00    +0.000 A 
ATOM     14  C   UNL     1      -5.717  -0.878  -2.089  0.00  0.00    +0.002 A 
ATOM     15  C   UNL     1      -4.516  -0.213  -1.893  0.00  0.00    -0.061 A 
ATOM     16  C   UNL     1      -3.598  -0.697  -0.801  0.00  0.00    -0.042 C 
ATOM     17  H   UNL     1      -1.833  -0.612  -1.919  0.00  0.00    -0.081 HD
ENDBRANCH   6   7
BRANCH   6  19
ATOM     18  C   UNL     1      -0.625  -2.638  -1.059  0.00  0.00    +0.002 C 
ATOM     19  C   UNL     1      -1.293  -2.083   0.201  0.00  0.00    -0.017 C 
ENDBRANCH   6  19
ENDBRANCH   5   6
ENDBRANCH   1   5
BRANCH   2  20
ATOM     20  C   UNL     1      -0.338  -0.259   4.899  0.00  0.00    +0.100 C 
BRANCH  20  21
ATOM     21  C   UNL     1      -0.950   0.185   6.229  0.00  0.00    +0.048 C 
BRANCH  21  22
ATOM     22  C   UNL     1       0.016  -0.106   7.349  0.00  0.00    -0.005 A 
ATOM     23  C   UNL     1       0.962   0.851   7.736  0.00  0.00    +0.047 A 
ATOM     24  N   UNL     1       1.803   0.595   8.712  0.00  0.00    -0.216 NA
ATOM     25  C   UNL     1       1.773  -0.579   9.354  0.00  0.00    +0.254 A 
ATOM     26  N   UNL     1       2.496  -1.075  10.352  0.00  0.00    -0.186 NA
ATOM     27  C   UNL     1       2.080  -2.300  10.641  0.00  0.00    +0.257 A 
ATOM     28  N   UNL     1       1.087  -2.627   9.849  0.00  0.00    -0.139 NA
ATOM     29  N   UNL     1       0.862  -1.534   9.001  0.00  0.00    -0.200 N 
ATOM     30  C   UNL     1      -0.026  -1.298   7.998  0.00  0.00    +0.048 A 
ATOM     31  C   UNL     1      -1.036  -2.346   7.609  0.00  0.00    +0.066 C 
ATOM     32  C   UNL     1       1.016   2.180   7.029  0.00  0.00    +0.066 C 
BRANCH  27  33
ATOM     33  C   UNL     1       2.659  -3.182  11.717  0.00  0.00    +0.454 C 
ATOM     34  F   UNL     1       3.451  -2.412  12.576  0.00  0.00    -0.163 F 
ATOM     35  F   UNL     1       1.620  -3.773  12.445  0.00  0.00    -0.163 F 
ATOM     36  F   UNL     1       3.443  -4.180  11.129  0.00  0.00    -0.163 F 
ENDBRANCH  27  33
ENDBRANCH  21  22
ENDBRANCH  20  21
ENDBRANCH   2  20
TORSDOF 8
