REMARK  Name = ZINC66254393
REMARK  5 active torsions:
REMARK  status: ('A' for Active; 'I' for Inactive)
REMARK    1  A    between atoms: C_1  and  C_2
REMARK    2  A    between atoms: C_3  and  S_9
REMARK    3  A    between atoms: N_5  and  C_7
REMARK    4  A    between atoms: S_9  and  N_12
REMARK    5  A    between atoms: N_12  and  C_13
REMARK                            x       y       z     vdW  Elec       q    Type
REMARK                         _______ _______ _______ _____ _____    ______ ____
ROOT
ATOM      1  N   UNL     1       1.568  -0.085  -3.281  0.00  0.00    -0.070 NA
ENDROOT
BRANCH   1   2
ATOM      2  C   UNL     1       1.861   0.344  -4.560  0.00  0.00    +0.202 A 
ATOM      3  N   UNL     1       1.036   0.662  -5.531  0.00  0.00    -0.222 NA
ATOM      4  C   UNL     1       1.468   1.070  -6.745  0.00  0.00    +0.083 A 
ATOM      5  C   UNL     1       0.692   1.439  -7.868  0.00  0.00    +0.070 A 
ATOM      6  C   UNL     1       1.292   1.833  -9.037  0.00  0.00    +0.160 A 
ATOM      7  C   UNL     1       2.677   1.884  -9.160  0.00  0.00    +0.160 A 
ATOM      8  C   UNL     1       3.465   1.530  -8.079  0.00  0.00    +0.058 A 
ATOM      9  C   UNL     1       2.870   1.134  -6.907  0.00  0.00    +0.044 A 
ATOM     10  S   UNL     1       3.459   0.614  -5.313  0.00  0.00    -0.049 S 
ATOM     11  F   UNL     1       3.246   2.274 -10.322  0.00  0.00    -0.202 F 
ATOM     12  F   UNL     1       0.522   2.178 -10.092  0.00  0.00    -0.202 F 
ENDBRANCH   1   2
BRANCH   1  13
ATOM     13  S   UNL     1      -0.009  -0.263  -2.808  0.00  0.00    +0.098 S 
ATOM     14  O   UNL     1      -0.548  -1.324  -3.583  0.00  0.00    -0.148 OA
ATOM     15  O   UNL     1      -0.579   1.039  -2.798  0.00  0.00    -0.148 OA
BRANCH  13  18
ATOM     16  C   UNL     1      -0.018   1.503   0.010  0.00  0.00    +0.069 C 
ATOM     17  C   UNL     1       0.002  -0.004   0.002  0.00  0.00    +0.088 A 
ATOM     18  C   UNL     1       0.008  -0.818  -1.135  0.00  0.00    +0.169 A 
ATOM     19  C   UNL     1       0.028  -2.108  -0.724  0.00  0.00    +0.154 A 
ATOM     20  N   UNL     1       0.035  -2.109   0.626  0.00  0.00    -0.254 N 
ATOM     21  N   UNL     1       0.023  -0.777   1.058  0.00  0.00    -0.173 NA
ATOM     22  C   UNL     1       0.055  -3.294   1.487  0.00  0.00    +0.174 C 
ATOM     23 CL   UNL     1       0.043  -3.509  -1.749  0.00  0.00    -0.060 Cl
ENDBRANCH  13  18
ENDBRANCH   1  13
TORSDOF 3
