REMARK  Name = ZINC39405764
REMARK  8 active torsions:
REMARK  status: ('A' for Active; 'I' for Inactive)
REMARK    1  A    between atoms: C_1  and  C_2
REMARK    2  A    between atoms: C_2  and  C_38
REMARK    3  A    between atoms: C_4  and  N_9
REMARK    4  A    between atoms: C_16  and  N_20
REMARK    5  A    between atoms: C_24  and  C_27
REMARK    6  A    between atoms: N_29  and  C_30
REMARK    7  A    between atoms: C_30  and  C_31
REMARK    8  A    between atoms: C_31  and  C_32
REMARK                            x       y       z     vdW  Elec       q    Type
REMARK                         _______ _______ _______ _____ _____    ______ ____
ROOT
ATOM      1  N   UNL     1       2.887  -0.543  -2.394  0.00  0.00    -0.231 N 
ATOM      2  C   UNL     1       3.041  -1.852  -2.663  0.00  0.00    +0.254 C 
ATOM      3  O   UNL     1       2.616  -2.769  -1.989  0.00  0.00    -0.270 OA
ATOM      4  C   UNL     1       3.814  -1.986  -3.915  0.00  0.00    +0.051 A 
ATOM      5  C   UNL     1       4.266  -3.059  -4.663  0.00  0.00    +0.014 A 
ATOM      6  C   UNL     1       4.987  -2.838  -5.828  0.00  0.00    +0.003 A 
ATOM      7  C   UNL     1       5.261  -1.555  -6.251  0.00  0.00    +0.024 A 
ATOM      8  C   UNL     1       4.814  -0.458  -5.512  0.00  0.00    +0.043 A 
ATOM      9  C   UNL     1       4.089  -0.668  -4.340  0.00  0.00    +0.070 A 
ATOM     10  C   UNL     1       3.471   0.217  -3.339  0.00  0.00    +0.256 C 
ATOM     11  O   UNL     1       3.488   1.432  -3.361  0.00  0.00    -0.269 OA
ENDROOT
BRANCH   1  15
ATOM     12  C   UNL     1      -0.019   1.526   0.010  0.00  0.00    +0.041 C 
ATOM     13  C   UNL     1       0.002  -0.004   0.002  0.00  0.00    +0.066 C 
ATOM     14  C   UNL     1       0.720  -0.498  -1.257  0.00  0.00    +0.057 C 
ATOM     15  C   UNL     1       2.173  -0.014  -1.230  0.00  0.00    +0.090 C 
ATOM     16  C   UNL     1       2.842  -0.512   0.054  0.00  0.00    +0.051 C 
ATOM     17  C   UNL     1       2.042  -0.018   1.263  0.00  0.00    +0.162 C 
ATOM     18  O   UNL     1       0.693  -0.478   1.160  0.00  0.00    -0.374 OA
ATOM     19  C   UNL     1      -1.433  -0.534   0.012  0.00  0.00    +0.041 C 
ENDBRANCH   1  15
BRANCH   8  20
ATOM     20  N   UNL     1       5.091   0.833  -5.940  0.00  0.00    -0.329 N 
ATOM     21  C   UNL     1       6.319   1.516  -5.511  0.00  0.00    +0.105 C 
ATOM     22  C   UNL     1       7.068   2.010  -6.753  0.00  0.00    +0.020 C 
ATOM     23  C   UNL     1       6.130   2.874  -7.599  0.00  0.00    +0.016 C 
ATOM     24  C   UNL     1       4.935   2.035  -8.057  0.00  0.00    +0.092 C 
ATOM     25  C   UNL     1       4.165   1.539  -6.835  0.00  0.00    +0.117 C 
BRANCH  24  26
ATOM     26  C   UNL     1       4.029   2.877  -8.918  0.00  0.00    +0.218 C 
ATOM     27  O   UNL     1       2.878   3.063  -8.586  0.00  0.00    -0.275 OA
ATOM     28  N   UNL     1       4.498   3.424 -10.057  0.00  0.00    -0.315 N 
ATOM     29  H   UNL     1       5.419   3.275 -10.323  0.00  0.00    +0.149 HD
BRANCH  28  30
ATOM     30  C   UNL     1       3.618   4.243 -10.894  0.00  0.00    +0.108 C 
BRANCH  30  31
ATOM     31  C   UNL     1       4.392   4.738 -12.117  0.00  0.00    +0.049 C 
BRANCH  31  32
ATOM     32  C   UNL     1       3.486   5.580 -12.978  0.00  0.00    -0.072 C 
ATOM     33  C   UNL     1       3.516   6.864 -12.816  0.00  0.00    -0.028 C 
ATOM     34  C   UNL     1       2.667   7.830 -13.589  0.00  0.00    +0.027 C 
ATOM     35  C   UNL     1       2.107   7.152 -14.842  0.00  0.00    +0.004 C 
ATOM     36  C   UNL     1       1.484   5.812 -14.431  0.00  0.00    +0.005 C 
ATOM     37  C   UNL     1       2.609   4.879 -13.973  0.00  0.00    +0.030 C 
ENDBRANCH  31  32
ENDBRANCH  30  31
ENDBRANCH  28  30
ENDBRANCH  24  26
ENDBRANCH   8  20
TORSDOF 6
