REMARK  Name = ZINC02636701
REMARK  7 active torsions:
REMARK  status: ('A' for Active; 'I' for Inactive)
REMARK    1  A    between atoms: C_1  and  C_2
REMARK    2  A    between atoms: C_2  and  C_23
REMARK    3  A    between atoms: N_5  and  C_9
REMARK    4  A    between atoms: C_9  and  C_10
REMARK    5  A    between atoms: N_12  and  C_13
REMARK    6  A    between atoms: C_16  and  S_19
REMARK    7  A    between atoms: S_19  and  N_22
REMARK                            x       y       z     vdW  Elec       q    Type
REMARK                         _______ _______ _______ _____ _____    ______ ____
ROOT
ATOM      1  C   UNL     1       2.874  -1.899  -1.400  0.00  0.00    +0.214 C 
ENDROOT
BRANCH   1   6
ATOM      2  C   UNL     1      -0.027   1.522  -0.003  0.00  0.00    +0.047 C 
ATOM      3  C   UNL     1      -0.001  -0.008  -0.001  0.00  0.00    +0.136 C 
ATOM      4  C   UNL     1       0.813  -0.528  -1.170  0.00  0.00    +0.251 C 
ATOM      5  O   UNL     1       0.591  -0.358  -2.350  0.00  0.00    -0.272 OA
ATOM      6  N   UNL     1       1.834  -1.219  -0.625  0.00  0.00    -0.215 N 
ATOM      7  C   UNL     1       1.779  -1.207   0.712  0.00  0.00    +0.310 C 
ATOM      8  O   UNL     1       2.591  -1.762   1.426  0.00  0.00    -0.252 OA
ATOM      9  N   UNL     1       0.725  -0.513   1.177  0.00  0.00    -0.281 N 
ATOM     10  H   UNL     1       0.488  -0.372   2.107  0.00  0.00    +0.152 HD
BRANCH   3  11
ATOM     11  C   UNL     1      -1.402  -0.561  -0.038  0.00  0.00    -0.002 A 
ATOM     12  C   UNL     1      -1.860  -1.355   0.997  0.00  0.00    +0.007 A 
ATOM     13  C   UNL     1      -3.145  -1.862   0.963  0.00  0.00    +0.000 A 
ATOM     14  C   UNL     1      -3.974  -1.575  -0.106  0.00  0.00    +0.001 A 
ATOM     15  C   UNL     1      -3.517  -0.782  -1.141  0.00  0.00    +0.015 A 
ATOM     16  C   UNL     1      -2.232  -0.270  -1.105  0.00  0.00    +0.024 A 
ATOM     17 BR   UNL     1      -1.609   0.821  -2.518  0.00  0.00    -0.050 Br
ENDBRANCH   3  11
ENDBRANCH   1   6
BRANCH   1  18
ATOM     18  C   UNL     1       4.019  -0.950  -1.645  0.00  0.00    +0.235 C 
ATOM     19  O   UNL     1       3.970   0.183  -1.214  0.00  0.00    -0.274 OA
ATOM     20  N   UNL     1       5.097  -1.360  -2.343  0.00  0.00    -0.284 N 
ATOM     21  H   UNL     1       5.166  -2.284  -2.629  0.00  0.00    +0.155 HD
BRANCH  20  22
ATOM     22  C   UNL     1       6.116  -0.452  -2.654  0.00  0.00    +0.034 A 
ATOM     23  C   UNL     1       6.792  -0.552  -3.862  0.00  0.00    +0.025 A 
ATOM     24  C   UNL     1       7.797   0.345  -4.166  0.00  0.00    +0.030 A 
ATOM     25  C   UNL     1       8.131   1.342  -3.268  0.00  0.00    +0.105 A 
ATOM     26  C   UNL     1       7.460   1.444  -2.063  0.00  0.00    +0.030 A 
ATOM     27  C   UNL     1       6.449   0.553  -1.756  0.00  0.00    +0.025 A 
BRANCH  25  28
ATOM     28  S   UNL     1       9.414   2.484  -3.659  0.00  0.00    +0.056 S 
ATOM     29  O   UNL     1       9.904   2.984  -2.423  0.00  0.00    -0.153 OA
ATOM     30  O   UNL     1      10.254   1.841  -4.608  0.00  0.00    -0.153 OA
BRANCH  28  31
ATOM     31  N   UNL     1       8.709   3.763  -4.441  0.00  0.00    -0.204 NA
ATOM     32  H   UNL     1       7.752   3.768  -4.597  0.00  0.00    +0.144 HD
ATOM     33  H   UNL     1       9.254   4.507  -4.742  0.00  0.00    +0.144 HD
ENDBRANCH  28  31
ENDBRANCH  25  28
ENDBRANCH  20  22
ENDBRANCH   1  18
TORSDOF 6
