REMARK  Name = ZINC04011388
REMARK  7 active torsions:
REMARK  status: ('A' for Active; 'I' for Inactive)
REMARK    1  A    between atoms: C_1  and  C_2
REMARK    2  A    between atoms: C_2  and  C_3
REMARK    3  A    between atoms: C_3  and  O_4
REMARK    4  A    between atoms: O_4  and  C_5
REMARK    5  A    between atoms: C_5  and  C_7
REMARK    6  A    between atoms: C_8  and  C_22
REMARK    7  A    between atoms: C_13  and  C_15
REMARK                            x       y       z     vdW  Elec       q    Type
REMARK                         _______ _______ _______ _____ _____    ______ ____
ROOT
ATOM      1  C   UNL     1      -1.310   2.942   0.029  0.00  0.00    +0.078 C 
ATOM      2  C   UNL     1      -1.224   1.594   0.017  0.00  0.00    +0.021 C 
ATOM      3  N   UNL     1      -0.011   0.966   0.007  0.00  0.00    -0.273 N 
ATOM      4  C   UNL     1       1.161   1.614  -0.000  0.00  0.00    +0.304 C 
ATOM      5  O   UNL     1       2.190   0.967  -0.013  0.00  0.00    -0.252 OA
ATOM      6  N   UNL     1       1.236   2.959   0.006  0.00  0.00    -0.288 N 
ATOM      7  C   UNL     1      -0.018   3.732   0.022  0.00  0.00    +0.143 C 
ATOM      8  C   UNL     1      -2.485   0.770   0.019  0.00  0.00    +0.061 C 
ATOM      9  H   UNL     1       0.002  -0.004   0.002  0.00  0.00    +0.156 HD
ATOM     10  H   UNL     1       2.096   3.408   0.001  0.00  0.00    +0.151 HD
ENDROOT
BRANCH   7  11
ATOM     11  C   UNL     1      -0.005   4.613   1.244  0.00  0.00    -0.022 A 
ATOM     12  C   UNL     1       0.479   4.124   2.443  0.00  0.00    +0.007 A 
ATOM     13  C   UNL     1       0.496   4.934   3.563  0.00  0.00    +0.020 A 
ATOM     14  C   UNL     1       0.017   6.229   3.487  0.00  0.00    +0.041 A 
ATOM     15  C   UNL     1      -0.473   6.716   2.288  0.00  0.00    +0.020 A 
ATOM     16  C   UNL     1      -0.484   5.907   1.168  0.00  0.00    +0.007 A 
ATOM     17 CL   UNL     1       0.032   7.245   4.895  0.00  0.00    -0.084 Cl
ENDBRANCH   7  11
BRANCH   1  18
ATOM     18  C   UNL     1      -2.566   3.593   0.044  0.00  0.00    +0.339 C 
ATOM     19  O   UNL     1      -3.591   2.938   0.050  0.00  0.00    -0.245 OA
BRANCH  18  20
ATOM     20  O   UNL     1      -2.626   4.941   0.052  0.00  0.00    -0.461 OA
BRANCH  20  21
ATOM     21  C   UNL     1      -3.927   5.533   0.067  0.00  0.00    +0.232 C 
BRANCH  21  23
ATOM     22  C   UNL     1      -5.187   7.690   0.090  0.00  0.00    +0.007 C 
ATOM     23  C   UNL     1      -3.794   7.057   0.074  0.00  0.00    +0.038 C 
ENDBRANCH  21  23
ENDBRANCH  20  21
ENDBRANCH  18  20
ENDBRANCH   1  18
TORSDOF 5
