REMARK  Name = ZINC50441434
REMARK  5 active torsions:
REMARK  status: ('A' for Active; 'I' for Inactive)
REMARK    1  A    between atoms: C_3  and  O_9
REMARK    2  A    between atoms: C_6  and  C_7
REMARK    3  A    between atoms: C_7  and  N_8
REMARK    4  A    between atoms: O_9  and  C_10
REMARK    5  A    between atoms: C_13  and  N_17
REMARK                            x       y       z     vdW  Elec       q    Type
REMARK                         _______ _______ _______ _____ _____    ______ ____
ROOT
ATOM      1  O   UNL     1       3.548   2.103  -0.021  0.00  0.00    -0.454 OA
ENDROOT
BRANCH   1   2
ATOM      2  C   UNL     1       4.710   1.398  -0.036  0.00  0.00    +0.156 A 
ATOM      3  C   UNL     1       5.313   1.026   1.158  0.00  0.00    +0.063 A 
ATOM      4  C   UNL     1       6.494   0.308   1.140  0.00  0.00    +0.051 A 
ATOM      5  C   UNL     1       7.075  -0.040  -0.066  0.00  0.00    +0.129 A 
ATOM      6  C   UNL     1       6.477   0.330  -1.256  0.00  0.00    +0.051 A 
ATOM      7  C   UNL     1       5.293   1.043  -1.244  0.00  0.00    +0.063 A 
ATOM      8 BR   UNL     1       4.471   1.541  -2.873  0.00  0.00    -0.046 Br
ATOM      9 BR   UNL     1       4.520   1.501   2.807  0.00  0.00    -0.046 Br
BRANCH   5  10
ATOM     10  N   UNL     1       8.340  -0.808  -0.082  0.00  0.00    +0.056 N 
ATOM     11  O   UNL     1       8.864  -1.132   0.958  0.00  0.00    -0.126 OA
ATOM     12  O   UNL     1       8.849  -1.113  -1.136  0.00  0.00    -0.126 OA
ENDBRANCH   5  10
ENDBRANCH   1   2
BRANCH   1  15
ATOM     13  C   UNL     1      -0.017   1.379   0.010  0.00  0.00    +0.005 A 
ATOM     14  C   UNL     1       1.169   2.087   0.002  0.00  0.00    +0.046 A 
ATOM     15  C   UNL     1       2.380   1.409  -0.013  0.00  0.00    +0.129 A 
ATOM     16  C   UNL     1       2.396   0.022  -0.021  0.00  0.00    +0.046 A 
ATOM     17  C   UNL     1       1.207  -0.681  -0.013  0.00  0.00    +0.005 A 
ATOM     18  C   UNL     1       0.002  -0.004   0.002  0.00  0.00    -0.065 A 
BRANCH  18  19
ATOM     19  C   UNL     1      -1.293  -0.774   0.010  0.00  0.00    -0.051 C 
BRANCH  19  20
ATOM     20  N   UNL     1      -1.728  -1.017  -1.372  0.00  0.00    +0.381 N 
ATOM     21  H   UNL     1      -1.864  -0.134  -1.842  0.00  0.00    -0.090 HD
ATOM     22  H   UNL     1      -1.022  -1.550  -1.857  0.00  0.00    -0.090 HD
ATOM     23  H   UNL     1      -2.595  -1.532  -1.367  0.00  0.00    -0.090 HD
ENDBRANCH  19  20
ENDBRANCH  18  19
ENDBRANCH   1  15
TORSDOF 5
