REMARK  Name = ZINC62179808
REMARK  6 active torsions:
REMARK  status: ('A' for Active; 'I' for Inactive)
REMARK    1  A    between atoms: C_1  and  C_2
REMARK    2  A    between atoms: C_2  and  C_3
REMARK    3  A    between atoms: C_6  and  C_9
REMARK    4  A    between atoms: C_9  and  C_10
REMARK    5  A    between atoms: C_10  and  C_11
REMARK    6  A    between atoms: N_13  and  C_14
REMARK                            x       y       z     vdW  Elec       q    Type
REMARK                         _______ _______ _______ _____ _____    ______ ____
ROOT
ATOM      1  C   UNL     1       3.733  -1.155  -6.916  0.00  0.00    +0.218 C 
ATOM      2  O   UNL     1       3.725  -2.332  -7.210  0.00  0.00    -0.275 OA
ATOM      3  N   UNL     1       4.370  -0.268  -7.706  0.00  0.00    -0.285 N 
ATOM      4  H   UNL     1       4.312   0.681  -7.514  0.00  0.00    +0.155 HD
ENDROOT
BRANCH   3   5
ATOM      5  C   UNL     1       5.116  -0.717  -8.803  0.00  0.00    +0.037 A 
ATOM      6  C   UNL     1       5.192   0.059  -9.954  0.00  0.00    +0.025 A 
ATOM      7  C   UNL     1       5.925  -0.379 -11.038  0.00  0.00    +0.031 A 
ATOM      8  C   UNL     1       6.588  -1.595 -10.978  0.00  0.00    +0.087 A 
ATOM      9  C   UNL     1       6.515  -2.377  -9.825  0.00  0.00    +0.159 A 
ATOM     10  C   UNL     1       5.782  -1.931  -8.737  0.00  0.00    +0.071 A 
ATOM     11  O   UNL     1       7.249  -3.494 -10.049  0.00  0.00    -0.408 OA
ATOM     12  C   UNL     1       7.771  -3.440 -11.285  0.00  0.00    +0.419 A 
ATOM     13  O   UNL     1       8.477  -4.293 -11.787  0.00  0.00    -0.223 OA
ATOM     14  N   UNL     1       7.389  -2.294 -11.883  0.00  0.00    -0.288 N 
ATOM     15  H   UNL     1       7.627  -2.008 -12.779  0.00  0.00    +0.172 HD
ENDBRANCH   3   5
BRANCH   1  16
ATOM     16  C   UNL     1       3.030  -0.685  -5.669  0.00  0.00    +0.101 C 
BRANCH  16  17
ATOM     17  C   UNL     1       2.393  -1.882  -4.961  0.00  0.00    +0.044 C 
BRANCH  17  21
ATOM     18  C   UNL     1       0.399  -0.551  -1.425  0.00  0.00    -0.048 A 
ATOM     19  C   UNL     1      -0.284  -0.602  -2.626  0.00  0.00    +0.004 A 
ATOM     20  C   UNL     1       0.361  -1.033  -3.770  0.00  0.00    +0.004 A 
ATOM     21  C   UNL     1       1.689  -1.411  -3.714  0.00  0.00    -0.047 A 
ATOM     22  C   UNL     1       2.372  -1.359  -2.513  0.00  0.00    +0.004 A 
ATOM     23  C   UNL     1       1.728  -0.925  -1.370  0.00  0.00    +0.004 A 
BRANCH  18  25
ATOM     24  C   UNL     1      -0.149   1.435  -0.044  0.00  0.00    +0.009 C 
ATOM     25  C   UNL     1      -0.305  -0.081  -0.178  0.00  0.00    +0.032 C 
ENDBRANCH  18  25
ENDBRANCH  17  21
ENDBRANCH  16  17
ENDBRANCH   1  16
TORSDOF 5
