REMARK  Name = ZINC57341883
REMARK  5 active torsions:
REMARK  status: ('A' for Active; 'I' for Inactive)
REMARK    1  A    between atoms: C_1  and  C_2
REMARK    2  A    between atoms: C_6  and  N_8
REMARK    3  A    between atoms: C_11  and  C_16
REMARK    4  A    between atoms: C_19  and  O_22
REMARK    5  A    between atoms: O_22  and  C_23
REMARK                            x       y       z     vdW  Elec       q    Type
REMARK                         _______ _______ _______ _____ _____    ______ ____
ROOT
ATOM      1  N   UNL     1       0.053  -2.796   2.395  0.00  0.00    -0.283 N 
ATOM      2  C   UNL     1       0.152  -2.121   3.584  0.00  0.00    +0.201 A 
ATOM      3  N   UNL     1       0.128  -0.805   3.582  0.00  0.00    -0.216 NA
ATOM      4  C   UNL     1       0.222  -0.107   4.722  0.00  0.00    +0.080 A 
ATOM      5  C   UNL     1       0.349  -0.778   5.931  0.00  0.00    +0.098 A 
ATOM      6  C   UNL     1       0.375  -2.180   5.923  0.00  0.00    +0.253 A 
ATOM      7  N   UNL     1       0.270  -2.826   4.743  0.00  0.00    -0.295 N 
ATOM      8  O   UNL     1       0.486  -2.805   6.965  0.00  0.00    -0.268 OA
ATOM      9  H   UNL     1       0.158  -3.760   2.375  0.00  0.00    +0.155 HD
ATOM     10  H   UNL     1       0.281  -3.796   4.720  0.00  0.00    +0.172 HD
ENDROOT
BRANCH   1  16
ATOM     11  C   UNL     1      -2.157   0.935   0.079  0.00  0.00    +0.044 C 
ATOM     12  C   UNL     1      -1.270  -0.282   0.059  0.00  0.00    -0.049 A 
ATOM     13  C   UNL     1      -0.705  -0.706  -1.130  0.00  0.00    +0.006 A 
ATOM     14  C   UNL     1       0.110  -1.822  -1.153  0.00  0.00    +0.040 A 
ATOM     15  C   UNL     1       0.364  -2.518   0.014  0.00  0.00    +0.145 A 
ATOM     16  C   UNL     1      -0.202  -2.094   1.211  0.00  0.00    +0.069 A 
ATOM     17  C   UNL     1      -1.016  -0.970   1.230  0.00  0.00    +0.029 A 
ATOM     18  F   UNL     1       1.161  -3.609  -0.009  0.00  0.00    -0.204 F 
ENDBRANCH   1  16
BRANCH   4  19
ATOM     19  C   UNL     1       0.192   1.373   4.693  0.00  0.00    +0.001 A 
ATOM     20  C   UNL     1       0.297   2.098   5.880  0.00  0.00    +0.013 A 
ATOM     21  C   UNL     1       0.269   3.475   5.849  0.00  0.00    +0.046 A 
ATOM     22  C   UNL     1       0.137   4.142   4.637  0.00  0.00    +0.120 A 
ATOM     23  C   UNL     1       0.032   3.423   3.453  0.00  0.00    +0.046 A 
ATOM     24  C   UNL     1       0.065   2.045   3.477  0.00  0.00    +0.013 A 
BRANCH  22  25
ATOM     25  O   UNL     1       0.110   5.499   4.610  0.00  0.00    -0.495 OA
ATOM     26  C   UNL     1      -0.028   6.120   3.331  0.00  0.00    +0.277 C 
ENDBRANCH  22  25
ENDBRANCH   4  19
TORSDOF 3
