REMARK  Name = ZINC36005344
REMARK  12 active torsions:
REMARK  status: ('A' for Active; 'I' for Inactive)
REMARK    1  A    between atoms: C_1  and  C_2
REMARK    2  A    between atoms: C_2  and  N_3
REMARK    3  A    between atoms: C_4  and  C_24
REMARK    4  A    between atoms: C_5  and  C_19
REMARK    5  A    between atoms: C_6  and  C_11
REMARK    6  A    between atoms: C_14  and  C_18
REMARK    7  A    between atoms: C_16  and  C_17
REMARK    8  A    between atoms: C_19  and  O_21
REMARK    9  A    between atoms: O_21  and  C_22
REMARK   10  A    between atoms: C_22  and  C_23
REMARK   11  A    between atoms: C_24  and  N_25
REMARK   12  A    between atoms: C_32  and  C_34
REMARK                            x       y       z     vdW  Elec       q    Type
REMARK                         _______ _______ _______ _____ _____    ______ ____
ROOT
ATOM      1  N   UNL     1       0.031  -0.236  -1.547  0.00  0.00    -0.261 N 
ATOM      2  C   UNL     1      -0.515  -1.062  -2.488  0.00  0.00    +0.010 C 
ATOM      3  C   UNL     1       0.266  -1.765  -3.336  0.00  0.00    +0.076 C 
ATOM      4  C   UNL     1       1.768  -1.605  -3.208  0.00  0.00    +0.144 C 
ATOM      5  N   UNL     1       2.255  -0.690  -2.162  0.00  0.00    -0.288 N 
ATOM      6  C   UNL     1       1.349  -0.053  -1.394  0.00  0.00    +0.307 C 
ATOM      7  O   UNL     1       1.741   0.707  -0.530  0.00  0.00    -0.252 OA
ATOM      8  H   UNL     1       3.205  -0.546  -2.031  0.00  0.00    +0.151 HD
ENDROOT
BRANCH   4   9
ATOM      9  C   UNL     1       2.298  -1.120  -4.533  0.00  0.00    -0.020 A 
ATOM     10  C   UNL     1       1.445  -0.519  -5.440  0.00  0.00    +0.006 A 
ATOM     11  C   UNL     1       1.931  -0.074  -6.655  0.00  0.00    +0.004 A 
ATOM     12  C   UNL     1       3.270  -0.230  -6.963  0.00  0.00    -0.050 A 
ATOM     13  C   UNL     1       4.123  -0.830  -6.055  0.00  0.00    +0.007 A 
ATOM     14  C   UNL     1       3.637  -1.271  -4.838  0.00  0.00    -0.045 A 
ATOM     15  C   UNL     1       4.568  -1.920  -3.846  0.00  0.00    +0.044 C 
ATOM     16  C   UNL     1       3.800   0.254  -8.288  0.00  0.00    +0.044 C 
ENDBRANCH   4   9
BRANCH   1  18
ATOM     17  C   UNL     1      -1.177   1.872  -1.261  0.00  0.00    +0.025 C 
ATOM     18  C   UNL     1      -0.876   0.497  -0.660  0.00  0.00    +0.111 C 
ENDBRANCH   1  18
BRANCH   3  19
ATOM     19  C   UNL     1      -0.298  -2.622  -4.310  0.00  0.00    +0.339 C 
ATOM     20  O   UNL     1      -1.505  -2.670  -4.451  0.00  0.00    -0.245 OA
BRANCH  19  21
ATOM     21  O   UNL     1       0.503  -3.385  -5.082  0.00  0.00    -0.462 OA
BRANCH  21  22
ATOM     22  C   UNL     1      -0.125  -4.143  -6.118  0.00  0.00    +0.229 C 
ATOM     23  C   UNL     1       0.915  -5.034  -6.800  0.00  0.00    +0.048 C 
ENDBRANCH  21  22
ENDBRANCH  19  21
ENDBRANCH   3  19
BRANCH   2  24
ATOM     24  C   UNL     1      -2.013  -1.191  -2.580  0.00  0.00    -0.026 C 
BRANCH  24  25
ATOM     25  N   UNL     1      -2.441  -2.427  -1.911  0.00  0.00    +0.384 N 
ATOM     26  C   UNL     1      -3.848  -2.660  -2.228  0.00  0.00    -0.077 C 
ATOM     27  C   UNL     1      -4.124  -4.147  -2.211  0.00  0.00    +0.000 C 
ATOM     28  C   UNL     1      -4.631  -4.558  -0.817  0.00  0.00    +0.106 C 
ATOM     29  N   UNL     1      -3.894  -3.848   0.247  0.00  0.00    -0.299 N 
ATOM     30  C   UNL     1      -2.461  -3.640   0.192  0.00  0.00    +0.089 C 
ATOM     31  C   UNL     1      -2.151  -2.311  -0.533  0.00  0.00    -0.059 C 
ATOM     32  C   UNL     1      -4.578  -3.375   1.308  0.00  0.00    +0.247 C 
ATOM     33  O   UNL     1      -4.013  -2.694   2.141  0.00  0.00    -0.270 OA
ATOM     34  H   UNL     1      -1.901  -3.193  -2.286  0.00  0.00    -0.081 HD
BRANCH  32  35
ATOM     35  C   UNL     1      -6.015  -3.686   1.458  0.00  0.00    +0.037 A 
ATOM     36  C   UNL     1      -6.506  -4.934   1.071  0.00  0.00    +0.016 A 
ATOM     37  C   UNL     1      -7.847  -5.219   1.213  0.00  0.00    +0.039 A 
ATOM     38  C   UNL     1      -8.708  -4.267   1.738  0.00  0.00    +0.123 A 
ATOM     39  C   UNL     1      -8.226  -3.026   2.124  0.00  0.00    +0.039 A 
ATOM     40  C   UNL     1      -6.885  -2.733   1.992  0.00  0.00    +0.016 A 
ATOM     41  F   UNL     1     -10.022  -4.551   1.874  0.00  0.00    -0.205 F 
ENDBRANCH  32  35
ENDBRANCH  24  25
ENDBRANCH   2  24
TORSDOF 8
