REMARK  Name = ZINC03658276
REMARK  6 active torsions:
REMARK  status: ('A' for Active; 'I' for Inactive)
REMARK    1  A    between atoms: C_9  and  C_12
REMARK    2  A    between atoms: N_14  and  N_15
REMARK    3  A    between atoms: C_16  and  C_17
REMARK    4  A    between atoms: C_20  and  O_23
REMARK    5  A    between atoms: O_23  and  C_24
REMARK    6  A    between atoms: C_24  and  C_26
REMARK                            x       y       z     vdW  Elec       q    Type
REMARK                         _______ _______ _______ _____ _____    ______ ____
ROOT
ATOM      1  N   UNL     1      -1.625   3.753   2.517  0.00  0.00    -0.188 NA
ATOM      2  C   UNL     1      -1.775   5.024   2.732  0.00  0.00    +0.138 C 
ENDROOT
BRANCH   2   3
ATOM      3  C   UNL     1      -2.466   5.489   3.949  0.00  0.00    -0.005 A 
ATOM      4  C   UNL     1      -2.965   4.564   4.869  0.00  0.00    +0.013 A 
ATOM      5  C   UNL     1      -3.605   5.003   6.007  0.00  0.00    +0.047 A 
ATOM      6  C   UNL     1      -3.764   6.364   6.235  0.00  0.00    +0.132 A 
ATOM      7  C   UNL     1      -3.275   7.288   5.321  0.00  0.00    +0.047 A 
ATOM      8  C   UNL     1      -2.628   6.858   4.182  0.00  0.00    +0.013 A 
BRANCH   6   9
ATOM      9  O   UNL     1      -4.400   6.793   7.356  0.00  0.00    -0.422 OA
BRANCH   9  10
ATOM     10  C   UNL     1      -5.606   7.371   7.192  0.00  0.00    +0.344 C 
ATOM     11  O   UNL     1      -6.124   7.395   6.093  0.00  0.00    -0.245 OA
BRANCH  10  12
ATOM     12  C   UNL     1      -6.299   7.976   8.348  0.00  0.00    +0.059 A 
ATOM     13  C   UNL     1      -5.709   7.945   9.613  0.00  0.00    +0.016 A 
ATOM     14  C   UNL     1      -6.359   8.515  10.687  0.00  0.00    +0.016 A 
ATOM     15  C   UNL     1      -7.599   9.108  10.515  0.00  0.00    +0.018 A 
ATOM     16  C   UNL     1      -8.191   9.137   9.264  0.00  0.00    +0.016 A 
ATOM     17  C   UNL     1      -7.549   8.575   8.181  0.00  0.00    +0.016 A 
ATOM     18 BR   UNL     1      -8.485   9.883  11.995  0.00  0.00    -0.050 Br
ENDBRANCH  10  12
ENDBRANCH   9  10
ENDBRANCH   6   9
ENDBRANCH   2   3
BRANCH   1  21
ATOM     19  C   UNL     1      -0.814   1.991   1.138  0.00  0.00    +0.276 C 
ATOM     20  O   UNL     1      -1.242   1.185   1.938  0.00  0.00    -0.270 OA
ATOM     21  N   UNL     1      -0.969   3.311   1.361  0.00  0.00    -0.204 N 
ATOM     22  H   UNL     1      -0.581   4.041   0.635  0.00  0.00    +0.177 HD
BRANCH  19  31
ATOM     23  C   UNL     1       2.344  -1.777  -2.878  0.00  0.00    +0.004 A 
ATOM     24  C   UNL     1       1.258  -2.454  -2.355  0.00  0.00    +0.004 A 
ATOM     25  C   UNL     1       0.419  -1.827  -1.453  0.00  0.00    +0.049 A 
ATOM     26  C   UNL     1       0.665  -0.517  -1.070  0.00  0.00    +0.163 A 
ATOM     27  C   UNL     1       1.755   0.165  -1.598  0.00  0.00    +0.162 A 
ATOM     28  C   UNL     1       2.593  -0.471  -2.502  0.00  0.00    +0.049 A 
ATOM     29  O   UNL     1       2.010   1.453  -1.242  0.00  0.00    -0.484 OA
ATOM     30  C   UNL     1       1.368   1.931  -0.055  0.00  0.00    +0.283 C 
ATOM     31  C   UNL     1      -0.108   1.515  -0.106  0.00  0.00    +0.297 C 
ATOM     32  O   UNL     1      -0.169   0.086  -0.179  0.00  0.00    -0.472 OA
ENDBRANCH  19  31
ENDBRANCH   1  21
TORSDOF 6
