REMARK  Name = ZINC10188489
REMARK  10 active torsions:
REMARK  status: ('A' for Active; 'I' for Inactive)
REMARK    1  A    between atoms: C_1  and  N_2
REMARK    2  A    between atoms: N_2  and  C_3
REMARK    3  A    between atoms: N_2  and  C_4
REMARK    4  A    between atoms: C_7  and  C_10
REMARK    5  A    between atoms: C_10  and  C_12
REMARK    6  A    between atoms: C_10  and  N_65
REMARK    7  A    between atoms: C_12  and  N_13
REMARK    8  A    between atoms: C_14  and  C_16
REMARK    9  A    between atoms: N_18  and  C_19
REMARK   10  A    between atoms: C_23  and  N_25
REMARK                            x       y       z     vdW  Elec       q    Type
REMARK                         _______ _______ _______ _____ _____    ______ ____
ROOT
ATOM      1  C   UNL     1       3.640  10.105   0.414  0.00  0.00    -0.020 C 
ENDROOT
BRANCH   1  11
ATOM      2  C   UNL     1       4.843   9.320   2.366  0.00  0.00    -0.073 C 
ATOM      3  C   UNL     1       6.100   8.545   2.762  0.00  0.00    +0.017 C 
ATOM      4  C   UNL     1       7.329   9.296   2.317  0.00  0.00    -0.048 A 
ATOM      5  C   UNL     1       8.551   8.956   2.878  0.00  0.00    +0.004 A 
ATOM      6  C   UNL     1       9.701   9.616   2.497  0.00  0.00    +0.000 A 
ATOM      7  C   UNL     1       9.636  10.622   1.550  0.00  0.00    +0.000 A 
ATOM      8  C   UNL     1       8.420  10.961   0.992  0.00  0.00    +0.002 A 
ATOM      9  C   UNL     1       7.262  10.300   1.376  0.00  0.00    -0.061 A 
ATOM     10  C   UNL     1       5.958  10.713   0.745  0.00  0.00    -0.042 C 
ATOM     11  N   UNL     1       4.952   9.654   0.932  0.00  0.00    +0.388 N 
ATOM     12  H   UNL     1       5.245   8.817   0.414  0.00  0.00    -0.080 HD
ENDBRANCH   1  11
BRANCH   1  16
ATOM     13  C   UNL     1       2.356  13.615   2.487  0.00  0.00    +0.029 A 
ATOM     14  C   UNL     1       2.705  13.688   1.144  0.00  0.00    +0.023 A 
ATOM     15  C   UNL     1       3.120  12.552   0.478  0.00  0.00    +0.004 A 
ATOM     16  C   UNL     1       3.187  11.343   1.145  0.00  0.00    -0.059 A 
ATOM     17  C   UNL     1       2.835  11.265   2.480  0.00  0.00    +0.004 A 
ATOM     18  C   UNL     1       2.425  12.399   3.154  0.00  0.00    +0.023 A 
BRANCH  13  20
ATOM     19  C   UNL     1       1.747  16.017   2.432  0.00  0.00    +0.129 C 
ATOM     20  N   UNL     1       1.936  14.762   3.164  0.00  0.00    -0.336 N 
ATOM     21  C   UNL     1       1.684  14.710   4.606  0.00  0.00    +0.129 C 
ENDBRANCH  13  20
ENDBRANCH   1  16
BRANCH   1  22
ATOM     22  C   UNL     1       2.613   8.989   0.616  0.00  0.00    +0.094 C 
BRANCH  22  23
ATOM     23  N   UNL     1       3.117   7.748   0.022  0.00  0.00    -0.309 N 
ATOM     24  C   UNL     1       2.337   6.650  -0.008  0.00  0.00    +0.299 C 
ATOM     25  O   UNL     1       1.216   6.689   0.457  0.00  0.00    -0.265 OA
ATOM     26  H   UNL     1       4.013   7.717  -0.349  0.00  0.00    +0.149 HD
BRANCH  24  27
ATOM     27  C   UNL     1       2.850   5.385  -0.613  0.00  0.00    +0.303 C 
ATOM     28  O   UNL     1       3.971   5.346  -1.079  0.00  0.00    -0.265 OA
ATOM     29  N   UNL     1       2.070   4.287  -0.643  0.00  0.00    -0.278 N 
ATOM     30  H   UNL     1       1.150   4.337  -0.340  0.00  0.00    +0.155 HD
BRANCH  29  31
ATOM     31  C   UNL     1       2.586   3.075  -1.112  0.00  0.00    +0.036 A 
ATOM     32  C   UNL     1       1.757   2.172  -1.766  0.00  0.00    +0.023 A 
ATOM     33  C   UNL     1       2.270   0.977  -2.228  0.00  0.00    +0.004 A 
ATOM     34  C   UNL     1       3.608   0.677  -2.040  0.00  0.00    +0.033 A 
ATOM     35  C   UNL     1       4.434   1.572  -1.385  0.00  0.00    +0.128 A 
ATOM     36  C   UNL     1       3.928   2.772  -0.925  0.00  0.00    +0.056 A 
BRANCH  35  37
ATOM     37  N   UNL     1       5.863   1.245  -1.181  0.00  0.00    +0.056 N 
ATOM     38  O   UNL     1       6.311   0.188  -1.590  0.00  0.00    -0.126 OA
ATOM     39  O   UNL     1       6.591   2.032  -0.603  0.00  0.00    -0.126 OA
ENDBRANCH  35  37
ENDBRANCH  29  31
ENDBRANCH  24  27
ENDBRANCH  22  23
ENDBRANCH   1  22
TORSDOF 8
