REMARK  Name = ZINC13064542
REMARK  14 active torsions:
REMARK  status: ('A' for Active; 'I' for Inactive)
REMARK    1  A    between atoms: C_1  and  C_2
REMARK    2  A    between atoms: C_2  and  C_3
REMARK    3  A    between atoms: C_3  and  C_5
REMARK    4  A    between atoms: C_3  and  N_68
REMARK    5  A    between atoms: N_9  and  C_10
REMARK    6  A    between atoms: C_10  and  C_11
REMARK    7  A    between atoms: C_10  and  C_12
REMARK    8  A    between atoms: C_10  and  C_13
REMARK    9  A    between atoms: C_14  and  C_15
REMARK   10  A    between atoms: C_14  and  N_68
REMARK   11  A    between atoms: C_21  and  C_22
REMARK   12  A    between atoms: C_21  and  N_68
REMARK   13  A    between atoms: C_26  and  C_35
REMARK   14  A    between atoms: C_27  and  C_34
REMARK                            x       y       z     vdW  Elec       q    Type
REMARK                         _______ _______ _______ _____ _____    ______ ____
ROOT
ATOM      1  N   UNL     1      -5.164   2.988  -0.636  0.00  0.00    +0.392 N 
ATOM      2  H   UNL     1      -5.638   2.183  -1.062  0.00  0.00    -0.080 HD
ENDROOT
BRANCH   1   3
ATOM      3  C   UNL     1      -3.930   3.275  -1.398  0.00  0.00    +0.003 C 
BRANCH   3   4
ATOM      4  C   UNL     1      -4.161   2.912  -2.842  0.00  0.00    +0.139 A 
ATOM      5  N   UNL     1      -5.284   3.027  -3.508  0.00  0.00    -0.115 NA
ATOM      6  N   UNL     1      -5.078   2.614  -4.710  0.00  0.00    -0.023 NA
ATOM      7  N   UNL     1      -3.853   2.239  -4.829  0.00  0.00    -0.043 NA
ATOM      8  N   UNL     1      -3.253   2.412  -3.700  0.00  0.00    -0.226 N 
BRANCH   8   9
ATOM      9  C   UNL     1      -1.849   2.116  -3.406  0.00  0.00    +0.059 C 
ATOM     10  C   UNL     1      -1.770   0.982  -2.382  0.00  0.00    +0.036 C 
ATOM     11  C   UNL     1      -1.137   1.692  -4.692  0.00  0.00    +0.036 C 
ATOM     12  C   UNL     1      -1.173   3.365  -2.837  0.00  0.00    +0.036 C 
ENDBRANCH   8   9
ENDBRANCH   3   4
BRANCH   3  14
ATOM     13  C   UNL     1      -3.192   5.095   0.147  0.00  0.00    +0.002 C 
ATOM     14  C   UNL     1      -3.574   4.760  -1.296  0.00  0.00    -0.011 C 
ENDBRANCH   3  14
ENDBRANCH   1   3
BRANCH   1  15
ATOM     15  C   UNL     1      -6.068   4.157  -0.680  0.00  0.00    -0.042 C 
BRANCH  15  16
ATOM     16  C   UNL     1      -6.716   4.216  -2.039  0.00  0.00    -0.064 A 
ATOM     17  C   UNL     1      -6.357   5.207  -2.933  0.00  0.00    +0.002 A 
ATOM     18  C   UNL     1      -6.948   5.258  -4.182  0.00  0.00    +0.000 A 
ATOM     19  C   UNL     1      -7.906   4.325  -4.532  0.00  0.00    +0.000 A 
ATOM     20  C   UNL     1      -8.269   3.337  -3.636  0.00  0.00    +0.000 A 
ATOM     21  C   UNL     1      -7.674   3.283  -2.389  0.00  0.00    +0.002 A 
ENDBRANCH  15  16
ENDBRANCH   1  15
BRANCH   1  22
ATOM     22  C   UNL     1      -4.828   2.661   0.765  0.00  0.00    -0.036 C 
BRANCH  22  23
ATOM     23  C   UNL     1      -4.186   1.298   0.805  0.00  0.00    +0.001 A 
ATOM     24  C   UNL     1      -2.838   1.189   0.907  0.00  0.00    +0.017 A 
ATOM     25  C   UNL     1      -2.245  -0.149   0.937  0.00  0.00    -0.001 A 
ATOM     26  C   UNL     1      -0.860  -0.325   1.023  0.00  0.00    +0.013 A 
ATOM     27  C   UNL     1      -0.338  -1.587   1.048  0.00  0.00    -0.047 A 
ATOM     28  C   UNL     1      -1.170  -2.697   0.990  0.00  0.00    -0.046 A 
ATOM     29  C   UNL     1      -2.538  -2.548   0.905  0.00  0.00    +0.030 A 
ATOM     30  C   UNL     1      -3.092  -1.272   0.871  0.00  0.00    +0.049 A 
ATOM     31  N   UNL     1      -4.456  -1.093   0.781  0.00  0.00    -0.322 N 
ATOM     32  H   UNL     1      -5.038  -1.868   0.740  0.00  0.00    +0.169 HD
ATOM     33  C   UNL     1      -4.990   0.140   0.748  0.00  0.00    +0.251 A 
ATOM     34  O   UNL     1      -6.201   0.261   0.666  0.00  0.00    -0.268 OA
ATOM     35  C   UNL     1      -0.572  -4.080   1.019  0.00  0.00    +0.044 C 
ATOM     36  C   UNL     1       1.154  -1.777   1.141  0.00  0.00    +0.044 C 
ENDBRANCH  22  23
ENDBRANCH   1  22
TORSDOF 8
