REMARK  Name = ZINC10100455
REMARK  12 active torsions:
REMARK  status: ('A' for Active; 'I' for Inactive)
REMARK    1  A    between atoms: C_1  and  N_61
REMARK    2  A    between atoms: C_2  and  N_61
REMARK    3  A    between atoms: C_3  and  C_4
REMARK    4  A    between atoms: C_3  and  N_61
REMARK    5  A    between atoms: C_4  and  N_5
REMARK    6  A    between atoms: C_9  and  O_15
REMARK    7  A    between atoms: O_15  and  C_16
REMARK    8  A    between atoms: C_17  and  C_19
REMARK    9  A    between atoms: C_22  and  S_25
REMARK   10  A    between atoms: S_25  and  N_28
REMARK   11  A    between atoms: N_28  and  C_29
REMARK   12  A    between atoms: N_28  and  C_30
REMARK                            x       y       z     vdW  Elec       q    Type
REMARK                         _______ _______ _______ _____ _____    ______ ____
ROOT
ATOM      1  N   UNL     1       2.941  -3.851  -0.225  0.00  0.00    -0.248 N 
ATOM      2  C   UNL     1       2.490  -2.584   0.107  0.00  0.00    +0.168 A 
ATOM      3  N   UNL     1       1.280  -2.203   0.441  0.00  0.00    -0.221 NA
ATOM      4  C   UNL     1       0.981  -0.920   0.743  0.00  0.00    +0.122 A 
ATOM      5  C   UNL     1      -0.276  -0.379   1.117  0.00  0.00    +0.146 A 
ATOM      6  C   UNL     1      -0.407   0.961   1.394  0.00  0.00    +0.048 A 
ATOM      7  C   UNL     1       0.675   1.825   1.317  0.00  0.00    +0.005 A 
ATOM      8  C   UNL     1       1.914   1.329   0.955  0.00  0.00    +0.017 A 
ATOM      9  C   UNL     1       2.057  -0.009   0.677  0.00  0.00    +0.044 A 
ATOM     10  S   UNL     1       3.408  -1.053   0.189  0.00  0.00    -0.052 S 
ATOM     11  C   UNL     1       2.085  -4.892  -0.230  0.00  0.00    +0.252 C 
ATOM     12  O   UNL     1       0.944  -4.742   0.163  0.00  0.00    -0.270 OA
ENDROOT
BRANCH  11  13
ATOM     13  C   UNL     1       2.532  -6.215  -0.714  0.00  0.00    +0.037 A 
ATOM     14  C   UNL     1       3.744  -6.750  -0.274  0.00  0.00    +0.015 A 
ATOM     15  C   UNL     1       4.152  -7.987  -0.726  0.00  0.00    +0.029 A 
ATOM     16  C   UNL     1       3.370  -8.693  -1.622  0.00  0.00    +0.106 A 
ATOM     17  C   UNL     1       2.170  -8.166  -2.067  0.00  0.00    +0.029 A 
ATOM     18  C   UNL     1       1.747  -6.932  -1.619  0.00  0.00    +0.015 A 
BRANCH  16  19
ATOM     19  S   UNL     1       3.902 -10.271  -2.198  0.00  0.00    +0.061 S 
ATOM     20  O   UNL     1       4.792 -10.783  -1.216  0.00  0.00    -0.153 OA
ATOM     21  O   UNL     1       2.734 -10.969  -2.607  0.00  0.00    -0.153 OA
BRANCH  19  22
ATOM     22  N   UNL     1       4.803 -10.014  -3.564  0.00  0.00    -0.177 NA
ATOM     23  C   UNL     1       6.249  -9.806  -3.460  0.00  0.00    +0.132 C 
BRANCH  22  24
ATOM     24  C   UNL     1       4.153  -9.996  -4.877  0.00  0.00    +0.080 C 
ATOM     25  C   UNL     1       5.056  -9.957  -6.112  0.00  0.00    +0.022 C 
ATOM     26  C   UNL     1       4.265  -8.713  -5.703  0.00  0.00    +0.022 C 
ENDBRANCH  22  24
ENDBRANCH  19  22
ENDBRANCH  16  19
ENDBRANCH  11  13
BRANCH   5  27
ATOM     27  O   UNL     1      -1.361  -1.194   1.203  0.00  0.00    -0.493 OA
ATOM     28  C   UNL     1      -2.598  -0.589   1.584  0.00  0.00    +0.277 C 
ENDBRANCH   5  27
BRANCH   1  29
ATOM     29  C   UNL     1       4.349  -4.060  -0.571  0.00  0.00    +0.097 C 
BRANCH  29  30
ATOM     30  C   UNL     1       5.177  -4.176   0.711  0.00  0.00    -0.060 C 
BRANCH  30  33
ATOM     31  C   UNL     1       7.210  -3.422  -0.368  0.00  0.00    -0.097 C 
ATOM     32  C   UNL     1       7.332  -4.869   1.571  0.00  0.00    -0.097 C 
ATOM     33  N   UNL     1       6.564  -4.541   0.351  0.00  0.00    +0.377 N 
ATOM     34  H   UNL     1       6.544  -5.364  -0.262  0.00  0.00    -0.083 HD
ENDBRANCH  30  33
ENDBRANCH  29  30
ENDBRANCH   1  29
TORSDOF 8
