REMARK  Name = ZINC28056018
REMARK  5 active torsions:
REMARK  status: ('A' for Active; 'I' for Inactive)
REMARK    1  A    between atoms: C_1  and  C_2
REMARK    2  A    between atoms: C_10  and  C_18
REMARK    3  A    between atoms: C_21  and  O_24
REMARK    4  A    between atoms: O_24  and  C_25
REMARK    5  A    between atoms: C_26  and  C_29
REMARK                            x       y       z     vdW  Elec       q    Type
REMARK                         _______ _______ _______ _____ _____    ______ ____
ROOT
ATOM      1  C   UNL     1       0.286   7.439  -1.358  0.00  0.00    +0.044 C 
ATOM      2  C   UNL     1       1.154   6.348  -0.785  0.00  0.00    -0.050 A 
ATOM      3  C   UNL     1       1.184   6.139   0.583  0.00  0.00    +0.007 A 
ATOM      4  C   UNL     1       1.975   5.141   1.123  0.00  0.00    +0.046 A 
ATOM      5  C   UNL     1       2.741   4.346   0.291  0.00  0.00    +0.131 A 
ATOM      6  C   UNL     1       2.712   4.557  -1.093  0.00  0.00    +0.038 A 
ATOM      7  C   UNL     1       1.915   5.561  -1.628  0.00  0.00    +0.016 A 
ATOM      8  C   UNL     1       3.546   3.687  -1.957  0.00  0.00    +0.050 C 
ATOM      9  C   UNL     1       4.025   2.553  -1.443  0.00  0.00    +0.025 C 
ATOM     10  C   UNL     1       4.912   1.620  -2.231  0.00  0.00    +0.174 C 
ATOM     11  N   UNL     1       4.885   1.976  -3.642  0.00  0.00    -0.201 N 
ATOM     12  C   UNL     1       4.373   3.141  -4.120  0.00  0.00    +0.240 A 
ATOM     13  N   UNL     1       4.521   3.129  -5.413  0.00  0.00    -0.092 NA
ATOM     14  N   UNL     1       5.088   2.033  -5.787  0.00  0.00    -0.021 NA
ATOM     15  N   UNL     1       5.338   1.282  -4.763  0.00  0.00    -0.042 NA
ATOM     16  N   UNL     1       3.815   4.084  -3.272  0.00  0.00    -0.282 N 
ATOM     17  C   UNL     1       3.673   2.183  -0.020  0.00  0.00    +0.234 C 
ATOM     18  O   UNL     1       3.528   3.354   0.782  0.00  0.00    -0.479 OA
ATOM     19  H   UNL     1       3.583   5.110  -3.596  0.00  0.00    +0.155 HD
ENDROOT
BRANCH  17  20
ATOM     20  C   UNL     1       2.378   1.412  -0.013  0.00  0.00    -0.002 A 
ATOM     21  C   UNL     1       1.178   2.076  -0.189  0.00  0.00    +0.009 A 
ATOM     22  C   UNL     1      -0.010   1.370  -0.184  0.00  0.00    +0.022 A 
ATOM     23  C   UNL     1       0.001  -0.002  -0.001  0.00  0.00    +0.059 A 
ATOM     24  C   UNL     1       1.202  -0.666   0.176  0.00  0.00    +0.060 A 
ATOM     25  C   UNL     1       2.391   0.042   0.171  0.00  0.00    +0.029 A 
ATOM     26 CL   UNL     1       1.217  -2.386   0.413  0.00  0.00    -0.082 Cl
ATOM     27 CL   UNL     1      -1.492  -0.888   0.007  0.00  0.00    -0.082 Cl
ENDBRANCH  17  20
BRANCH  10  28
ATOM     28  C   UNL     1       6.326   1.724  -1.718  0.00  0.00    -0.018 A 
ATOM     29  C   UNL     1       6.990   2.936  -1.768  0.00  0.00    +0.009 A 
ATOM     30  C   UNL     1       8.284   3.035  -1.295  0.00  0.00    +0.046 A 
ATOM     31  C   UNL     1       8.921   1.916  -0.779  0.00  0.00    +0.120 A 
ATOM     32  C   UNL     1       8.254   0.700  -0.736  0.00  0.00    +0.046 A 
ATOM     33  C   UNL     1       6.958   0.607  -1.205  0.00  0.00    +0.009 A 
BRANCH  31  34
ATOM     34  O   UNL     1      10.196   2.009  -0.318  0.00  0.00    -0.495 OA
ATOM     35  C   UNL     1      10.821   3.292  -0.395  0.00  0.00    +0.277 C 
ENDBRANCH  31  34
ENDBRANCH  10  28
TORSDOF 3
