REMARK  Name = ZINC26533699
REMARK  8 active torsions:
REMARK  status: ('A' for Active; 'I' for Inactive)
REMARK    1  A    between atoms: C_1  and  C_2
REMARK    2  A    between atoms: C_7  and  N_30
REMARK    3  A    between atoms: C_8  and  C_13
REMARK    4  A    between atoms: N_17  and  C_21
REMARK    5  A    between atoms: C_21  and  C_23
REMARK    6  A    between atoms: C_21  and  C_24
REMARK    7  A    between atoms: C_32  and  C_39
REMARK    8  A    between atoms: C_35  and  C_38
REMARK                            x       y       z     vdW  Elec       q    Type
REMARK                         _______ _______ _______ _____ _____    ______ ____
ROOT
ATOM      1  C   UNL     1       4.743  -2.438   1.134  0.00  0.00    +0.045 C 
ATOM      2  C   UNL     1       3.421  -1.718   1.205  0.00  0.00    -0.034 A 
ATOM      3  C   UNL     1       2.242  -2.440   1.434  0.00  0.00    +0.008 A 
ATOM      4  C   UNL     1       1.051  -1.781   1.498  0.00  0.00    +0.047 A 
ATOM      5  C   UNL     1       1.022  -0.384   1.332  0.00  0.00    +0.142 A 
ATOM      6  N   UNL     1      -0.148   0.252   1.396  0.00  0.00    -0.214 NA
ATOM      7  C   UNL     1      -0.234   1.566   1.247  0.00  0.00    +0.136 A 
ATOM      8  C   UNL     1       0.940   2.320   1.015  0.00  0.00    +0.081 A 
ATOM      9  C   UNL     1       2.176   1.634   0.949  0.00  0.00    +0.267 A 
ATOM     10  O   UNL     1       3.213   2.243   0.750  0.00  0.00    -0.267 OA
ATOM     11  N   UNL     1       2.188   0.293   1.110  0.00  0.00    -0.267 N 
ATOM     12  C   UNL     1       3.374  -0.376   1.049  0.00  0.00    +0.099 A 
ENDROOT
BRANCH   8  13
ATOM     13  C   UNL     1       0.880   3.724   0.852  0.00  0.00    +0.037 C 
ATOM     14  C   UNL     1       0.099   4.265  -0.127  0.00  0.00    +0.077 C 
ATOM     15  C   UNL     1      -0.130   5.632  -0.452  0.00  0.00    +0.259 C 
ATOM     16  O   UNL     1       0.406   6.524   0.182  0.00  0.00    -0.269 OA
ATOM     17  N   UNL     1      -0.940   5.906  -1.459  0.00  0.00    -0.248 N 
ATOM     18  C   UNL     1      -1.535   4.917  -2.162  0.00  0.00    +0.121 C 
ATOM     19  S   UNL     1      -2.610   5.038  -3.489  0.00  0.00    -0.027 S 
ATOM     20  S   UNL     1      -0.910   3.449  -1.357  0.00  0.00    -0.061 S 
BRANCH  17  21
ATOM     21  C   UNL     1      -1.198   7.303  -1.820  0.00  0.00    +0.110 C 
ATOM     22  C   UNL     1      -0.578   8.224  -0.766  0.00  0.00    +0.033 C 
BRANCH  21  23
ATOM     23  C   UNL     1      -0.585   7.595  -3.165  0.00  0.00    -0.027 A 
ATOM     24  C   UNL     1       0.614   7.008  -3.521  0.00  0.00    +0.005 A 
ATOM     25  C   UNL     1       1.173   7.272  -4.758  0.00  0.00    +0.000 A 
ATOM     26  C   UNL     1       0.538   8.132  -5.634  0.00  0.00    +0.000 A 
ATOM     27  C   UNL     1      -0.659   8.724  -5.275  0.00  0.00    +0.000 A 
ATOM     28  C   UNL     1      -1.220   8.456  -4.041  0.00  0.00    +0.005 A 
ENDBRANCH  21  23
ENDBRANCH  17  21
ENDBRANCH   8  13
BRANCH   7  29
ATOM     29  N   UNL     1      -1.460   2.193   1.312  0.00  0.00    -0.314 N 
ATOM     30  C   UNL     1      -1.523   3.106   2.460  0.00  0.00    +0.109 C 
ATOM     31  C   UNL     1      -2.836   3.890   2.419  0.00  0.00    +0.004 C 
ATOM     32  C   UNL     1      -4.011   2.909   2.458  0.00  0.00    +0.009 C 
ATOM     33  C   UNL     1      -3.896   1.939   1.280  0.00  0.00    +0.004 C 
ATOM     34  C   UNL     1      -2.551   1.212   1.354  0.00  0.00    +0.109 C 
ATOM     35  C   UNL     1      -3.983   2.718  -0.034  0.00  0.00    +0.009 C 
ATOM     36  C   UNL     1      -2.911   4.826   3.627  0.00  0.00    +0.009 C 
ENDBRANCH   7  29
TORSDOF 4
