REMARK  Name = ZINC12542384
REMARK  11 active torsions:
REMARK  status: ('A' for Active; 'I' for Inactive)
REMARK    1  A    between atoms: C_1  and  C_2
REMARK    2  A    between atoms: C_3  and  C_16
REMARK    3  A    between atoms: C_4  and  C_15
REMARK    4  A    between atoms: N_5  and  C_7
REMARK    5  A    between atoms: C_7  and  C_8
REMARK    6  A    between atoms: C_17  and  C_18
REMARK    7  A    between atoms: C_18  and  O_20
REMARK    8  A    between atoms: O_20  and  C_21
REMARK    9  A    between atoms: C_21  and  C_22
REMARK   10  A    between atoms: N_24  and  C_25
REMARK   11  A    between atoms: C_30  and  N_31
REMARK                            x       y       z     vdW  Elec       q    Type
REMARK                         _______ _______ _______ _____ _____    ______ ____
ROOT
ATOM      1  C   UNL     1       0.081   2.013  -1.573  0.00  0.00    +0.332 C 
ATOM      2  O   UNL     1       0.219   0.806  -1.638  0.00  0.00    -0.246 OA
ENDROOT
BRANCH   1   4
ATOM      3  C   UNL     1      -2.243   1.752  -1.048  0.00  0.00    +0.018 C 
ATOM      4  C   UNL     1      -1.186   2.565  -1.267  0.00  0.00    +0.092 C 
BRANCH   3   7
ATOM      5  C   UNL     1      -2.827   3.933   1.180  0.00  0.00    +0.068 C 
ATOM      6  C   UNL     1      -3.835   3.297   0.258  0.00  0.00    +0.067 A 
ATOM      7  C   UNL     1      -3.558   2.325  -0.731  0.00  0.00    +0.018 A 
ATOM      8  C   UNL     1      -4.760   2.010  -1.340  0.00  0.00    +0.044 A 
ATOM      9  N   UNL     1      -5.713   2.756  -0.756  0.00  0.00    -0.263 N 
ATOM     10  N   UNL     1      -5.114   3.549   0.230  0.00  0.00    -0.175 NA
ATOM     11  C   UNL     1      -4.963   1.014  -2.453  0.00  0.00    +0.066 C 
BRANCH   9  12
ATOM     12  C   UNL     1      -7.138   2.742  -1.093  0.00  0.00    +0.180 C 
BRANCH  12  13
ATOM     13  C   UNL     1      -7.390   3.675  -2.249  0.00  0.00    -0.008 A 
ATOM     14  C   UNL     1      -7.607   3.165  -3.515  0.00  0.00    +0.007 A 
ATOM     15  C   UNL     1      -7.837   4.021  -4.576  0.00  0.00    +0.000 A 
ATOM     16  C   UNL     1      -7.852   5.389  -4.370  0.00  0.00    +0.001 A 
ATOM     17  C   UNL     1      -7.636   5.900  -3.105  0.00  0.00    +0.020 A 
ATOM     18  C   UNL     1      -7.410   5.043  -2.042  0.00  0.00    +0.046 A 
ATOM     19 CL   UNL     1      -7.146   5.684  -0.451  0.00  0.00    -0.083 Cl
ENDBRANCH  12  13
ENDBRANCH   9  12
ENDBRANCH   3   7
ENDBRANCH   1   4
BRANCH   1  20
ATOM     20  O   UNL     1       1.135   2.826  -1.797  0.00  0.00    -0.452 OA
BRANCH  20  21
ATOM     21  C   UNL     1       2.382   2.200  -2.106  0.00  0.00    +0.328 C 
BRANCH  21  22
ATOM     22  C   UNL     1       3.434   3.257  -2.322  0.00  0.00    +0.255 C 
ATOM     23  O   UNL     1       3.144   4.431  -2.222  0.00  0.00    -0.272 OA
ATOM     24  N   UNL     1       4.697   2.899  -2.628  0.00  0.00    -0.281 N 
ATOM     25  H   UNL     1       4.949   1.962  -2.626  0.00  0.00    +0.155 HD
BRANCH  24  26
ATOM     26  C   UNL     1       5.644   3.878  -2.947  0.00  0.00    +0.064 A 
ATOM     27  C   UNL     1       5.235   5.101  -3.462  0.00  0.00    +0.027 A 
ATOM     28  C   UNL     1       6.171   6.066  -3.776  0.00  0.00    +0.022 A 
ATOM     29  C   UNL     1       7.518   5.815  -3.578  0.00  0.00    +0.043 A 
ATOM     30  C   UNL     1       7.929   4.597  -3.065  0.00  0.00    +0.054 A 
ATOM     31  C   UNL     1       6.996   3.631  -2.745  0.00  0.00    +0.149 A 
ATOM     32 CL   UNL     1       8.693   7.029  -3.974  0.00  0.00    -0.083 Cl
BRANCH  31  33
ATOM     33  N   UNL     1       7.436   2.331  -2.190  0.00  0.00    +0.058 N 
ATOM     34  O   UNL     1       8.611   2.147  -1.929  0.00  0.00    -0.126 OA
ATOM     35  O   UNL     1       6.622   1.445  -1.996  0.00  0.00    -0.126 OA
ENDBRANCH  31  33
ENDBRANCH  24  26
ENDBRANCH  21  22
ENDBRANCH  20  21
ENDBRANCH   1  20
TORSDOF 9
