REMARK  Name = ZINC33263642
REMARK  7 active torsions:
REMARK  status: ('A' for Active; 'I' for Inactive)
REMARK    1  A    between atoms: C_6  and  N_7
REMARK    2  A    between atoms: C_8  and  C_10
REMARK    3  A    between atoms: C_13  and  C_15
REMARK    4  A    between atoms: C_21  and  C_24
REMARK    5  A    between atoms: N_26  and  C_27
REMARK    6  A    between atoms: C_27  and  C_28
REMARK    7  A    between atoms: C_28  and  C_29
REMARK                            x       y       z     vdW  Elec       q    Type
REMARK                         _______ _______ _______ _____ _____    ______ ____
ROOT
ATOM      1  C   UNL     1      -0.700  -8.220   0.515  0.00  0.00    +0.274 C 
ATOM      2  O   UNL     1      -1.884  -8.493   0.489  0.00  0.00    -0.268 OA
ATOM      3  N   UNL     1       0.215  -9.203   0.639  0.00  0.00    -0.295 N 
ATOM      4  C   UNL     1       1.651  -8.905   0.538  0.00  0.00    +0.108 C 
ATOM      5  C   UNL     1       2.275  -9.817  -0.517  0.00  0.00    +0.020 C 
ATOM      6  C   UNL     1       1.956 -11.276  -0.180  0.00  0.00    +0.016 C 
ATOM      7  C   UNL     1       0.441 -11.485  -0.193  0.00  0.00    +0.092 C 
ATOM      8  C   UNL     1      -0.204 -10.591   0.871  0.00  0.00    +0.121 C 
ENDROOT
BRANCH   1  12
ATOM      9  C   UNL     1       0.102  -4.240   0.239  0.00  0.00    +0.187 A 
ATOM     10  N   UNL     1       1.144  -5.066   0.249  0.00  0.00    -0.136 NA
ATOM     11  N   UNL     1       0.967  -6.314   0.333  0.00  0.00    -0.136 NA
ATOM     12  C   UNL     1      -0.263  -6.814   0.412  0.00  0.00    +0.187 A 
ATOM     13  S   UNL     1      -1.218  -5.363   0.367  0.00  0.00    -0.036 S 
BRANCH   9  15
ATOM     14  N   UNL     1       1.227  -2.075   0.061  0.00  0.00    -0.280 N 
ATOM     15  C   UNL     1       0.074  -2.767   0.149  0.00  0.00    +0.275 C 
ATOM     16  O   UNL     1      -0.989  -2.177   0.155  0.00  0.00    -0.268 OA
ATOM     17  H   UNL     1       2.185  -2.610  -0.022  0.00  0.00    +0.155 HD
BRANCH  14  23
ATOM     18  C   UNL     1       2.234   0.027   0.692  0.00  0.00    +0.027 A 
ATOM     19  C   UNL     1       2.216   1.409   0.708  0.00  0.00    +0.051 A 
ATOM     20  C   UNL     1       1.173   2.097   0.110  0.00  0.00    +0.166 A 
ATOM     21  C   UNL     1       0.141   1.395  -0.509  0.00  0.00    +0.168 A 
ATOM     22  C   UNL     1       0.160   0.010  -0.524  0.00  0.00    +0.072 A 
ATOM     23  C   UNL     1       1.207  -0.676   0.077  0.00  0.00    +0.037 A 
ATOM     24  O   UNL     1      -0.754   2.292  -1.017  0.00  0.00    -0.453 OA
ATOM     25  C   UNL     1      -0.472   3.536  -0.349  0.00  0.00    +0.466 C 
ATOM     26  O   UNL     1       0.923   3.434  -0.011  0.00  0.00    -0.453 OA
ENDBRANCH  14  23
ENDBRANCH   9  15
ENDBRANCH   1  12
BRANCH   7  27
ATOM     27  C   UNL     1       0.130 -12.929   0.107  0.00  0.00    +0.218 C 
ATOM     28  O   UNL     1       1.032 -13.714   0.309  0.00  0.00    -0.275 OA
ATOM     29  N   UNL     1      -1.151 -13.348   0.152  0.00  0.00    -0.315 N 
ATOM     30  H   UNL     1      -1.969 -12.635  -0.031  0.00  0.00    +0.149 HD
BRANCH  29  31
ATOM     31  C   UNL     1      -1.453 -14.751   0.444  0.00  0.00    +0.108 C 
BRANCH  31  32
ATOM     32  C   UNL     1      -2.969 -14.959   0.435  0.00  0.00    +0.049 C 
BRANCH  32  33
ATOM     33  C   UNL     1      -3.280 -16.402   0.735  0.00  0.00    -0.072 C 
ATOM     34  C   UNL     1      -3.542 -16.724   1.961  0.00  0.00    -0.028 C 
ATOM     35  C   UNL     1      -3.860 -18.119   2.415  0.00  0.00    +0.027 C 
ATOM     36  C   UNL     1      -4.243 -18.989   1.215  0.00  0.00    +0.004 C 
ATOM     37  C   UNL     1      -3.178 -18.810   0.126  0.00  0.00    +0.005 C 
ATOM     38  C   UNL     1      -3.272 -17.376  -0.407  0.00  0.00    +0.030 C 
ENDBRANCH  32  33
ENDBRANCH  31  32
ENDBRANCH  29  31
ENDBRANCH   7  27
TORSDOF 7
