REMARK  Name = ZINC09378849
REMARK  11 active torsions:
REMARK  status: ('A' for Active; 'I' for Inactive)
REMARK    1  A    between atoms: C_1  and  C_2
REMARK    2  A    between atoms: C_2  and  C_4
REMARK    3  A    between atoms: C_2  and  N_64
REMARK    4  A    between atoms: N_6  and  C_7
REMARK    5  A    between atoms: C_16  and  C_17
REMARK    6  A    between atoms: C_16  and  N_64
REMARK    7  A    between atoms: C_17  and  C_19
REMARK    8  A    between atoms: C_17  and  C_28
REMARK    9  A    between atoms: C_22  and  N_25
REMARK   10  A    between atoms: N_25  and  C_26
REMARK   11  A    between atoms: N_25  and  C_27
REMARK                            x       y       z     vdW  Elec       q    Type
REMARK                         _______ _______ _______ _____ _____    ______ ____
ROOT
ATOM      1  C   UNL     1      -2.530   1.236  -2.814  0.00  0.00    +0.034 C 
ENDROOT
BRANCH   1   2
ATOM      2  C   UNL     1      -3.154   2.565  -2.475  0.00  0.00    -0.017 A 
ATOM      3  C   UNL     1      -4.077   2.795  -1.528  0.00  0.00    +0.087 A 
ATOM      4  N   UNL     1      -4.406   4.124  -1.510  0.00  0.00    -0.360 N 
ATOM      5  H   UNL     1      -5.051   4.530  -0.911  0.00  0.00    +0.165 HD
ATOM      6  C   UNL     1      -3.683   4.797  -2.469  0.00  0.00    +0.047 A 
ATOM      7  C   UNL     1      -2.863   3.852  -3.112  0.00  0.00    +0.003 A 
ATOM      8  C   UNL     1      -2.006   4.255  -4.137  0.00  0.00    +0.010 A 
ATOM      9  C   UNL     1      -1.966   5.569  -4.510  0.00  0.00    +0.001 A 
ATOM     10  C   UNL     1      -2.771   6.506  -3.878  0.00  0.00    +0.002 A 
ATOM     11  C   UNL     1      -3.629   6.129  -2.868  0.00  0.00    +0.026 A 
ENDBRANCH   1   2
BRANCH   1  12
ATOM     12  C   UNL     1      -3.605   0.271  -3.242  0.00  0.00    -0.042 A 
ATOM     13  C   UNL     1      -4.626  -0.057  -2.369  0.00  0.00    +0.006 A 
ATOM     14  C   UNL     1      -5.616  -0.936  -2.761  0.00  0.00    +0.023 A 
ATOM     15  C   UNL     1      -5.579  -1.501  -4.029  0.00  0.00    +0.029 A 
ATOM     16  C   UNL     1      -4.549  -1.175  -4.902  0.00  0.00    +0.023 A 
ATOM     17  C   UNL     1      -3.565  -0.290  -4.506  0.00  0.00    +0.006 A 
BRANCH  15  18
ATOM     18  N   UNL     1      -6.575  -2.396  -4.426  0.00  0.00    -0.336 N 
ATOM     19  C   UNL     1      -6.476  -3.075  -5.721  0.00  0.00    +0.129 C 
ATOM     20  C   UNL     1      -7.720  -2.655  -3.549  0.00  0.00    +0.129 C 
ENDBRANCH  15  18
ENDBRANCH   1  12
BRANCH   1  21
ATOM     21  C   UNL     1      -1.809   0.682  -1.583  0.00  0.00    -0.069 C 
BRANCH  21  22
ATOM     22  N   UNL     1      -0.682   1.571  -1.242  0.00  0.00    +0.387 N 
ATOM     23  H   UNL     1      -0.033   1.615  -2.036  0.00  0.00    -0.085 HD
ATOM     24  H   UNL     1      -1.041   2.512  -1.042  0.00  0.00    -0.085 HD
BRANCH  22  26
ATOM     25  C   UNL     1      -0.662   1.559   1.212  0.00  0.00    -0.004 C 
ATOM     26  C   UNL     1       0.033   1.061  -0.057  0.00  0.00    +0.013 C 
BRANCH  26  27
ATOM     27  C   UNL     1       1.453   1.563  -0.081  0.00  0.00    +0.203 C 
ATOM     28  O   UNL     1       1.831   2.269  -0.992  0.00  0.00    -0.277 OA
ATOM     29  N   UNL     1       2.304   1.228   0.909  0.00  0.00    -0.287 N 
ATOM     30  H   UNL     1       1.985   0.719   1.671  0.00  0.00    +0.155 HD
BRANCH  29  31
ATOM     31  C   UNL     1       3.649   1.614   0.838  0.00  0.00    +0.037 A 
ATOM     32  C   UNL     1       4.638   0.780   1.341  0.00  0.00    +0.027 A 
ATOM     33  C   UNL     1       5.965   1.157   1.268  0.00  0.00    +0.051 A 
ATOM     34  C   UNL     1       6.312   2.372   0.700  0.00  0.00    +0.166 A 
ATOM     35  C   UNL     1       5.322   3.213   0.199  0.00  0.00    +0.168 A 
ATOM     36  C   UNL     1       3.992   2.832   0.268  0.00  0.00    +0.072 A 
ATOM     37  O   UNL     1       5.915   4.336  -0.302  0.00  0.00    -0.453 OA
ATOM     38  C   UNL     1       7.238   4.358   0.265  0.00  0.00    +0.466 C 
ATOM     39  O   UNL     1       7.527   2.969   0.513  0.00  0.00    -0.453 OA
ENDBRANCH  29  31
ENDBRANCH  26  27
ENDBRANCH  22  26
ENDBRANCH  21  22
ENDBRANCH   1  21
TORSDOF 8
