REMARK  Name = ZINC05901610
REMARK  7 active torsions:
REMARK  status: ('A' for Active; 'I' for Inactive)
REMARK    1  A    between atoms: C_1  and  C_2
REMARK    2  A    between atoms: C_2  and  C_3
REMARK    3  A    between atoms: C_2  and  C_4
REMARK    4  A    between atoms: C_2  and  C_5
REMARK    5  A    between atoms: C_12  and  N_24
REMARK    6  A    between atoms: C_13  and  C_22
REMARK    7  A    between atoms: C_14  and  C_16
REMARK                            x       y       z     vdW  Elec       q    Type
REMARK                         _______ _______ _______ _____ _____    ______ ____
ROOT
ATOM      1  C   UNL     1      -0.331  -0.722  -0.417  0.00  0.00    +0.076 A 
ATOM      2  C   UNL     1       0.653  -1.203  -1.271  0.00  0.00    +0.046 A 
ATOM      3  C   UNL     1       1.134  -0.150  -1.999  0.00  0.00    +0.222 A 
ATOM      4  N   UNL     1       0.470   0.950  -1.609  0.00  0.00    -0.246 N 
ATOM      5  H   UNL     1       0.600   1.847  -1.952  0.00  0.00    +0.192 HD
ATOM      6  N   UNL     1      -0.450   0.569  -0.619  0.00  0.00    -0.175 NA
ATOM      7  O   UNL     1       2.109  -0.289  -2.931  0.00  0.00    -0.423 OA
ATOM      8  C   UNL     1       2.417  -1.540  -3.331  0.00  0.00    +0.200 C 
ATOM      9  C   UNL     1       2.013  -2.657  -2.686  0.00  0.00    +0.094 C 
ATOM     10  C   UNL     1       1.168  -2.610  -1.438  0.00  0.00    +0.075 C 
ENDROOT
BRANCH  10  11
ATOM     11  C   UNL     1       2.017  -2.996  -0.225  0.00  0.00    +0.002 C 
ATOM     12  C   UNL     1       1.671  -4.422   0.206  0.00  0.00    +0.004 C 
ATOM     13  C   UNL     1       2.521  -4.808   1.419  0.00  0.00    +0.000 C 
ATOM     14  C   UNL     1       2.233  -3.843   2.571  0.00  0.00    +0.000 C 
ATOM     15  C   UNL     1       2.579  -2.417   2.139  0.00  0.00    +0.000 C 
ATOM     16  C   UNL     1       1.730  -2.031   0.927  0.00  0.00    +0.004 C 
ENDBRANCH  10  11
BRANCH   1  18
ATOM     17  C   UNL     1      -2.622  -1.316   0.323  0.00  0.00    +0.017 C 
ATOM     18  C   UNL     1      -1.128  -1.542   0.565  0.00  0.00    +0.007 C 
ATOM     19  C   UNL     1      -0.772  -1.116   1.991  0.00  0.00    +0.017 C 
ATOM     20  C   UNL     1      -0.799  -3.024   0.378  0.00  0.00    +0.017 C 
ENDBRANCH   1  18
BRANCH   8  21
ATOM     21  N   UNL     1       3.187  -1.687  -4.457  0.00  0.00    -0.328 N 
ATOM     22  H   UNL     1       3.493  -0.904  -4.941  0.00  0.00    +0.145 HD
ATOM     23  H   UNL     1       3.425  -2.574  -4.770  0.00  0.00    +0.145 HD
ENDBRANCH   8  21
BRANCH   9  24
ATOM     24  C   UNL     1       2.400  -3.933  -3.209  0.00  0.00    +0.100 C 
ATOM     25  N   UNL     1       2.707  -4.945  -3.623  0.00  0.00    -0.191 NA
ENDBRANCH   9  24
TORSDOF 4
