REMARK  Name = ZINC13346554
REMARK  8 active torsions:
REMARK  status: ('A' for Active; 'I' for Inactive)
REMARK    1  A    between atoms: C_1  and  C_2
REMARK    2  A    between atoms: C_2  and  C_4
REMARK    3  A    between atoms: C_2  and  N_24
REMARK    4  A    between atoms: C_6  and  C_9
REMARK    5  A    between atoms: C_12  and  N_15
REMARK    6  A    between atoms: N_15  and  S_16
REMARK    7  A    between atoms: S_16  and  C_19
REMARK    8  A    between atoms: C_25  and  C_27
REMARK                            x       y       z     vdW  Elec       q    Type
REMARK                         _______ _______ _______ _____ _____    ______ ____
ROOT
ATOM      1  C   UNL     1       7.255   0.025   0.507  0.00  0.00    +0.248 A 
ATOM      2  N   UNL     1       8.142  -0.304   1.413  0.00  0.00    -0.190 NA
ATOM      3  C   UNL     1       8.894   0.804   1.604  0.00  0.00    +0.202 A 
ATOM      4  N   UNL     1       8.418   1.734   0.817  0.00  0.00    -0.056 NA
ATOM      5  O   UNL     1       7.479   1.302   0.182  0.00  0.00    -0.336 OA
ENDROOT
BRANCH   3   6
ATOM      6  C   UNL     1      10.040   0.941   2.536  0.00  0.00    +0.023 A 
ATOM      7  C   UNL     1      10.433  -0.142   3.322  0.00  0.00    +0.013 A 
ATOM      8  C   UNL     1      11.501  -0.014   4.183  0.00  0.00    +0.025 A 
ATOM      9  C   UNL     1      12.180   1.196   4.276  0.00  0.00    +0.048 A 
ATOM     10  C   UNL     1      11.786   2.278   3.498  0.00  0.00    +0.025 A 
ATOM     11  C   UNL     1      10.722   2.153   2.631  0.00  0.00    +0.013 A 
BRANCH   9  12
ATOM     12  N   UNL     1      13.258   1.324   5.152  0.00  0.00    -0.216 N 
ATOM     13  H   UNL     1      14.079   1.744   4.852  0.00  0.00    +0.174 HD
BRANCH  12  14
ATOM     14  S   UNL     1      13.134   0.760   6.704  0.00  0.00    +0.079 S 
ATOM     15  O   UNL     1      12.698  -0.589   6.613  0.00  0.00    -0.149 OA
ATOM     16  O   UNL     1      14.336   1.129   7.367  0.00  0.00    -0.149 OA
BRANCH  14  17
ATOM     17  C   UNL     1      11.834   1.658   7.483  0.00  0.00    +0.146 A 
ATOM     18  C   UNL     1      10.528   1.321   7.621  0.00  0.00    +0.036 A 
ATOM     19  C   UNL     1       9.678   2.191   8.278  0.00  0.00    +0.010 A 
ATOM     20  C   UNL     1      10.175   3.354   8.765  0.00  0.00    +0.047 A 
ATOM     21  S   UNL     1      11.895   3.243   8.302  0.00  0.00    -0.077 S 
ENDBRANCH  14  17
ENDBRANCH  12  14
ENDBRANCH   9  12
ENDBRANCH   3   6
BRANCH   1  23
ATOM     22  C   UNL     1       6.566  -1.298  -1.473  0.00  0.00    +0.038 C 
ATOM     23  C   UNL     1       6.179  -0.866  -0.057  0.00  0.00    +0.159 C 
BRANCH  23  24
ATOM     24  N   UNL     1       4.910  -0.135  -0.099  0.00  0.00    -0.300 N 
ATOM     25  C   UNL     1       3.743  -0.808  -0.073  0.00  0.00    +0.245 C 
ATOM     26  O   UNL     1       3.743  -2.023  -0.015  0.00  0.00    -0.270 OA
ATOM     27  H   UNL     1       4.910   0.834  -0.145  0.00  0.00    +0.150 HD
BRANCH  25  28
ATOM     28  C   UNL     1       2.463  -0.070  -0.115  0.00  0.00    +0.037 A 
ATOM     29  C   UNL     1       1.252  -0.765  -0.089  0.00  0.00    +0.013 A 
ATOM     30  C   UNL     1       0.061  -0.070  -0.128  0.00  0.00    +0.001 A 
ATOM     31  C   UNL     1       0.065   1.312  -0.193  0.00  0.00    +0.000 A 
ATOM     32  C   UNL     1       1.261   2.006  -0.220  0.00  0.00    +0.001 A 
ATOM     33  C   UNL     1       2.459   1.324  -0.181  0.00  0.00    +0.013 A 
ENDBRANCH  25  28
ENDBRANCH  23  24
ENDBRANCH   1  23
TORSDOF 7
