REMARK  Name = ZINC14085340
REMARK  10 active torsions:
REMARK  status: ('A' for Active; 'I' for Inactive)
REMARK    1  A    between atoms: C_1  and  C_2
REMARK    2  A    between atoms: C_7  and  N_8
REMARK    3  A    between atoms: C_9  and  C_11
REMARK    4  A    between atoms: C_11  and  N_56
REMARK    5  A    between atoms: C_12  and  N_56
REMARK    6  A    between atoms: C_13  and  C_14
REMARK    7  A    between atoms: C_13  and  N_56
REMARK    8  A    between atoms: N_16  and  C_17
REMARK    9  A    between atoms: N_16  and  C_23
REMARK   10  A    between atoms: C_17  and  C_18
REMARK                            x       y       z     vdW  Elec       q    Type
REMARK                         _______ _______ _______ _____ _____    ______ ____
ROOT
ATOM      1  C   UNL     1       3.950   2.012  -0.245  0.00  0.00    +0.019 C 
ENDROOT
BRANCH   1   3
ATOM      2  C   UNL     1       2.629   0.698   1.302  0.00  0.00    -0.095 C 
ATOM      3  N   UNL     1       2.605   1.469   0.041  0.00  0.00    +0.389 N 
ATOM      4  H   UNL     1       2.326   0.846  -0.726  0.00  0.00    -0.081 HD
BRANCH   3   5
ATOM      5  C   UNL     1       1.627   2.573   0.143  0.00  0.00    +0.019 C 
BRANCH   5   7
ATOM      6  N   UNL     1      -0.832   2.801   0.288  0.00  0.00    -0.287 N 
ATOM      7  C   UNL     1       0.240   1.987   0.214  0.00  0.00    +0.201 C 
ATOM      8  O   UNL     1       0.088   0.784   0.199  0.00  0.00    -0.278 OA
ATOM      9  H   UNL     1      -0.709   3.759   0.382  0.00  0.00    +0.155 HD
BRANCH   6  16
ATOM     10  C   UNL     1      -2.953   4.269   1.489  0.00  0.00    +0.046 C 
ATOM     11  C   UNL     1      -3.187   2.948   0.802  0.00  0.00    -0.028 A 
ATOM     12  C   UNL     1      -4.462   2.419   0.738  0.00  0.00    +0.020 A 
ATOM     13  C   UNL     1      -4.677   1.204   0.113  0.00  0.00    +0.018 A 
ATOM     14  C   UNL     1      -3.617   0.518  -0.455  0.00  0.00    +0.017 A 
ATOM     15  C   UNL     1      -2.342   1.045  -0.398  0.00  0.00    +0.024 A 
ATOM     16  C   UNL     1      -2.123   2.265   0.229  0.00  0.00    +0.036 A 
ATOM     17 BR   UNL     1      -6.421   0.479   0.034  0.00  0.00    -0.050 Br
ENDBRANCH   6  16
ENDBRANCH   5   7
ENDBRANCH   3   5
ENDBRANCH   1   3
BRANCH   1  18
ATOM     18  C   UNL     1       4.878   0.867  -0.560  0.00  0.00    +0.203 C 
ATOM     19  O   UNL     1       4.446  -0.264  -0.626  0.00  0.00    -0.277 OA
ATOM     20  N   UNL     1       6.189   1.101  -0.770  0.00  0.00    -0.269 N 
BRANCH  20  21
ATOM     21  C   UNL     1       6.707   2.389  -0.594  0.00  0.00    +0.037 A 
ATOM     22  C   UNL     1       6.304   3.422  -1.429  0.00  0.00    +0.023 A 
ATOM     23  C   UNL     1       6.813   4.693  -1.249  0.00  0.00    +0.002 A 
ATOM     24  C   UNL     1       7.732   4.935  -0.244  0.00  0.00    +0.000 A 
ATOM     25  C   UNL     1       8.139   3.907   0.586  0.00  0.00    +0.002 A 
ATOM     26  C   UNL     1       7.630   2.635   0.415  0.00  0.00    +0.023 A 
ENDBRANCH  20  21
BRANCH  20  27
ATOM     27  C   UNL     1       7.071   0.007  -1.183  0.00  0.00    +0.145 C 
BRANCH  27  28
ATOM     28  C   UNL     1       7.103  -0.072  -2.688  0.00  0.00    -0.045 C 
ATOM     29  C   UNL     1       8.030   0.520  -3.357  0.00  0.00    -0.015 C 
ATOM     30  C   UNL     1       8.023   0.408  -4.872  0.00  0.00    +0.096 C 
ATOM     31  S   UNL     1       6.822  -0.974  -5.111  0.00  0.00    -0.152 S 
ATOM     32  C   UNL     1       6.038  -0.847  -3.445  0.00  0.00    +0.101 C 
ENDBRANCH  27  28
ENDBRANCH  20  27
ENDBRANCH   1  18
TORSDOF 8
