REMARK  Name = ZINC09375677
REMARK  13 active torsions:
REMARK  status: ('A' for Active; 'I' for Inactive)
REMARK    1  A    between atoms: C_1  and  C_2
REMARK    2  A    between atoms: C_2  and  C_3
REMARK    3  A    between atoms: C_3  and  C_5
REMARK    4  A    between atoms: C_3  and  N_59
REMARK    5  A    between atoms: C_8  and  S_17
REMARK    6  A    between atoms: N_9  and  C_10
REMARK    7  A    between atoms: C_10  and  C_11
REMARK    8  A    between atoms: S_17  and  C_18
REMARK    9  A    between atoms: C_18  and  C_20
REMARK   10  A    between atoms: C_18  and  C_21
REMARK   11  A    between atoms: N_23  and  C_24
REMARK   12  A    between atoms: C_33  and  N_59
REMARK   13  A    between atoms: C_34  and  N_59
REMARK                            x       y       z     vdW  Elec       q    Type
REMARK                         _______ _______ _______ _____ _____    ______ ____
ROOT
ATOM      1  C   UNL     1       0.129   1.064   2.317  0.00  0.00    +0.121 A 
ATOM      2  N   UNL     1       1.264   1.506   2.779  0.00  0.00    -0.135 NA
ATOM      3  N   UNL     1       1.595   0.852   3.834  0.00  0.00    -0.123 NA
ATOM      4  C   UNL     1       0.686  -0.057   4.099  0.00  0.00    +0.193 A 
ATOM      5  N   UNL     1      -0.279   0.050   3.139  0.00  0.00    -0.303 N 
ENDROOT
BRANCH   1   6
ATOM      6  C   UNL     1      -0.598   1.572   1.098  0.00  0.00    +0.000 C 
BRANCH   6   9
ATOM      7  C   UNL     1      -1.403   3.571  -0.006  0.00  0.00    -0.096 C 
ATOM      8  C   UNL     1      -1.098   3.553   2.396  0.00  0.00    -0.096 C 
ATOM      9  N   UNL     1      -0.581   3.050   1.107  0.00  0.00    +0.383 N 
ATOM     10  H   UNL     1       0.387   3.372   0.986  0.00  0.00    -0.082 HD
ENDBRANCH   6   9
BRANCH   6  12
ATOM     11  C   UNL     1       1.524   1.666  -0.218  0.00  0.00    +0.002 C 
ATOM     12  C   UNL     1       0.113   1.077  -0.163  0.00  0.00    -0.011 C 
ENDBRANCH   6  12
ENDBRANCH   1   6
BRANCH   5  13
ATOM     13  C   UNL     1      -1.497  -0.754   3.015  0.00  0.00    +0.160 C 
BRANCH  13  14
ATOM     14  C   UNL     1      -1.215  -1.966   2.165  0.00  0.00    -0.028 A 
ATOM     15  C   UNL     1      -1.398  -1.908   0.796  0.00  0.00    +0.005 A 
ATOM     16  C   UNL     1      -1.134  -3.018   0.016  0.00  0.00    +0.000 A 
ATOM     17  C   UNL     1      -0.698  -4.190   0.605  0.00  0.00    +0.000 A 
ATOM     18  C   UNL     1      -0.520  -4.250   1.975  0.00  0.00    +0.000 A 
ATOM     19  C   UNL     1      -0.778  -3.138   2.755  0.00  0.00    +0.005 A 
ENDBRANCH  13  14
ENDBRANCH   5  13
BRANCH   4  20
ATOM     20  S   UNL     1       0.707  -1.199   5.441  0.00  0.00    -0.074 S 
BRANCH  20  21
ATOM     21  C   UNL     1       2.261  -0.722   6.236  0.00  0.00    +0.137 C 
ATOM     22  C   UNL     1       2.140   0.703   6.779  0.00  0.00    +0.029 C 
BRANCH  21  23
ATOM     23  C   UNL     1       2.556  -1.669   7.371  0.00  0.00    +0.230 C 
ATOM     24  O   UNL     1       1.663  -2.331   7.856  0.00  0.00    -0.274 OA
ATOM     25  N   UNL     1       3.812  -1.779   7.847  0.00  0.00    -0.282 N 
ATOM     26  H   UNL     1       4.511  -1.198   7.511  0.00  0.00    +0.155 HD
BRANCH  25  27
ATOM     27  C   UNL     1       4.107  -2.735   8.829  0.00  0.00    +0.072 A 
ATOM     28  C   UNL     1       3.437  -3.950   8.840  0.00  0.00    +0.029 A 
ATOM     29  C   UNL     1       3.729  -4.892   9.808  0.00  0.00    +0.043 A 
ATOM     30  C   UNL     1       4.690  -4.626  10.768  0.00  0.00    +0.161 A 
ATOM     31  C   UNL     1       5.362  -3.413  10.762  0.00  0.00    +0.195 A 
ATOM     32  C   UNL     1       5.075  -2.468   9.790  0.00  0.00    +0.182 A 
ATOM     33  F   UNL     1       5.733  -1.288   9.779  0.00  0.00    -0.200 F 
ATOM     34  F   UNL     1       6.298  -3.154  11.700  0.00  0.00    -0.199 F 
ATOM     35  F   UNL     1       4.974  -5.549  11.713  0.00  0.00    -0.202 F 
ENDBRANCH  25  27
ENDBRANCH  21  23
ENDBRANCH  20  21
ENDBRANCH   4  20
TORSDOF 9
