REMARK  Name = ZINC40983691
REMARK  12 active torsions:
REMARK  status: ('A' for Active; 'I' for Inactive)
REMARK    1  A    between atoms: C_1  and  C_2
REMARK    2  A    between atoms: C_2  and  O_3
REMARK    3  A    between atoms: O_3  and  C_4
REMARK    4  A    between atoms: C_9  and  C_10
REMARK    5  A    between atoms: C_12  and  C_16
REMARK    6  A    between atoms: C_13  and  C_15
REMARK    7  A    between atoms: C_16  and  N_17
REMARK    8  A    between atoms: C_20  and  C_23
REMARK    9  A    between atoms: N_28  and  C_31
REMARK   10  A    between atoms: C_36  and  O_37
REMARK   11  A    between atoms: O_37  and  C_38
REMARK   12  A    between atoms: C_38  and  C_39
REMARK                            x       y       z     vdW  Elec       q    Type
REMARK                         _______ _______ _______ _____ _____    ______ ____
ROOT
ATOM      1  N   UNL     1       5.287  -0.695   6.201  0.00  0.00    +0.383 N 
ATOM      2  C   UNL     1       5.630   0.556   5.514  0.00  0.00    -0.078 C 
ATOM      3  C   UNL     1       7.115   0.549   5.146  0.00  0.00    -0.006 C 
ATOM      4  C   UNL     1       7.951   0.420   6.423  0.00  0.00    +0.072 C 
ATOM      5  C   UNL     1       7.532  -0.850   7.169  0.00  0.00    -0.006 C 
ATOM      6  C   UNL     1       6.032  -0.791   7.462  0.00  0.00    -0.078 C 
ATOM      7  H   UNL     1       5.525  -1.478   5.611  0.00  0.00    -0.081 HD
ENDROOT
BRANCH   4   8
ATOM      8  C   UNL     1       9.412   0.333   6.062  0.00  0.00    +0.219 C 
ATOM      9  O   UNL     1       9.753  -0.237   5.047  0.00  0.00    -0.275 OA
ATOM     10  N   UNL     1      10.339   0.890   6.867  0.00  0.00    -0.298 N 
ATOM     11  C   UNL     1       9.954   1.474   8.159  0.00  0.00    +0.126 C 
ATOM     12  C   UNL     1      10.790   0.815   9.263  0.00  0.00    +0.124 C 
ATOM     13  N   UNL     1      12.204   0.848   8.864  0.00  0.00    -0.324 N 
ATOM     14  C   UNL     1      12.589   0.265   7.572  0.00  0.00    +0.124 C 
ATOM     15  C   UNL     1      11.754   0.918   6.470  0.00  0.00    +0.126 C 
BRANCH  13  16
ATOM     16  C   UNL     1      13.167   1.426   9.700  0.00  0.00    +0.072 A 
ATOM     17  C   UNL     1      13.824   0.650  10.644  0.00  0.00    +0.027 A 
ATOM     18  C   UNL     1      14.775   1.223  11.468  0.00  0.00    +0.002 A 
ATOM     19  C   UNL     1      15.072   2.568  11.354  0.00  0.00    +0.004 A 
ATOM     20  C   UNL     1      14.421   3.348  10.416  0.00  0.00    +0.047 A 
ATOM     21  C   UNL     1      13.471   2.780   9.583  0.00  0.00    +0.141 A 
BRANCH  21  22
ATOM     22  O   UNL     1      12.833   3.545   8.656  0.00  0.00    -0.490 OA
BRANCH  22  23
ATOM     23  C   UNL     1      13.196   4.925   8.593  0.00  0.00    +0.226 C 
ATOM     24  C   UNL     1      12.380   5.618   7.500  0.00  0.00    +0.048 C 
ENDBRANCH  22  23
ENDBRANCH  21  22
ENDBRANCH  13  16
ENDBRANCH   4   8
BRANCH   1  25
ATOM     25  C   UNL     1       3.845  -0.718   6.483  0.00  0.00    -0.019 C 
BRANCH  25  28
ATOM     26  C   UNL     1       2.054  -1.468   3.433  0.00  0.00    +0.231 A 
ATOM     27  N   UNL     1       2.697  -1.840   4.515  0.00  0.00    -0.216 NA
ATOM     28  C   UNL     1       3.080  -0.743   5.185  0.00  0.00    +0.066 A 
ATOM     29  C   UNL     1       2.659   0.331   4.493  0.00  0.00    +0.124 A 
ATOM     30  O   UNL     1       2.022  -0.124   3.395  0.00  0.00    -0.440 OA
ATOM     31  C   UNL     1       2.864   1.775   4.872  0.00  0.00    +0.088 C 
BRANCH  26  37
ATOM     32  C   UNL     1       0.808  -1.847   1.305  0.00  0.00    +0.133 A 
ATOM     33  C   UNL     1       0.268  -2.705   0.360  0.00  0.00    +0.046 A 
ATOM     34  C   UNL     1       0.374  -4.073   0.524  0.00  0.00    +0.004 A 
ATOM     35  C   UNL     1       1.021  -4.596   1.631  0.00  0.00    +0.001 A 
ATOM     36  C   UNL     1       1.565  -3.756   2.580  0.00  0.00    +0.017 A 
ATOM     37  C   UNL     1       1.468  -2.373   2.423  0.00  0.00    +0.078 A 
BRANCH  32  38
ATOM     38  O   UNL     1       0.705  -0.503   1.144  0.00  0.00    -0.491 OA
BRANCH  38  40
ATOM     39  C   UNL     1       0.002   1.490  -0.029  0.00  0.00    +0.048 C 
ATOM     40  C   UNL     1       0.018  -0.040  -0.021  0.00  0.00    +0.226 C 
ENDBRANCH  38  40
ENDBRANCH  32  38
ENDBRANCH  26  37
ENDBRANCH  25  28
ENDBRANCH   1  25
TORSDOF 9
