REMARK  Name = ZINC36304921
REMARK  18 active torsions:
REMARK  status: ('A' for Active; 'I' for Inactive)
REMARK    1  A    between atoms: C_1  and  C_2
REMARK    2  A    between atoms: C_6  and  O_8
REMARK    3  A    between atoms: O_8  and  C_9
REMARK    4  A    between atoms: C_10  and  C_21
REMARK    5  A    between atoms: C_11  and  C_20
REMARK    6  A    between atoms: N_13  and  C_14
REMARK    7  A    between atoms: C_21  and  N_22
REMARK    8  A    between atoms: N_22  and  C_23
REMARK    9  A    between atoms: N_22  and  C_27
REMARK   10  A    between atoms: C_23  and  C_24
REMARK   11  A    between atoms: C_27  and  C_28
REMARK   12  A    between atoms: C_28  and  C_30
REMARK   13  A    between atoms: C_28  and  O_36
REMARK   14  A    between atoms: C_30  and  O_31
REMARK   15  A    between atoms: O_31  and  C_32
REMARK   16  A    between atoms: C_32  and  C_33
REMARK   17  A    between atoms: C_32  and  C_34
REMARK   18  A    between atoms: C_32  and  C_35
REMARK                            x       y       z     vdW  Elec       q    Type
REMARK                         _______ _______ _______ _____ _____    ______ ____
ROOT
ATOM      1  C   UNL     1      -0.637  -4.129   2.042  0.00  0.00    +0.225 A 
ATOM      2  C   UNL     1      -0.271  -4.947   3.064  0.00  0.00    +0.021 A 
ATOM      3  C   UNL     1       0.039  -6.198   2.522  0.00  0.00    +0.065 A 
ATOM      4  N   UNL     1      -0.132  -6.142   1.226  0.00  0.00    -0.168 NA
ATOM      5  N   UNL     1      -0.564  -4.852   0.893  0.00  0.00    -0.200 N 
ATOM      6  C   UNL     1       0.494  -7.406   3.300  0.00  0.00    +0.068 C 
ENDROOT
BRANCH   5   7
ATOM      7  C   UNL     1      -0.864  -4.389  -0.396  0.00  0.00    +0.069 A 
ATOM      8  C   UNL     1      -1.963  -3.565  -0.600  0.00  0.00    +0.028 A 
ATOM      9  C   UNL     1      -2.256  -3.111  -1.871  0.00  0.00    +0.002 A 
ATOM     10  C   UNL     1      -1.457  -3.475  -2.939  0.00  0.00    +0.000 A 
ATOM     11  C   UNL     1      -0.362  -4.295  -2.739  0.00  0.00    +0.002 A 
ATOM     12  C   UNL     1      -0.060  -4.748  -1.469  0.00  0.00    +0.028 A 
ENDBRANCH   5   7
BRANCH   1  13
ATOM     13  O   UNL     1      -1.013  -2.829   2.149  0.00  0.00    -0.438 OA
BRANCH  13  19
ATOM     14  C   UNL     1       0.172   1.894   1.816  0.00  0.00    +0.044 C 
ATOM     15  C   UNL     1       0.556   0.437   1.822  0.00  0.00    -0.047 A 
ATOM     16  C   UNL     1       1.880   0.071   1.665  0.00  0.00    +0.003 A 
ATOM     17  C   UNL     1       2.236  -1.265   1.670  0.00  0.00    +0.004 A 
ATOM     18  C   UNL     1       1.269  -2.238   1.833  0.00  0.00    +0.046 A 
ATOM     19  C   UNL     1      -0.060  -1.874   1.990  0.00  0.00    +0.131 A 
ATOM     20  C   UNL     1      -0.414  -0.532   1.990  0.00  0.00    +0.049 A 
ENDBRANCH  13  19
ENDBRANCH   1  13
BRANCH   2  21
ATOM     21  C   UNL     1      -0.209  -4.572   4.522  0.00  0.00    -0.036 C 
BRANCH  21  22
ATOM     22  N   UNL     1      -1.548  -4.691   5.115  0.00  0.00    +0.384 N 
ATOM     23  H   UNL     1      -2.204  -4.146   4.577  0.00  0.00    -0.081 HD
BRANCH  22  24
ATOM     24  C   UNL     1      -1.517  -4.195   6.498  0.00  0.00    -0.075 C 
BRANCH  24  25
ATOM     25  C   UNL     1      -1.203  -2.698   6.496  0.00  0.00    -0.028 C 
ATOM     26  C   UNL     1       0.105  -2.249   7.151  0.00  0.00    +0.002 C 
ATOM     27  C   UNL     1      -1.232  -1.968   7.840  0.00  0.00    +0.002 C 
ENDBRANCH  24  25
ENDBRANCH  22  24
BRANCH  22  28
ATOM     28  C   UNL     1      -1.962  -6.101   5.110  0.00  0.00    -0.044 C 
BRANCH  28  29
ATOM     29  C   UNL     1      -3.403  -6.210   5.612  0.00  0.00    +0.124 C 
BRANCH  29  30
ATOM     30  O   UNL     1      -4.279  -5.555   4.692  0.00  0.00    -0.391 OA
ATOM     31  H   UNL     1      -4.259  -5.925   3.799  0.00  0.00    +0.210 HD
ENDBRANCH  29  30
BRANCH  29  32
ATOM     32  C   UNL     1      -3.793  -7.686   5.724  0.00  0.00    +0.189 C 
BRANCH  32  33
ATOM     33  O   UNL     1      -5.096  -7.792   6.302  0.00  0.00    -0.372 OA
BRANCH  33  34
ATOM     34  C   UNL     1      -5.557  -9.136   6.453  0.00  0.00    +0.061 C 
ATOM     35  C   UNL     1      -4.596  -9.906   7.361  0.00  0.00    +0.041 C 
ATOM     36  C   UNL     1      -6.954  -9.128   7.077  0.00  0.00    +0.041 C 
ATOM     37  C   UNL     1      -5.616  -9.811   5.081  0.00  0.00    +0.041 C 
ENDBRANCH  33  34
ENDBRANCH  32  33
ENDBRANCH  29  32
ENDBRANCH  28  29
ENDBRANCH  22  28
ENDBRANCH  21  22
ENDBRANCH   2  21
TORSDOF 13
