REMARK  Name = ZINC03269379
REMARK  6 active torsions:
REMARK  status: ('A' for Active; 'I' for Inactive)
REMARK    1  A    between atoms: C_1  and  C_2
REMARK    2  A    between atoms: C_5  and  C_7
REMARK    3  A    between atoms: N_8  and  N_9
REMARK    4  A    between atoms: C_10  and  C_22
REMARK    5  A    between atoms: N_14  and  C_15
REMARK    6  A    between atoms: C_25  and  N_28
REMARK                            x       y       z     vdW  Elec       q    Type
REMARK                         _______ _______ _______ _____ _____    ______ ____
ROOT
ATOM      1  N   UNL     1       0.363   5.867  -0.149  0.00  0.00    -0.209 N 
ATOM      2  C   UNL     1      -0.023   7.143  -0.082  0.00  0.00    +0.082 A 
ATOM      3  C   UNL     1      -1.385   7.430   0.021  0.00  0.00    +0.077 A 
ATOM      4  S   UNL     1      -2.104   5.851   0.021  0.00  0.00    -0.058 S 
ATOM      5  C   UNL     1      -0.608   4.888  -0.119  0.00  0.00    +0.173 A 
ATOM      6  N   UNL     1      -0.468   3.581  -0.176  0.00  0.00    -0.334 N 
ATOM      7  H   UNL     1       0.537   3.135  -0.162  0.00  0.00    +0.168 HD
ENDROOT
BRANCH   6   8
ATOM      8  C   UNL     1      -1.557   2.789  -0.252  0.00  0.00    +0.041 A 
ATOM      9  C   UNL     1      -2.220   2.384   0.919  0.00  0.00    +0.027 A 
ATOM     10  C   UNL     1      -3.329   1.582   0.831  0.00  0.00    +0.022 A 
ATOM     11  C   UNL     1      -3.791   1.162  -0.409  0.00  0.00    +0.041 A 
ATOM     12  C   UNL     1      -3.139   1.553  -1.571  0.00  0.00    +0.022 A 
ATOM     13  C   UNL     1      -2.032   2.358  -1.503  0.00  0.00    +0.027 A 
ATOM     14 CL   UNL     1      -5.191   0.141  -0.507  0.00  0.00    -0.084 Cl
ENDBRANCH   6   8
BRANCH   2  15
ATOM     15  C   UNL     1       0.973   8.230  -0.117  0.00  0.00    +0.001 A 
ATOM     16  C   UNL     1       0.727   9.429   0.561  0.00  0.00    +0.012 A 
ATOM     17  C   UNL     1       1.665  10.439   0.528  0.00  0.00    +0.033 A 
ATOM     18  C   UNL     1       2.842  10.274  -0.182  0.00  0.00    +0.126 A 
ATOM     19  C   UNL     1       3.089   9.092  -0.860  0.00  0.00    +0.033 A 
ATOM     20  C   UNL     1       2.164   8.070  -0.832  0.00  0.00    +0.012 A 
BRANCH  18  21
ATOM     21  N   UNL     1       3.841  11.365  -0.217  0.00  0.00    +0.056 N 
ATOM     22  O   UNL     1       4.962  11.211  -0.891  0.00  0.00    -0.126 OA
ATOM     23  O   UNL     1       3.609  12.491   0.427  0.00  0.00    -0.126 OA
ENDBRANCH  18  21
ENDBRANCH   2  15
BRANCH   1  25
ATOM     24  C   UNL     1       2.299   4.833   0.698  0.00  0.00    +0.148 C 
ATOM     25  N   UNL     1       1.720   5.532  -0.253  0.00  0.00    -0.171 NA
BRANCH  24  30
ATOM     26  C   UNL     1      -1.017   4.709   5.126  0.00  0.00    +0.051 C 
ATOM     27  C   UNL     1       0.041   4.575   4.062  0.00  0.00    -0.013 A 
ATOM     28  C   UNL     1       1.183   3.827   4.094  0.00  0.00    +0.011 A 
ATOM     29  C   UNL     1       2.018   3.836   3.013  0.00  0.00    +0.017 A 
ATOM     30  C   UNL     1       1.639   4.634   1.927  0.00  0.00    +0.032 A 
ATOM     31  S   UNL     1       0.103   5.333   2.505  0.00  0.00    -0.092 S 
ENDBRANCH  24  30
ENDBRANCH   1  25
TORSDOF 5
