REMARK  Name = ZINC00681772
REMARK  8 active torsions:
REMARK  status: ('A' for Active; 'I' for Inactive)
REMARK    1  A    between atoms: C_1  and  C_2
REMARK    2  A    between atoms: C_2  and  N_3
REMARK    3  A    between atoms: N_3  and  C_4
REMARK    4  A    between atoms: N_3  and  C_6
REMARK    5  A    between atoms: C_4  and  C_5
REMARK    6  A    between atoms: C_9  and  C_12
REMARK    7  A    between atoms: C_17  and  C_33
REMARK    8  A    between atoms: C_27  and  C_29
REMARK                            x       y       z     vdW  Elec       q    Type
REMARK                         _______ _______ _______ _____ _____    ______ ____
ROOT
ATOM      1  C   UNL     1      -2.261  -1.437  -5.951  0.00  0.00    +0.032 C 
ATOM      2  C   UNL     1      -3.336  -2.490  -5.689  0.00  0.00    +0.059 C 
ATOM      3  C   UNL     1      -4.134  -2.740  -6.958  0.00  0.00    +0.017 C 
ATOM      4  C   UNL     1      -4.355  -1.742  -7.829  0.00  0.00    +0.040 C 
ATOM      5  C   UNL     1      -5.146  -1.843  -9.111  0.00  0.00    +0.182 C 
ATOM      6  N   UNL     1      -5.466  -3.197  -9.512  0.00  0.00    -0.248 N 
ATOM      7  C   UNL     1      -6.302  -4.000  -8.735  0.00  0.00    +0.059 A 
ATOM      8  C   UNL     1      -7.537  -4.424  -9.200  0.00  0.00    +0.025 A 
ATOM      9  C   UNL     1      -8.351  -5.181  -8.376  0.00  0.00    +0.002 A 
ATOM     10  C   UNL     1      -7.939  -5.511  -7.097  0.00  0.00    +0.002 A 
ATOM     11  C   UNL     1      -6.700  -5.103  -6.635  0.00  0.00    +0.025 A 
ATOM     12  C   UNL     1      -5.876  -4.363  -7.466  0.00  0.00    +0.053 A 
ATOM     13  N   UNL     1      -4.580  -4.014  -7.106  0.00  0.00    -0.316 N 
ATOM     14  C   UNL     1      -4.949  -3.690 -10.655  0.00  0.00    +0.325 C 
ATOM     15  O   UNL     1      -4.222  -3.001 -11.338  0.00  0.00    -0.265 OA
ATOM     16  C   UNL     1      -3.816  -0.456  -7.590  0.00  0.00    +0.163 C 
ATOM     17  O   UNL     1      -4.048   0.433  -8.386  0.00  0.00    -0.292 OA
ATOM     18  C   UNL     1      -2.966  -0.149  -6.394  0.00  0.00    +0.088 C 
ATOM     19  H   UNL     1      -3.947  -4.732  -6.950  0.00  0.00    +0.152 HD
ENDROOT
BRANCH   1  23
ATOM     20  C   UNL     1      -0.038  -0.713  -2.373  0.00  0.00    +0.030 A 
ATOM     21  C   UNL     1      -1.412  -0.506  -2.393  0.00  0.00    +0.023 A 
ATOM     22  C   UNL     1      -2.126  -0.736  -3.552  0.00  0.00    +0.006 A 
ATOM     23  C   UNL     1      -1.478  -1.182  -4.689  0.00  0.00    -0.043 A 
ATOM     24  C   UNL     1      -0.111  -1.394  -4.671  0.00  0.00    +0.006 A 
ATOM     25  C   UNL     1       0.610  -1.161  -3.517  0.00  0.00    +0.023 A 
BRANCH  20  26
ATOM     26  N   UNL     1       0.688  -0.476  -1.203  0.00  0.00    -0.330 N 
BRANCH  26  28
ATOM     27  C   UNL     1      -0.019   1.526   0.010  0.00  0.00    +0.024 C 
ATOM     28  C   UNL     1       0.002  -0.004   0.002  0.00  0.00    +0.102 C 
ENDBRANCH  26  28
BRANCH  26  29
ATOM     29  C   UNL     1       2.135  -0.701  -1.182  0.00  0.00    +0.102 C 
ATOM     30  C   UNL     1       2.421  -2.145  -0.763  0.00  0.00    +0.024 C 
ENDBRANCH  26  29
ENDBRANCH  20  26
ENDBRANCH   1  23
BRANCH   5  31
ATOM     31  C   UNL     1      -6.435  -1.081  -8.939  0.00  0.00    +0.130 A 
ATOM     32  C   UNL     1      -6.679   0.164  -9.386  0.00  0.00    +0.047 A 
ATOM     33  C   UNL     1      -8.004   0.482  -9.010  0.00  0.00    +0.041 A 
ATOM     34  C   UNL     1      -8.488  -0.584  -8.348  0.00  0.00    +0.195 A 
ATOM     35  O   UNL     1      -7.533  -1.528  -8.308  0.00  0.00    -0.466 OA
ENDBRANCH   5  31
BRANCH  14  36
ATOM     36  C   UNL     1      -5.274  -5.098 -11.084  0.00  0.00    +0.470 C 
ATOM     37  F   UNL     1      -4.626  -5.379 -12.291  0.00  0.00    -0.162 F 
ATOM     38  F   UNL     1      -4.842  -5.996 -10.102  0.00  0.00    -0.162 F 
ATOM     39  F   UNL     1      -6.657  -5.225 -11.256  0.00  0.00    -0.162 F 
ENDBRANCH  14  36
TORSDOF 6
