REMARK  Name = ZINC36660346
REMARK  9 active torsions:
REMARK  status: ('A' for Active; 'I' for Inactive)
REMARK    1  A    between atoms: C_1  and  N_2
REMARK    2  A    between atoms: N_2  and  C_3
REMARK    3  A    between atoms: N_2  and  C_4
REMARK    4  A    between atoms: C_4  and  C_5
REMARK    5  A    between atoms: C_5  and  C_6
REMARK    6  A    between atoms: C_6  and  N_7
REMARK    7  A    between atoms: C_18  and  C_20
REMARK    8  A    between atoms: N_25  and  S_26
REMARK    9  A    between atoms: S_26  and  C_29
REMARK                            x       y       z     vdW  Elec       q    Type
REMARK                         _______ _______ _______ _____ _____    ______ ____
ROOT
ATOM      1  N   UNL     1      -2.927  -3.520  -0.667  0.00  0.00    -0.249 N 
ATOM      2  C   UNL     1      -2.765  -4.098   0.582  0.00  0.00    +0.168 A 
ATOM      3  N   UNL     1      -2.512  -3.516   1.731  0.00  0.00    -0.224 NA
ATOM      4  C   UNL     1      -2.379  -4.210   2.882  0.00  0.00    +0.080 A 
ATOM      5  C   UNL     1      -2.107  -3.710   4.177  0.00  0.00    +0.030 A 
ATOM      6  C   UNL     1      -2.001  -4.559   5.247  0.00  0.00    +0.022 A 
ATOM      7  C   UNL     1      -2.156  -5.931   5.104  0.00  0.00    +0.042 A 
ATOM      8  C   UNL     1      -2.424  -6.455   3.851  0.00  0.00    +0.037 A 
ATOM      9  C   UNL     1      -2.531  -5.612   2.773  0.00  0.00    +0.042 A 
ATOM     10  S   UNL     1      -2.857  -5.823   1.040  0.00  0.00    -0.052 S 
ATOM     11 CL   UNL     1      -2.015  -6.979   6.481  0.00  0.00    -0.084 Cl
ATOM     12  C   UNL     1      -3.192  -4.294  -1.738  0.00  0.00    +0.240 C 
ATOM     13  O   UNL     1      -3.381  -5.483  -1.595  0.00  0.00    -0.273 OA
ENDROOT
BRANCH  12  14
ATOM     14  C   UNL     1      -3.253  -3.682  -3.114  0.00  0.00    +0.166 C 
ATOM     15  C   UNL     1      -4.697  -3.233  -3.425  0.00  0.00    +0.031 C 
ATOM     16  C   UNL     1      -4.855  -3.589  -4.927  0.00  0.00    +0.019 C 
ATOM     17  C   UNL     1      -4.026  -4.894  -5.026  0.00  0.00    +0.110 C 
ATOM     18  N   UNL     1      -2.876  -4.681  -4.123  0.00  0.00    -0.165 NA
BRANCH  18  19
ATOM     19  S   UNL     1      -1.408  -5.441  -4.229  0.00  0.00    +0.062 S 
ATOM     20  O   UNL     1      -1.197  -5.728  -5.604  0.00  0.00    -0.153 OA
ATOM     21  O   UNL     1      -0.494  -4.666  -3.464  0.00  0.00    -0.153 OA
BRANCH  19  22
ATOM     22  C   UNL     1      -1.563  -6.992  -3.408  0.00  0.00    +0.106 A 
ATOM     23  C   UNL     1      -1.187  -7.113  -2.083  0.00  0.00    +0.031 A 
ATOM     24  C   UNL     1      -1.308  -8.329  -1.438  0.00  0.00    +0.040 A 
ATOM     25  C   UNL     1      -1.808  -9.426  -2.119  0.00  0.00    +0.124 A 
ATOM     26  C   UNL     1      -2.186  -9.304  -3.446  0.00  0.00    +0.040 A 
ATOM     27  C   UNL     1      -2.068  -8.085  -4.087  0.00  0.00    +0.031 A 
ATOM     28  F   UNL     1      -1.928 -10.616  -1.490  0.00  0.00    -0.205 F 
ENDBRANCH  19  22
ENDBRANCH  18  19
ENDBRANCH  12  14
BRANCH   1  29
ATOM     29  C   UNL     1      -2.810  -2.068  -0.824  0.00  0.00    +0.114 C 
BRANCH  29  30
ATOM     30  C   UNL     1      -1.346  -1.699  -1.074  0.00  0.00    +0.001 C 
BRANCH  30  31
ATOM     31  C   UNL     1      -1.224  -0.183  -1.237  0.00  0.00    -0.078 C 
BRANCH  31  33
ATOM     32  C   UNL     1       0.283   1.611  -1.753  0.00  0.00    -0.097 C 
ATOM     33  N   UNL     1       0.182   0.172  -1.478  0.00  0.00    +0.376 N 
ATOM     34  C   UNL     1       0.980  -0.157  -0.289  0.00  0.00    -0.097 C 
ATOM     35  H   UNL     1       0.529  -0.347  -2.270  0.00  0.00    -0.083 HD
ENDBRANCH  31  33
ENDBRANCH  30  31
ENDBRANCH  29  30
ENDBRANCH   1  29
TORSDOF 7
