REMARK  Name = ZINC44097717
REMARK  4 active torsions:
REMARK  status: ('A' for Active; 'I' for Inactive)
REMARK    1  A    between atoms: C_1  and  C_2
REMARK    2  A    between atoms: C_2  and  C_3
REMARK    3  A    between atoms: C_5  and  C_8
REMARK    4  A    between atoms: N_22  and  C_23
REMARK                            x       y       z     vdW  Elec       q    Type
REMARK                         _______ _______ _______ _____ _____    ______ ____
ROOT
ATOM      1  C   UNL     1       3.636  -1.532  -3.030  0.00  0.00    +0.038 A 
ATOM      2  C   UNL     1       3.699  -1.926  -4.372  0.00  0.00    +0.016 A 
ATOM      3  C   UNL     1       4.926  -2.278  -4.896  0.00  0.00    +0.042 A 
ATOM      4  C   UNL     1       6.053  -2.230  -4.079  0.00  0.00    +0.099 A 
ATOM      5  N   UNL     1       5.958  -1.853  -2.813  0.00  0.00    -0.349 N 
ATOM      6  C   UNL     1       4.806  -1.503  -2.277  0.00  0.00    +0.095 A 
ATOM      7  N   UNL     1       7.291  -2.583  -4.598  0.00  0.00    -0.314 N 
ATOM      8  C   UNL     1       8.512  -2.423  -3.796  0.00  0.00    +0.125 C 
ATOM      9  C   UNL     1       9.234  -3.775  -3.728  0.00  0.00    +0.128 C 
ATOM     10  N   UNL     1       9.347  -4.315  -5.090  0.00  0.00    -0.283 N 
ATOM     11  C   UNL     1       8.127  -4.475  -5.892  0.00  0.00    +0.128 C 
ATOM     12  C   UNL     1       7.404  -3.129  -5.958  0.00  0.00    +0.125 C 
ATOM     13  C   UNL     1      10.550  -4.658  -5.594  0.00  0.00    +0.303 C 
ATOM     14  O   UNL     1      11.539  -4.616  -4.888  0.00  0.00    -0.253 OA
ATOM     15  N   UNL     1      10.655  -5.048  -6.880  0.00  0.00    -0.294 N 
ATOM     16  H   UNL     1       9.880  -5.010  -7.463  0.00  0.00    +0.151 HD
ATOM     17  H   UNL     1       6.760  -1.829  -2.266  0.00  0.00    +0.167 HD
ENDROOT
BRANCH  15  18
ATOM     18  C   UNL     1      11.938  -5.528  -7.397  0.00  0.00    +0.037 C 
ATOM     19  C   UNL     1      12.989  -4.425  -7.258  0.00  0.00    +0.029 C 
ATOM     20  C   UNL     1      14.330  -4.927  -7.798  0.00  0.00    -0.008 C 
ATOM     21  C   UNL     1      14.177  -5.303  -9.273  0.00  0.00    +0.007 C 
ATOM     22  C   UNL     1      13.126  -6.406  -9.412  0.00  0.00    -0.008 C 
ATOM     23  C   UNL     1      11.786  -5.904  -8.872  0.00  0.00    +0.029 C 
ATOM     24  C   UNL     1      13.569  -7.635  -8.616  0.00  0.00    +0.007 C 
ATOM     25  C   UNL     1      13.722  -7.260  -7.141  0.00  0.00    -0.008 C 
ATOM     26  C   UNL     1      14.773  -6.156  -7.001  0.00  0.00    +0.007 C 
ATOM     27  C   UNL     1      12.381  -6.758  -6.601  0.00  0.00    +0.029 C 
ENDBRANCH  15  18
BRANCH   1  30
ATOM     28  C   UNL     1       0.217  -0.743  -2.227  0.00  0.00    +0.227 A 
ATOM     29  N   UNL     1       1.150  -1.133  -3.048  0.00  0.00    -0.191 NA
ATOM     30  C   UNL     1       2.340  -1.144  -2.421  0.00  0.00    +0.203 A 
ATOM     31  N   UNL     1       2.164  -0.756  -1.181  0.00  0.00    -0.056 NA
ATOM     32  O   UNL     1       0.778  -0.483  -1.038  0.00  0.00    -0.338 OA
BRANCH  28  34
ATOM     33  C   UNL     1      -1.965  -1.921  -2.268  0.00  0.00    +0.014 C 
ATOM     34  C   UNL     1      -1.246  -0.602  -2.559  0.00  0.00    +0.095 C 
ENDBRANCH  28  34
ENDBRANCH   1  30
TORSDOF 3
