REMARK  Name = ZINC11392152
REMARK  10 active torsions:
REMARK  status: ('A' for Active; 'I' for Inactive)
REMARK    1  A    between atoms: C_1  and  C_2
REMARK    2  A    between atoms: C_6  and  C_24
REMARK    3  A    between atoms: C_8  and  O_11
REMARK    4  A    between atoms: O_11  and  C_12
REMARK    5  A    between atoms: C_12  and  C_14
REMARK    6  A    between atoms: C_14  and  S_15
REMARK    7  A    between atoms: S_15  and  C_16
REMARK    8  A    between atoms: C_20  and  N_22
REMARK    9  A    between atoms: C_24  and  C_25
REMARK   10  A    between atoms: C_24  and  C_26
REMARK                            x       y       z     vdW  Elec       q    Type
REMARK                         _______ _______ _______ _____ _____    ______ ____
ROOT
ATOM      1  C   UNL     1      -3.562  -2.539   1.765  0.00  0.00    +0.197 C 
ENDROOT
BRANCH   1   2
ATOM      2  C   UNL     1      -3.510  -1.033   1.741  0.00  0.00    +0.318 C 
ATOM      3  O   UNL     1      -4.444  -0.390   2.158  0.00  0.00    -0.250 OA
BRANCH   2   4
ATOM      4  O   UNL     1      -2.427  -0.406   1.256  0.00  0.00    -0.460 OA
BRANCH   4  10
ATOM      5  C   UNL     1      -2.167  -0.467  -1.229  0.00  0.00    +0.007 C 
ATOM      6  C   UNL     1      -2.188   1.063  -1.221  0.00  0.00    -0.011 C 
ATOM      7  C   UNL     1      -0.760   1.592  -1.069  0.00  0.00    +0.004 C 
ATOM      8  C   UNL     1      -0.165   1.082   0.246  0.00  0.00    +0.007 C 
ATOM      9  C   UNL     1      -1.019   1.575   1.416  0.00  0.00    +0.032 C 
ATOM     10  C   UNL     1      -2.446   1.046   1.264  0.00  0.00    +0.180 C 
ATOM     11  C   UNL     1      -3.041   1.555  -0.050  0.00  0.00    +0.048 C 
BRANCH   9  12
ATOM     12  C   UNL     1      -0.423   1.065   2.731  0.00  0.00    -0.011 C 
ATOM     13  C   UNL     1       1.004   1.594   2.883  0.00  0.00    +0.007 C 
ATOM     14  C   UNL     1      -1.277   1.557   3.901  0.00  0.00    +0.007 C 
ENDBRANCH   9  12
ENDBRANCH   4  10
ENDBRANCH   2   4
ENDBRANCH   1   2
BRANCH   1  15
ATOM     15  S   UNL     1      -5.140  -3.077   2.470  0.00  0.00    -0.075 S 
BRANCH  15  16
ATOM     16  C   UNL     1      -4.934  -4.825   2.379  0.00  0.00    +0.192 A 
ATOM     17  N   UNL     1      -3.814  -5.318   1.873  0.00  0.00    -0.207 NA
ATOM     18  C   UNL     1      -3.622  -6.632   1.794  0.00  0.00    +0.122 A 
ATOM     19  C   UNL     1      -4.622  -7.491   2.241  0.00  0.00    +0.086 A 
ATOM     20  C   UNL     1      -5.787  -6.937   2.761  0.00  0.00    +0.122 A 
ATOM     21  N   UNL     1      -5.907  -5.612   2.814  0.00  0.00    -0.207 NA
ATOM     22  N   UNL     1      -2.444  -7.140   1.267  0.00  0.00    -0.343 N 
ATOM     23  H   UNL     1      -2.312  -8.099   1.209  0.00  0.00    +0.144 HD
ATOM     24  H   UNL     1      -1.751  -6.536   0.958  0.00  0.00    +0.144 HD
BRANCH  20  25
ATOM     25  N   UNL     1      -6.810  -7.753   3.218  0.00  0.00    -0.343 N 
ATOM     26  H   UNL     1      -7.620  -7.360   3.579  0.00  0.00    +0.144 HD
ATOM     27  H   UNL     1      -6.716  -8.718   3.176  0.00  0.00    +0.144 HD
ENDBRANCH  20  25
ENDBRANCH  15  16
ENDBRANCH   1  15
TORSDOF 7
