REMARK  Name = ZINC09691217
REMARK  7 active torsions:
REMARK  status: ('A' for Active; 'I' for Inactive)
REMARK    1  A    between atoms: C_2  and  C_3
REMARK    2  A    between atoms: C_3  and  N_4
REMARK    3  A    between atoms: C_10  and  C_15
REMARK    4  A    between atoms: C_15  and  O_17
REMARK    5  A    between atoms: O_17  and  C_18
REMARK    6  A    between atoms: C_18  and  C_19
REMARK    7  A    between atoms: N_21  and  C_22
REMARK                            x       y       z     vdW  Elec       q    Type
REMARK                         _______ _______ _______ _____ _____    ______ ____
ROOT
ATOM      1  C   UNL     1      -1.330   1.945   0.012  0.00  0.00    +0.328 C 
ENDROOT
BRANCH   1   2
ATOM      2  C   UNL     1      -0.014   1.209   0.011  0.00  0.00    +0.255 C 
ATOM      3  O   UNL     1       0.002  -0.004   0.013  0.00  0.00    -0.272 OA
ATOM      4  N   UNL     1       1.143   1.898   0.001  0.00  0.00    -0.283 N 
ATOM      5  H   UNL     1       1.131   2.866  -0.068  0.00  0.00    +0.155 HD
BRANCH   4   6
ATOM      6  C   UNL     1       2.365   1.218   0.092  0.00  0.00    +0.037 A 
ATOM      7  C   UNL     1       3.429   1.790   0.776  0.00  0.00    +0.027 A 
ATOM      8  C   UNL     1       4.633   1.118   0.872  0.00  0.00    +0.051 A 
ATOM      9  C   UNL     1       4.784  -0.121   0.275  0.00  0.00    +0.167 A 
ATOM     10  C   UNL     1       3.719  -0.696  -0.418  0.00  0.00    +0.169 A 
ATOM     11  C   UNL     1       2.513  -0.026  -0.508  0.00  0.00    +0.073 A 
ATOM     12  O   UNL     1       4.128  -1.909  -0.907  0.00  0.00    -0.447 OA
ATOM     13  C   UNL     1       5.251  -2.251  -0.082  0.00  0.00    +0.254 C 
ATOM     14  O   UNL     1       5.851  -0.981   0.214  0.00  0.00    -0.448 OA
ATOM     15  C   UNL     1       6.229  -3.167  -0.825  0.00  0.00    +0.093 C 
ATOM     16  C   UNL     1       6.778  -4.103   0.283  0.00  0.00    +0.008 C 
ATOM     17  C   UNL     1       5.539  -4.338   1.184  0.00  0.00    +0.008 C 
ATOM     18  C   UNL     1       4.812  -2.974   1.191  0.00  0.00    +0.093 C 
ENDBRANCH   4   6
ENDBRANCH   1   2
BRANCH   1  19
ATOM     19  O   UNL     1      -2.420   0.986   0.016  0.00  0.00    -0.452 OA
BRANCH  19  20
ATOM     20  C   UNL     1      -3.672   1.484   0.018  0.00  0.00    +0.340 C 
ATOM     21  O   UNL     1      -3.847   2.686   0.016  0.00  0.00    -0.245 OA
BRANCH  20  28
ATOM     22  N   UNL     1      -9.266  -0.802   0.034  0.00  0.00    -0.230 N 
ATOM     23  C   UNL     1      -8.348  -1.785   0.034  0.00  0.00    +0.254 C 
ATOM     24  O   UNL     1      -8.585  -2.976   0.036  0.00  0.00    -0.270 OA
ATOM     25  C   UNL     1      -7.000  -1.172   0.029  0.00  0.00    +0.049 A 
ATOM     26  C   UNL     1      -5.710  -1.678   0.026  0.00  0.00    +0.014 A 
ATOM     27  C   UNL     1      -4.629  -0.813   0.018  0.00  0.00    +0.016 A 
ATOM     28  C   UNL     1      -4.833   0.568   0.022  0.00  0.00    +0.060 A 
ATOM     29  C   UNL     1      -6.131   1.086   0.024  0.00  0.00    +0.028 A 
ATOM     30  C   UNL     1      -7.213   0.222   0.027  0.00  0.00    +0.050 A 
ATOM     31  C   UNL     1      -8.679   0.408   0.031  0.00  0.00    +0.254 C 
ATOM     32  O   UNL     1      -9.258   1.476   0.031  0.00  0.00    -0.270 OA
BRANCH  22  33
ATOM     33  C   UNL     1     -10.714  -1.021   0.038  0.00  0.00    +0.143 C 
BRANCH  33  35
ATOM     34  C   UNL     1     -11.899  -2.142  -1.779  0.00  0.00    +0.005 C 
ATOM     35  C   UNL     1     -11.214  -1.098  -1.382  0.00  0.00    -0.015 C 
ENDBRANCH  33  35
ENDBRANCH  22  33
ENDBRANCH  20  28
ENDBRANCH  19  20
ENDBRANCH   1  19
TORSDOF 7
