REMARK  Name = ZINC27575197
REMARK  9 active torsions:
REMARK  status: ('A' for Active; 'I' for Inactive)
REMARK    1  A    between atoms: C_1  and  C_2
REMARK    2  A    between atoms: N_5  and  C_8
REMARK    3  A    between atoms: C_8  and  C_10
REMARK    4  A    between atoms: C_8  and  C_28
REMARK    5  A    between atoms: C_10  and  N_11
REMARK    6  A    between atoms: C_12  and  C_14
REMARK    7  A    between atoms: C_14  and  C_15
REMARK    8  A    between atoms: C_15  and  C_16
REMARK    9  A    between atoms: C_19  and  C_21
REMARK                            x       y       z     vdW  Elec       q    Type
REMARK                         _______ _______ _______ _____ _____    ______ ____
ROOT
ATOM      1  N   UNL     1      -2.545   3.705  -1.497  0.00  0.00    -0.317 N 
ATOM      2  C   UNL     1      -2.971   4.175  -2.686  0.00  0.00    +0.213 C 
ATOM      3  O   UNL     1      -2.417   3.828  -3.708  0.00  0.00    -0.276 OA
ATOM      4  H   UNL     1      -3.047   4.019  -0.570  0.00  0.00    +0.149 HD
ENDROOT
BRANCH   1   5
ATOM      5  C   UNL     1      -1.414   2.776  -1.439  0.00  0.00    +0.094 C 
BRANCH   5   6
ATOM      6  C   UNL     1      -1.210   2.310   0.004  0.00  0.00    -0.013 C 
BRANCH   6  11
ATOM      7  C   UNL     1      -5.637  -0.652   2.078  0.00  0.00    +0.007 C 
ATOM      8  C   UNL     1      -4.252  -0.262   1.559  0.00  0.00    -0.018 C 
ATOM      9  C   UNL     1      -3.659   0.831   2.453  0.00  0.00    -0.015 C 
ATOM     10  C   UNL     1      -2.301   1.260   1.893  0.00  0.00    -0.078 C 
ATOM     11  N   UNL     1      -2.470   1.761   0.523  0.00  0.00    +0.386 N 
ATOM     12  C   UNL     1      -2.994   0.714  -0.364  0.00  0.00    -0.078 C 
ATOM     13  C   UNL     1      -4.373   0.269   0.128  0.00  0.00    -0.015 C 
ATOM     14  H   UNL     1      -3.209   2.575   0.553  0.00  0.00    -0.081 HD
ENDBRANCH   6  11
BRANCH   6  15
ATOM     15  C   UNL     1      -0.784   3.478   0.855  0.00  0.00    -0.022 A 
ATOM     16  C   UNL     1       0.459   3.820   1.274  0.00  0.00    +0.009 A 
ATOM     17  C   UNL     1       0.617   4.952   2.052  0.00  0.00    +0.008 A 
ATOM     18  C   UNL     1      -0.476   5.687   2.372  0.00  0.00    +0.045 A 
ATOM     19  S   UNL     1      -1.783   4.777   1.564  0.00  0.00    -0.103 S 
ENDBRANCH   6  15
ENDBRANCH   5   6
ENDBRANCH   1   5
BRANCH   2  20
ATOM     20  C   UNL     1      -4.135   5.130  -2.746  0.00  0.00    +0.105 C 
BRANCH  20  21
ATOM     21  C   UNL     1      -4.412   5.506  -4.203  0.00  0.00    +0.105 C 
BRANCH  21  22
ATOM     22  C   UNL     1      -5.575   6.462  -4.263  0.00  0.00    +0.197 A 
ATOM     23  N   UNL     1      -5.490   7.761  -4.210  0.00  0.00    -0.221 NA
ATOM     24  C   UNL     1      -6.725   8.281  -4.292  0.00  0.00    +0.161 A 
ATOM     25  C   UNL     1      -7.597   7.246  -4.400  0.00  0.00    +0.158 A 
ATOM     26  O   UNL     1      -6.863   6.112  -4.386  0.00  0.00    -0.440 OA
BRANCH  25  27
ATOM     27  C   UNL     1      -9.068   7.343  -4.517  0.00  0.00    +0.054 A 
ATOM     28  C   UNL     1      -9.792   8.129  -3.620  0.00  0.00    +0.014 A 
ATOM     29  C   UNL     1     -11.164   8.214  -3.735  0.00  0.00    +0.001 A 
ATOM     30  C   UNL     1     -11.824   7.524  -4.736  0.00  0.00    +0.003 A 
ATOM     31  C   UNL     1     -11.114   6.742  -5.629  0.00  0.00    +0.039 A 
ATOM     32  C   UNL     1      -9.738   6.652  -5.530  0.00  0.00    +0.134 A 
ATOM     33  F   UNL     1      -9.044   5.893  -6.407  0.00  0.00    -0.205 F 
ENDBRANCH  25  27
ENDBRANCH  21  22
ENDBRANCH  20  21
ENDBRANCH   2  20
TORSDOF 8
