REMARK  Name = ZINC20179460
REMARK  13 active torsions:
REMARK  status: ('A' for Active; 'I' for Inactive)
REMARK    1  A    between atoms: C_1  and  C_2
REMARK    2  A    between atoms: C_2  and  C_3
REMARK    3  A    between atoms: C_3  and  C_4
REMARK    4  A    between atoms: C_4  and  N_5
REMARK    5  A    between atoms: N_5  and  C_6
REMARK    6  A    between atoms: N_5  and  C_7
REMARK    7  A    between atoms: C_7  and  C_8
REMARK    8  A    between atoms: C_8  and  C_9
REMARK    9  A    between atoms: C_9  and  N_10
REMARK   10  A    between atoms: C_11  and  C_13
REMARK   11  A    between atoms: C_16  and  C_19
REMARK   12  A    between atoms: N_23  and  C_31
REMARK   13  A    between atoms: C_31  and  C_32
REMARK                            x       y       z     vdW  Elec       q    Type
REMARK                         _______ _______ _______ _____ _____    ______ ____
ROOT
ATOM      1  C   UNL     1      -0.140   0.391   0.683  0.00  0.00    +0.037 A 
ATOM      2  C   UNL     1       0.006   1.780   0.754  0.00  0.00    +0.013 A 
ATOM      3  C   UNL     1       1.225   2.352   0.526  0.00  0.00    +0.009 A 
ATOM      4  C   UNL     1       2.330   1.546   0.222  0.00  0.00    -0.024 A 
ATOM      5  C   UNL     1       2.182   0.154   0.151  0.00  0.00    +0.009 A 
ATOM      6  C   UNL     1       0.962  -0.415   0.379  0.00  0.00    +0.013 A 
ENDROOT
BRANCH   4   7
ATOM      7  C   UNL     1       3.641   2.158  -0.023  0.00  0.00    +0.028 C 
ATOM      8  C   UNL     1       3.725   3.336  -0.691  0.00  0.00    +0.076 C 
ATOM      9  C   UNL     1       5.002   4.079  -0.815  0.00  0.00    +0.258 C 
ATOM     10  O   UNL     1       5.858   3.954   0.040  0.00  0.00    -0.269 OA
ATOM     11  N   UNL     1       5.218   4.881  -1.863  0.00  0.00    -0.262 N 
ATOM     12  C   UNL     1       4.384   5.060  -2.958  0.00  0.00    +0.051 A 
ATOM     13  C   UNL     1       4.929   5.581  -4.132  0.00  0.00    +0.024 A 
ATOM     14  C   UNL     1       4.139   5.771  -5.245  0.00  0.00    +0.002 A 
ATOM     15  C   UNL     1       2.793   5.449  -5.216  0.00  0.00    +0.001 A 
ATOM     16  C   UNL     1       2.236   4.934  -4.061  0.00  0.00    +0.017 A 
ATOM     17  C   UNL     1       3.025   4.740  -2.938  0.00  0.00    +0.034 A 
ATOM     18  S   UNL     1       2.312   4.082  -1.461  0.00  0.00    -0.082 S 
BRANCH  11  19
ATOM     19  C   UNL     1       6.463   5.654  -1.852  0.00  0.00    +0.152 C 
BRANCH  19  20
ATOM     20  C   UNL     1       6.259   6.923  -1.064  0.00  0.00    +0.005 A 
ATOM     21  C   UNL     1       6.789   7.040   0.207  0.00  0.00    +0.008 A 
ATOM     22  C   UNL     1       6.602   8.203   0.930  0.00  0.00    +0.000 A 
ATOM     23  C   UNL     1       5.886   9.251   0.382  0.00  0.00    +0.003 A 
ATOM     24  C   UNL     1       5.355   9.136  -0.889  0.00  0.00    +0.038 A 
ATOM     25  C   UNL     1       5.545   7.973  -1.615  0.00  0.00    +0.128 A 
ATOM     26  F   UNL     1       5.031   7.861  -2.860  0.00  0.00    -0.205 F 
ENDBRANCH  19  20
ENDBRANCH  11  19
ENDBRANCH   4   7
BRANCH   1  28
ATOM     27  N   UNL     1      -1.600  -1.563   0.861  0.00  0.00    -0.311 N 
ATOM     28  C   UNL     1      -1.458  -0.225   0.929  0.00  0.00    +0.244 C 
ATOM     29  O   UNL     1      -2.417   0.475   1.193  0.00  0.00    -0.270 OA
ATOM     30  H   UNL     1      -0.733  -2.197   0.621  0.00  0.00    +0.149 HD
BRANCH  27  31
ATOM     31  C   UNL     1      -2.909  -2.175   1.105  0.00  0.00    +0.102 C 
BRANCH  31  32
ATOM     32  C   UNL     1      -2.795  -3.695   0.967  0.00  0.00    +0.000 C 
BRANCH  32  33
ATOM     33  C   UNL     1      -4.162  -4.333   1.222  0.00  0.00    -0.078 C 
BRANCH  33  34
ATOM     34  N   UNL     1      -4.053  -5.792   1.089  0.00  0.00    +0.378 N 
ATOM     35  C   UNL     1      -3.201  -6.355   2.146  0.00  0.00    -0.096 C 
ATOM     36  H   UNL     1      -3.578  -6.009   0.121  0.00  0.00    -0.082 HD
BRANCH  34  37
ATOM     37  C   UNL     1      -5.380  -6.422   1.091  0.00  0.00    -0.079 C 
BRANCH  37  38
ATOM     38  C   UNL     1      -5.246  -7.896   0.705  0.00  0.00    -0.019 C 
BRANCH  38  40
ATOM     39  C   UNL     1      -6.495 -10.026   0.320  0.00  0.00    +0.004 C 
ATOM     40  C   UNL     1      -6.629  -8.552   0.707  0.00  0.00    -0.005 C 
ENDBRANCH  38  40
ENDBRANCH  37  38
ENDBRANCH  34  37
ENDBRANCH  33  34
ENDBRANCH  32  33
ENDBRANCH  31  32
ENDBRANCH  27  31
ENDBRANCH   1  28
TORSDOF 11
