REMARK  Name = ZINC35175673
REMARK  16 active torsions:
REMARK  status: ('A' for Active; 'I' for Inactive)
REMARK    1  A    between atoms: C_1  and  C_2
REMARK    2  A    between atoms: C_3  and  C_35
REMARK    3  A    between atoms: C_4  and  C_14
REMARK    4  A    between atoms: C_6  and  C_8
REMARK    5  A    between atoms: C_20  and  C_23
REMARK    6  A    between atoms: C_24  and  C_26
REMARK    7  A    between atoms: C_26  and  C_27
REMARK    8  A    between atoms: C_27  and  C_29
REMARK    9  A    between atoms: C_27  and  C_30
REMARK   10  A    between atoms: C_30  and  C_31
REMARK   11  A    between atoms: C_31  and  C_32
REMARK   12  A    between atoms: C_31  and  C_33
REMARK   13  A    between atoms: C_31  and  C_34
REMARK   14  A    between atoms: C_35  and  O_37
REMARK   15  A    between atoms: O_37  and  C_38
REMARK   16  A    between atoms: C_38  and  C_39
REMARK                            x       y       z     vdW  Elec       q    Type
REMARK                         _______ _______ _______ _____ _____    ______ ____
ROOT
ATOM      1  C   UNL     1       0.959   2.069   0.587  0.00  0.00    +0.066 C 
ATOM      2  C   UNL     1       0.569   0.631   0.362  0.00  0.00    +0.057 A 
ATOM      3  C   UNL     1       1.045  -0.068  -0.755  0.00  0.00    +0.110 A 
ATOM      4  C   UNL     1       0.649  -1.410  -0.918  0.00  0.00    +0.144 A 
ATOM      5  N   UNL     1      -0.153  -1.956  -0.013  0.00  0.00    -0.222 NA
ATOM      6  C   UNL     1      -0.578  -1.254   1.028  0.00  0.00    +0.161 A 
ATOM      7  N   UNL     1      -0.221   0.011   1.217  0.00  0.00    -0.232 NA
ENDROOT
BRANCH   4   8
ATOM      8  C   UNL     1       1.122  -2.201  -2.084  0.00  0.00    +0.266 C 
ATOM      9  O   UNL     1       1.336  -1.651  -3.145  0.00  0.00    -0.268 OA
ATOM     10  N   UNL     1       1.314  -3.530  -1.964  0.00  0.00    -0.293 N 
ATOM     11  C   UNL     1       0.848  -4.248  -0.768  0.00  0.00    +0.127 C 
ATOM     12  C   UNL     1       2.036  -4.998  -0.154  0.00  0.00    +0.127 C 
ATOM     13  N   UNL     1       2.714  -5.755  -1.216  0.00  0.00    -0.296 N 
ATOM     14  C   UNL     1       3.179  -5.038  -2.411  0.00  0.00    +0.090 C 
ATOM     15  C   UNL     1       1.986  -4.288  -3.028  0.00  0.00    +0.130 C 
ATOM     16  C   UNL     1       4.272  -4.042  -2.019  0.00  0.00    +0.029 C 
ATOM     17  C   UNL     1       2.905  -7.084  -1.095  0.00  0.00    +0.216 C 
ATOM     18  O   UNL     1       3.466  -7.698  -1.978  0.00  0.00    -0.276 OA
BRANCH  17  19
ATOM     19  C   UNL     1       2.423  -7.806   0.136  0.00  0.00    +0.099 C 
BRANCH  19  20
ATOM     20  C   UNL     1       2.763  -9.294   0.021  0.00  0.00    -0.005 C 
ATOM     21  C   UNL     1       4.283  -9.471   0.017  0.00  0.00    +0.008 C 
BRANCH  20  22
ATOM     22  C   UNL     1       2.165 -10.047   1.211  0.00  0.00    +0.010 C 
BRANCH  22  23
ATOM     23  C   UNL     1       2.132 -11.545   0.901  0.00  0.00    -0.037 C 
ATOM     24  C   UNL     1       3.535 -12.018   0.516  0.00  0.00    +0.010 C 
ATOM     25  C   UNL     1       1.657 -12.311   2.138  0.00  0.00    +0.010 C 
ATOM     26  C   UNL     1       1.170 -11.805  -0.260  0.00  0.00    +0.010 C 
ENDBRANCH  22  23
ENDBRANCH  20  22
ENDBRANCH  19  20
ENDBRANCH  17  19
ENDBRANCH   4   8
BRANCH   6  27
ATOM     27  C   UNL     1      -1.473  -1.903   2.014  0.00  0.00    +0.019 A 
ATOM     28  C   UNL     1      -1.853  -3.234   1.845  0.00  0.00    +0.011 A 
ATOM     29  C   UNL     1      -2.687  -3.833   2.766  0.00  0.00    +0.001 A 
ATOM     30  C   UNL     1      -3.146  -3.116   3.857  0.00  0.00    +0.000 A 
ATOM     31  C   UNL     1      -2.772  -1.796   4.030  0.00  0.00    +0.001 A 
ATOM     32  C   UNL     1      -1.934  -1.187   3.119  0.00  0.00    +0.011 A 
ENDBRANCH   6  27
BRANCH   3  33
ATOM     33  C   UNL     1       1.936   0.584  -1.735  0.00  0.00    +0.343 C 
ATOM     34  O   UNL     1       3.141   0.539  -1.585  0.00  0.00    -0.245 OA
BRANCH  33  35
ATOM     35  O   UNL     1       1.413   1.230  -2.796  0.00  0.00    -0.457 OA
BRANCH  35  36
ATOM     36  C   UNL     1       2.334   1.838  -3.704  0.00  0.00    +0.259 C 
BRANCH  36  37
ATOM     37  C   UNL     1       1.573   2.508  -4.818  0.00  0.00    +0.006 C 
ATOM     38  C   UNL     1       1.906   3.714  -5.207  0.00  0.00    +0.007 C 
ENDBRANCH  36  37
ENDBRANCH  35  36
ENDBRANCH  33  35
ENDBRANCH   3  33
TORSDOF 10
