REMARK  Name = ZINC06443894
REMARK  12 active torsions:
REMARK  status: ('A' for Active; 'I' for Inactive)
REMARK    1  A    between atoms: C_1  and  C_2
REMARK    2  A    between atoms: C_12  and  C_14
REMARK    3  A    between atoms: C_14  and  C_16
REMARK    4  A    between atoms: C_14  and  N_69
REMARK    5  A    between atoms: N_20  and  C_21
REMARK    6  A    between atoms: C_21  and  C_22
REMARK    7  A    between atoms: C_21  and  C_23
REMARK    8  A    between atoms: C_21  and  C_24
REMARK    9  A    between atoms: C_25  and  C_26
REMARK   10  A    between atoms: C_25  and  N_69
REMARK   11  A    between atoms: C_32  and  C_33
REMARK   12  A    between atoms: C_32  and  N_69
REMARK                            x       y       z     vdW  Elec       q    Type
REMARK                         _______ _______ _______ _____ _____    ______ ____
ROOT
ATOM      1  C   UNL     1       2.199  -4.131  -1.524  0.00  0.00    +0.040 C 
ENDROOT
BRANCH   1  13
ATOM      2  C   UNL     1       0.233  -6.333  -7.397  0.00  0.00    +0.046 C 
ATOM      3  C   UNL     1       1.592  -6.311  -6.746  0.00  0.00    -0.026 A 
ATOM      4  C   UNL     1       2.687  -6.817  -7.414  0.00  0.00    +0.005 A 
ATOM      5  C   UNL     1       3.944  -6.803  -6.825  0.00  0.00    +0.001 A 
ATOM      6  C   UNL     1       4.119  -6.286  -5.572  0.00  0.00    +0.010 A 
ATOM      7  C   UNL     1       3.023  -5.768  -4.876  0.00  0.00    -0.001 A 
ATOM      8  C   UNL     1       1.746  -5.780  -5.470  0.00  0.00    +0.052 A 
ATOM      9  N   UNL     1       0.669  -5.267  -4.780  0.00  0.00    -0.322 N 
ATOM     10  H   UNL     1      -0.210  -5.277  -5.190  0.00  0.00    +0.169 HD
ATOM     11  C   UNL     1       0.819  -4.753  -3.546  0.00  0.00    +0.251 A 
ATOM     12  O   UNL     1      -0.156  -4.309  -2.966  0.00  0.00    -0.268 OA
ATOM     13  C   UNL     1       2.076  -4.717  -2.907  0.00  0.00    +0.011 A 
ATOM     14  C   UNL     1       3.176  -5.202  -3.535  0.00  0.00    +0.017 A 
ENDBRANCH   1  13
BRANCH   1  15
ATOM     15  C   UNL     1       1.393  -4.959  -0.555  0.00  0.00    +0.143 A 
ATOM     16  N   UNL     1       0.094  -4.924  -0.389  0.00  0.00    -0.115 NA
ATOM     17  N   UNL     1      -0.213  -5.778   0.526  0.00  0.00    -0.023 NA
ATOM     18  N   UNL     1       0.858  -6.350   0.953  0.00  0.00    -0.043 NA
ATOM     19  N   UNL     1       1.869  -5.872   0.311  0.00  0.00    -0.225 N 
BRANCH  19  20
ATOM     20  C   UNL     1       3.273  -6.252   0.491  0.00  0.00    +0.059 C 
ATOM     21  C   UNL     1       4.061  -5.056   1.028  0.00  0.00    +0.036 C 
ATOM     22  C   UNL     1       3.364  -7.411   1.486  0.00  0.00    +0.036 C 
ATOM     23  C   UNL     1       3.860  -6.687  -0.854  0.00  0.00    +0.036 C 
ENDBRANCH  19  20
ENDBRANCH   1  15
BRANCH   1  24
ATOM     24  N   UNL     1       1.664  -2.754  -1.534  0.00  0.00    +0.395 N 
ATOM     25  H   UNL     1       0.657  -2.788  -1.732  0.00  0.00    -0.079 HD
BRANCH  24  26
ATOM     26  C   UNL     1       1.873  -2.120  -0.215  0.00  0.00    -0.041 C 
BRANCH  26  27
ATOM     27  C   UNL     1       0.742  -2.521   0.695  0.00  0.00    -0.064 A 
ATOM     28  C   UNL     1      -0.468  -1.857   0.628  0.00  0.00    +0.002 A 
ATOM     29  C   UNL     1      -1.508  -2.228   1.460  0.00  0.00    +0.000 A 
ATOM     30  C   UNL     1      -1.334  -3.256   2.367  0.00  0.00    +0.000 A 
ATOM     31  C   UNL     1      -0.122  -3.917   2.438  0.00  0.00    +0.000 A 
ATOM     32  C   UNL     1       0.916  -3.550   1.602  0.00  0.00    +0.002 A 
ENDBRANCH  26  27
ENDBRANCH  24  26
BRANCH  24  33
ATOM     33  C   UNL     1       2.333  -1.961  -2.587  0.00  0.00    -0.041 C 
BRANCH  33  34
ATOM     34  C   UNL     1       1.623  -0.638  -2.725  0.00  0.00    -0.064 A 
ATOM     35  C   UNL     1       2.037   0.449  -1.980  0.00  0.00    +0.003 A 
ATOM     36  C   UNL     1       1.387   1.662  -2.106  0.00  0.00    +0.020 A 
ATOM     37  C   UNL     1       0.320   1.787  -2.978  0.00  0.00    +0.041 A 
ATOM     38  C   UNL     1      -0.094   0.698  -3.724  0.00  0.00    +0.020 A 
ATOM     39  C   UNL     1       0.557  -0.514  -3.597  0.00  0.00    +0.003 A 
ATOM     40 CL   UNL     1      -0.498   3.310  -3.137  0.00  0.00    -0.084 Cl
ENDBRANCH  33  34
ENDBRANCH  24  33
ENDBRANCH   1  24
TORSDOF 8
