REMARK  Name = ZINC22617154
REMARK  13 active torsions:
REMARK  status: ('A' for Active; 'I' for Inactive)
REMARK    1  A    between atoms: C_1  and  C_2
REMARK    2  A    between atoms: C_5  and  S_8
REMARK    3  A    between atoms: S_8  and  N_11
REMARK    4  A    between atoms: N_11  and  C_12
REMARK    5  A    between atoms: N_11  and  C_13
REMARK    6  A    between atoms: C_13  and  C_14
REMARK    7  A    between atoms: N_16  and  N_17
REMARK    8  A    between atoms: C_18  and  C_20
REMARK    9  A    between atoms: C_20  and  C_22
REMARK   10  A    between atoms: C_20  and  N_25
REMARK   11  A    between atoms: C_22  and  C_23
REMARK   12  A    between atoms: C_22  and  C_24
REMARK   13  A    between atoms: C_26  and  C_28
REMARK                            x       y       z     vdW  Elec       q    Type
REMARK                         _______ _______ _______ _____ _____    ______ ____
ROOT
ATOM      1  N   UNL     1       1.388   3.934  -5.086  0.00  0.00    -0.233 N 
ATOM      2  C   UNL     1       1.883   5.113  -5.514  0.00  0.00    +0.250 C 
ATOM      3  O   UNL     1       1.454   6.152  -5.058  0.00  0.00    -0.272 OA
ATOM      4  H   UNL     1       1.721   2.996  -5.554  0.00  0.00    +0.173 HD
ENDROOT
BRANCH   1   7
ATOM      5  C   UNL     1      -0.045   2.726  -3.619  0.00  0.00    +0.245 C 
ATOM      6  O   UNL     1       0.323   1.691  -4.134  0.00  0.00    -0.273 OA
ATOM      7  N   UNL     1       0.450   3.904  -4.046  0.00  0.00    -0.233 N 
ATOM      8  H   UNL     1       0.117   4.843  -3.579  0.00  0.00    +0.173 HD
BRANCH   5   9
ATOM      9  C   UNL     1      -1.054   2.693  -2.501  0.00  0.00    +0.206 C 
BRANCH   9  10
ATOM     10  N   UNL     1      -1.432   1.305  -2.224  0.00  0.00    -0.171 NA
ATOM     11  C   UNL     1      -2.490   0.664  -3.009  0.00  0.00    +0.132 C 
BRANCH  10  12
ATOM     12  S   UNL     1      -0.664   0.461  -1.024  0.00  0.00    +0.061 S 
ATOM     13  O   UNL     1      -0.805  -0.916  -1.343  0.00  0.00    -0.153 OA
ATOM     14  O   UNL     1       0.605   1.075  -0.844  0.00  0.00    -0.153 OA
BRANCH  12  19
ATOM     15  C   UNL     1      -3.764   1.379   4.070  0.00  0.00    +0.044 C 
ATOM     16  C   UNL     1      -2.990   1.149   2.798  0.00  0.00    -0.050 A 
ATOM     17  C   UNL     1      -3.312   0.087   1.974  0.00  0.00    +0.005 A 
ATOM     18  C   UNL     1      -2.602  -0.123   0.807  0.00  0.00    +0.029 A 
ATOM     19  C   UNL     1      -1.569   0.729   0.463  0.00  0.00    +0.105 A 
ATOM     20  C   UNL     1      -1.244   1.788   1.290  0.00  0.00    +0.029 A 
ATOM     21  C   UNL     1      -1.957   2.001   2.454  0.00  0.00    +0.005 A 
ENDBRANCH  12  19
ENDBRANCH  10  12
ENDBRANCH   9  10
ENDBRANCH   5   9
ENDBRANCH   1   7
BRANCH   2  22
ATOM     22  C   UNL     1       2.968   5.140  -6.559  0.00  0.00    +0.163 C 
BRANCH  22  23
ATOM     23  N   UNL     1       2.882   6.388  -7.321  0.00  0.00    -0.300 N 
ATOM     24  C   UNL     1       3.368   6.447  -8.576  0.00  0.00    +0.250 C 
ATOM     25  O   UNL     1       3.879   5.463  -9.077  0.00  0.00    -0.270 OA
ATOM     26  H   UNL     1       2.420   7.278  -6.868  0.00  0.00    +0.150 HD
BRANCH  24  27
ATOM     27  C   UNL     1       3.281   7.704  -9.344  0.00  0.00    +0.107 A 
ATOM     28  C   UNL     1       4.314   8.645  -9.272  0.00  0.00    +0.138 A 
ATOM     29  C   UNL     1       4.226   9.818  -9.998  0.00  0.00    +0.039 A 
ATOM     30  C   UNL     1       3.117  10.067 -10.785  0.00  0.00    +0.006 A 
ATOM     31  C   UNL     1       2.088   9.145 -10.857  0.00  0.00    +0.039 A 
ATOM     32  C   UNL     1       2.162   7.964 -10.142  0.00  0.00    +0.138 A 
ATOM     33  F   UNL     1       1.157   7.065 -10.214  0.00  0.00    -0.205 F 
ATOM     34  F   UNL     1       5.396   8.406  -8.499  0.00  0.00    -0.205 F 
ENDBRANCH  24  27
ENDBRANCH  22  23
BRANCH  22  35
ATOM     35  C   UNL     1       4.335   5.053  -5.877  0.00  0.00    +0.012 C 
ATOM     36  C   UNL     1       4.436   3.736  -5.104  0.00  0.00    +0.009 C 
ATOM     37  C   UNL     1       5.438   5.109  -6.935  0.00  0.00    +0.009 C 
ENDBRANCH  22  35
ENDBRANCH   2  22
TORSDOF 9
