REMARK  Name = ZINC15390783
REMARK  7 active torsions:
REMARK  status: ('A' for Active; 'I' for Inactive)
REMARK    1  A    between atoms: C_1  and  C_2
REMARK    2  A    between atoms: C_5  and  S_8
REMARK    3  A    between atoms: S_8  and  N_11
REMARK    4  A    between atoms: C_16  and  C_18
REMARK    5  A    between atoms: C_18  and  C_19
REMARK    6  A    between atoms: N_21  and  C_22
REMARK    7  A    between atoms: C_22  and  C_23
REMARK                            x       y       z     vdW  Elec       q    Type
REMARK                         _______ _______ _______ _____ _____    ______ ____
ROOT
ATOM      1  N   UNL     1      -0.305  -0.080  -5.095  0.00  0.00    -0.173 NA
ATOM      2  C   UNL     1       0.237  -0.649  -6.336  0.00  0.00    +0.110 C 
ATOM      3  C   UNL     1      -0.368   0.099  -7.528  0.00  0.00    +0.017 C 
ATOM      4  C   UNL     1      -0.118   1.600  -7.363  0.00  0.00    +0.003 C 
ATOM      5  C   UNL     1      -0.800   2.095  -6.085  0.00  0.00    +0.021 C 
ATOM      6  C   UNL     1      -0.199   1.369  -4.877  0.00  0.00    +0.089 C 
ENDROOT
BRANCH   1   7
ATOM      7  S   UNL     1      -1.023  -1.053  -3.963  0.00  0.00    +0.061 S 
ATOM      8  O   UNL     1      -0.041  -1.996  -3.557  0.00  0.00    -0.153 OA
ATOM      9  O   UNL     1      -1.678  -0.191  -3.043  0.00  0.00    -0.153 OA
BRANCH   7  14
ATOM     10  C   UNL     1      -5.350  -4.174  -6.782  0.00  0.00    +0.044 C 
ATOM     11  C   UNL     1      -4.269  -3.395  -6.077  0.00  0.00    -0.050 A 
ATOM     12  C   UNL     1      -2.966  -3.855  -6.090  0.00  0.00    +0.005 A 
ATOM     13  C   UNL     1      -1.974  -3.140  -5.444  0.00  0.00    +0.029 A 
ATOM     14  C   UNL     1      -2.287  -1.965  -4.786  0.00  0.00    +0.106 A 
ATOM     15  C   UNL     1      -3.591  -1.508  -4.769  0.00  0.00    +0.029 A 
ATOM     16  C   UNL     1      -4.582  -2.221  -5.418  0.00  0.00    +0.005 A 
ENDBRANCH   7  14
ENDBRANCH   1   7
BRANCH   6  17
ATOM     17  C   UNL     1      -0.969   1.755  -3.612  0.00  0.00    +0.116 C 
BRANCH  17  18
ATOM     18  C   UNL     1      -0.230   1.248  -2.400  0.00  0.00    +0.215 C 
ATOM     19  O   UNL     1       0.763   0.565  -2.537  0.00  0.00    -0.276 OA
ATOM     20  N   UNL     1      -0.673   1.554  -1.164  0.00  0.00    -0.311 N 
ATOM     21  H   UNL     1      -1.466   2.100  -1.055  0.00  0.00    +0.149 HD
BRANCH  20  22
ATOM     22  C   UNL     1       0.045   1.061   0.014  0.00  0.00    +0.139 C 
BRANCH  22  23
ATOM     23  C   UNL     1      -0.649   1.540   1.262  0.00  0.00    -0.030 A 
ATOM     24  C   UNL     1      -0.285   2.743   1.837  0.00  0.00    +0.008 A 
ATOM     25  C   UNL     1      -0.924   3.186   2.979  0.00  0.00    +0.038 A 
ATOM     26  C   UNL     1      -1.923   2.419   3.554  0.00  0.00    +0.123 A 
ATOM     27  C   UNL     1      -2.284   1.211   2.981  0.00  0.00    +0.038 A 
ATOM     28  C   UNL     1      -1.646   0.773   1.835  0.00  0.00    +0.008 A 
ATOM     29  F   UNL     1      -2.546   2.849   4.673  0.00  0.00    -0.205 F 
ENDBRANCH  22  23
ENDBRANCH  20  22
ENDBRANCH  17  18
ENDBRANCH   6  17
TORSDOF 6
