REMARK  Name = ZINC63383791
REMARK  10 active torsions:
REMARK  status: ('A' for Active; 'I' for Inactive)
REMARK    1  A    between atoms: C_1  and  C_2
REMARK    2  A    between atoms: C_2  and  C_3
REMARK    3  A    between atoms: C_3  and  C_4
REMARK    4  A    between atoms: C_4  and  C_5
REMARK    5  A    between atoms: C_5  and  C_6
REMARK    6  A    between atoms: C_6  and  N_7
REMARK    7  A    between atoms: C_8  and  C_10
REMARK    8  A    between atoms: C_10  and  C_12
REMARK    9  A    between atoms: C_10  and  N_13
REMARK   10  A    between atoms: C_14  and  C_16
REMARK                            x       y       z     vdW  Elec       q    Type
REMARK                         _______ _______ _______ _____ _____    ______ ____
ROOT
ATOM      1  C   UNL     1      -6.857 -10.137  -0.480  0.00  0.00    +0.167 C 
ATOM      2  C   UNL     1      -5.759 -10.638  -1.439  0.00  0.00    +0.065 C 
ATOM      3  C   UNL     1      -6.434 -11.513  -2.464  0.00  0.00    -0.034 C 
ATOM      4  C   UNL     1      -6.380 -11.486  -3.793  0.00  0.00    -0.001 A 
ATOM      5  C   UNL     1      -5.580 -10.671  -4.722  0.00  0.00    +0.010 A 
ATOM      6  C   UNL     1      -5.788 -10.894  -6.046  0.00  0.00    +0.001 A 
ATOM      7  C   UNL     1      -6.703 -11.834  -6.534  0.00  0.00    +0.002 A 
ATOM      8  C   UNL     1      -7.475 -12.629  -5.752  0.00  0.00    +0.026 A 
ATOM      9  C   UNL     1      -7.338 -12.493  -4.340  0.00  0.00    +0.043 A 
ATOM     10  N   UNL     1      -7.927 -13.132  -3.372  0.00  0.00    -0.375 N 
ATOM     11  C   UNL     1      -7.378 -12.651  -2.103  0.00  0.00    +0.131 C 
ATOM     12  C   UNL     1      -8.461 -12.072  -1.193  0.00  0.00    +0.134 C 
ATOM     13  N   UNL     1      -8.148 -10.648  -0.959  0.00  0.00    -0.276 N 
ATOM     14  C   UNL     1      -9.231  -9.914  -1.274  0.00  0.00    +0.248 C 
ATOM     15  O   UNL     1      -9.342  -8.718  -1.083  0.00  0.00    -0.270 OA
ATOM     16  C   UNL     1     -10.256 -10.766  -1.880  0.00  0.00    +0.042 A 
ATOM     17  C   UNL     1      -9.804 -12.111  -1.844  0.00  0.00    -0.013 A 
ATOM     18  C   UNL     1     -10.553 -13.152  -2.345  0.00  0.00    +0.006 A 
ATOM     19  C   UNL     1     -11.793 -12.832  -2.891  0.00  0.00    +0.000 A 
ATOM     20  C   UNL     1     -12.258 -11.533  -2.929  0.00  0.00    +0.001 A 
ATOM     21  C   UNL     1     -11.503 -10.448  -2.425  0.00  0.00    +0.013 A 
ATOM     22  H   UNL     1      -8.613 -13.810  -3.474  0.00  0.00    +0.160 HD
ENDROOT
BRANCH   1  24
ATOM     23  N   UNL     1      -6.516  -7.957   0.639  0.00  0.00    -0.303 N 
ATOM     24  C   UNL     1      -6.877  -8.630  -0.472  0.00  0.00    +0.234 C 
ATOM     25  O   UNL     1      -7.219  -8.023  -1.465  0.00  0.00    -0.274 OA
ATOM     26  H   UNL     1      -6.243  -8.443   1.433  0.00  0.00    +0.149 HD
BRANCH  23  27
ATOM     27  C   UNL     1      -6.536  -6.493   0.647  0.00  0.00    +0.156 C 
ATOM     28  C   UNL     1      -7.945  -6.004   0.986  0.00  0.00    +0.038 C 
BRANCH  27  30
ATOM     29  N   UNL     1      -5.413  -4.657   1.866  0.00  0.00    -0.314 N 
ATOM     30  C   UNL     1      -5.564  -5.983   1.680  0.00  0.00    +0.233 C 
ATOM     31  O   UNL     1      -4.919  -6.766   2.344  0.00  0.00    -0.274 OA
ATOM     32  H   UNL     1      -5.929  -4.030   1.335  0.00  0.00    +0.149 HD
BRANCH  29  33
ATOM     33  C   UNL     1      -4.469  -4.161   2.871  0.00  0.00    +0.104 C 
BRANCH  33  34
ATOM     34  C   UNL     1      -4.490  -2.631   2.879  0.00  0.00    +0.019 C 
BRANCH  34  35
ATOM     35  C   UNL     1      -3.503  -2.113   3.928  0.00  0.00    +0.002 C 
BRANCH  35  36
ATOM     36  C   UNL     1      -3.524  -0.584   3.937  0.00  0.00    -0.000 C 
BRANCH  36  38
ATOM     37  C   UNL     1      -2.559   1.464   4.994  0.00  0.00    +0.004 C 
ATOM     38  C   UNL     1      -2.538  -0.066   4.986  0.00  0.00    -0.003 C 
ENDBRANCH  36  38
ENDBRANCH  35  36
ENDBRANCH  34  35
ENDBRANCH  33  34
ENDBRANCH  29  33
ENDBRANCH  27  30
ENDBRANCH  23  27
ENDBRANCH   1  24
TORSDOF 8
