REMARK  Name = ZINC46915394
REMARK  10 active torsions:
REMARK  status: ('A' for Active; 'I' for Inactive)
REMARK    1  A    between atoms: C_1  and  S_2
REMARK    2  A    between atoms: S_2  and  C_3
REMARK    3  A    between atoms: C_4  and  C_21
REMARK    4  A    between atoms: C_5  and  N_20
REMARK    5  A    between atoms: N_6  and  C_8
REMARK    6  A    between atoms: C_8  and  C_9
REMARK    7  A    between atoms: N_11  and  C_12
REMARK    8  A    between atoms: C_12  and  C_13
REMARK    9  A    between atoms: C_13  and  C_14
REMARK   10  A    between atoms: C_23  and  C_26
REMARK                            x       y       z     vdW  Elec       q    Type
REMARK                         _______ _______ _______ _____ _____    ______ ____
ROOT
ATOM      1  C   UNL     1      -1.702  -0.454   0.016  0.00  0.00    +0.133 A 
ATOM      2  C   UNL     1      -2.215  -1.776   0.019  0.00  0.00    +0.112 A 
ATOM      3  C   UNL     1      -3.602  -1.674   0.031  0.00  0.00    +0.129 A 
ATOM      4  N   UNL     1      -3.906  -0.360   0.034  0.00  0.00    -0.240 N 
ATOM      5  N   UNL     1      -2.716   0.374   0.030  0.00  0.00    -0.162 NA
ENDROOT
BRANCH   2   6
ATOM      6  C   UNL     1      -1.430  -3.019   0.012  0.00  0.00    +0.265 A 
ATOM      7  N   UNL     1      -0.116  -3.102   0.007  0.00  0.00    -0.187 NA
ATOM      8  C   UNL     1       0.259  -4.391   0.001  0.00  0.00    +0.202 A 
ATOM      9  N   UNL     1      -0.813  -5.145   0.003  0.00  0.00    -0.056 NA
ATOM     10  O   UNL     1      -1.929  -4.269   0.015  0.00  0.00    -0.332 OA
BRANCH   8  11
ATOM     11  C   UNL     1       1.660  -4.882  -0.006  0.00  0.00    +0.023 A 
ATOM     12  C   UNL     1       2.718  -3.975  -0.001  0.00  0.00    +0.013 A 
ATOM     13  C   UNL     1       4.019  -4.437  -0.007  0.00  0.00    +0.021 A 
ATOM     14  C   UNL     1       4.273  -5.798  -0.019  0.00  0.00    +0.041 A 
ATOM     15  C   UNL     1       3.224  -6.702  -0.024  0.00  0.00    +0.021 A 
ATOM     16  C   UNL     1       1.921  -6.250  -0.012  0.00  0.00    +0.013 A 
ATOM     17 CL   UNL     1       5.911  -6.372  -0.027  0.00  0.00    -0.084 Cl
ENDBRANCH   8  11
ENDBRANCH   2   6
BRANCH   3  18
ATOM     18  N   UNL     1      -4.502  -2.724   0.038  0.00  0.00    -0.343 N 
ATOM     19  H   UNL     1      -4.179  -3.639   0.035  0.00  0.00    +0.144 HD
ATOM     20  H   UNL     1      -5.455  -2.546   0.045  0.00  0.00    +0.144 HD
ENDBRANCH   3  18
BRANCH   1  22
ATOM     21  C   UNL     1      -0.022   1.810   0.012  0.00  0.00    +0.091 C 
ATOM     22  S   UNL     1       0.002  -0.004   0.002  0.00  0.00    -0.107 S 
ENDBRANCH   1  22
BRANCH   4  23
ATOM     23  C   UNL     1      -5.258   0.204   0.045  0.00  0.00    +0.241 C 
BRANCH  23  24
ATOM     24  C   UNL     1      -5.711   0.397   1.470  0.00  0.00    +0.235 C 
ATOM     25  O   UNL     1      -4.976   0.093   2.386  0.00  0.00    -0.274 OA
ATOM     26  N   UNL     1      -6.932   0.907   1.726  0.00  0.00    -0.313 N 
ATOM     27  H   UNL     1      -7.519   1.150   0.994  0.00  0.00    +0.149 HD
BRANCH  26  28
ATOM     28  C   UNL     1      -7.371   1.094   3.111  0.00  0.00    +0.108 C 
BRANCH  28  29
ATOM     29  C   UNL     1      -8.783   1.683   3.123  0.00  0.00    +0.049 C 
BRANCH  29  30
ATOM     30  C   UNL     1      -9.236   1.876   4.547  0.00  0.00    -0.072 C 
ATOM     31  C   UNL     1      -9.071   3.042   5.084  0.00  0.00    -0.028 C 
ATOM     32  C   UNL     1      -9.461   3.382   6.493  0.00  0.00    +0.027 C 
ATOM     33  C   UNL     1     -10.434   2.335   7.037  0.00  0.00    +0.004 C 
ATOM     34  C   UNL     1      -9.851   0.942   6.766  0.00  0.00    +0.005 C 
ATOM     35  C   UNL     1      -9.855   0.705   5.253  0.00  0.00    +0.030 C 
ENDBRANCH  29  30
ENDBRANCH  28  29
ENDBRANCH  26  28
ENDBRANCH  23  24
ENDBRANCH   4  23
TORSDOF 9
