REMARK  Name = ZINC12643537
REMARK  3 active torsions:
REMARK  status: ('A' for Active; 'I' for Inactive)
REMARK    1  A    between atoms: C_8  and  S_13
REMARK    2  A    between atoms: C_10  and  O_12
REMARK    3  A    between atoms: S_13  and  C_14
REMARK                            x       y       z     vdW  Elec       q    Type
REMARK                         _______ _______ _______ _____ _____    ______ ____
ROOT
ATOM      1  C   UNL     1       2.964  -5.104  -0.259  0.00  0.00    +0.198 A 
ATOM      2  N   UNL     1       1.989  -5.111  -1.135  0.00  0.00    -0.120 NA
ATOM      3  N   UNL     1       1.616  -6.443  -1.358  0.00  0.00    -0.110 NA
ATOM      4  C   UNL     1       2.378  -7.208  -0.609  0.00  0.00    +0.235 A 
ATOM      5  N   UNL     1       3.234  -6.401   0.085  0.00  0.00    -0.255 N 
ATOM      6  C   UNL     1       4.052  -7.209   0.878  0.00  0.00    +0.075 A 
ATOM      7  C   UNL     1       5.076  -6.922   1.769  0.00  0.00    +0.028 A 
ATOM      8  C   UNL     1       5.724  -7.949   2.427  0.00  0.00    +0.002 A 
ATOM      9  C   UNL     1       5.356  -9.264   2.203  0.00  0.00    +0.002 A 
ATOM     10  C   UNL     1       4.338  -9.560   1.319  0.00  0.00    +0.028 A 
ATOM     11  C   UNL     1       3.680  -8.535   0.652  0.00  0.00    +0.066 A 
ATOM     12  N   UNL     1       2.636  -8.525  -0.267  0.00  0.00    -0.322 N 
ATOM     13  H   UNL     1       2.175  -9.305  -0.615  0.00  0.00    +0.169 HD
ENDROOT
BRANCH   1  14
ATOM     14  S   UNL     1       3.787  -3.675   0.362  0.00  0.00    -0.079 S 
BRANCH  14  22
ATOM     15  C   UNL     1      -0.017   1.377   0.010  0.00  0.00    +0.000 A 
ATOM     16  C   UNL     1       1.172   2.083   0.002  0.00  0.00    +0.000 A 
ATOM     17  C   UNL     1       2.376   1.406  -0.013  0.00  0.00    +0.006 A 
ATOM     18  C   UNL     1       2.396   0.021  -0.021  0.00  0.00    -0.015 A 
ATOM     19  C   UNL     1       1.208  -0.685  -0.013  0.00  0.00    -0.041 A 
ATOM     20  C   UNL     1       0.002  -0.004   0.002  0.00  0.00    +0.004 A 
ATOM     21  C   UNL     1       1.496  -2.171  -0.025  0.00  0.00    +0.053 C 
ATOM     22  C   UNL     1       2.966  -2.294  -0.480  0.00  0.00    +0.092 C 
ATOM     23  C   UNL     1       3.564  -0.942  -0.037  0.00  0.00    +0.158 C 
BRANCH  23  24
ATOM     24  O   UNL     1       4.132  -1.055   1.269  0.00  0.00    -0.386 OA
ATOM     25  H   UNL     1       4.486  -0.225   1.617  0.00  0.00    +0.210 HD
ENDBRANCH  23  24
ENDBRANCH  14  22
ENDBRANCH   1  14
TORSDOF 3
