REMARK  Name = ZINC35863078
REMARK  9 active torsions:
REMARK  status: ('A' for Active; 'I' for Inactive)
REMARK    1  A    between atoms: C_1  and  N_2
REMARK    2  A    between atoms: N_2  and  C_3
REMARK    3  A    between atoms: C_3  and  C_4
REMARK    4  A    between atoms: C_9  and  C_11
REMARK    5  A    between atoms: C_14  and  C_16
REMARK    6  A    between atoms: C_16  and  O_17
REMARK    7  A    between atoms: O_17  and  C_18
REMARK    8  A    between atoms: C_24  and  C_34
REMARK    9  A    between atoms: C_29  and  C_31
REMARK                            x       y       z     vdW  Elec       q    Type
REMARK                         _______ _______ _______ _____ _____    ______ ____
ROOT
ATOM      1  C   UNL     1      -0.927   5.249  -5.385  0.00  0.00    +0.121 A 
ATOM      2  C   UNL     1       0.127   6.030  -5.838  0.00  0.00    +0.046 A 
ATOM      3  C   UNL     1      -0.102   7.334  -6.220  0.00  0.00    +0.007 A 
ATOM      4  C   UNL     1      -1.381   7.875  -6.161  0.00  0.00    -0.040 A 
ATOM      5  C   UNL     1      -2.429   7.098  -5.720  0.00  0.00    -0.016 A 
ATOM      6  C   UNL     1      -2.202   5.785  -5.333  0.00  0.00    +0.051 A 
ATOM      7  C   UNL     1      -3.845   7.614  -5.658  0.00  0.00    +0.137 C 
ATOM      8  N   UNL     1      -3.851   9.068  -5.851  0.00  0.00    -0.290 N 
ATOM      9  C   UNL     1      -3.007   9.610  -6.929  0.00  0.00    +0.113 C 
ATOM     10  C   UNL     1      -1.550   9.312  -6.581  0.00  0.00    +0.054 C 
ATOM     11  C   UNL     1      -4.597   9.875  -5.072  0.00  0.00    +0.219 C 
ATOM     12  O   UNL     1      -5.283   9.403  -4.190  0.00  0.00    -0.275 OA
ENDROOT
BRANCH   7  13
ATOM     13  C   UNL     1      -4.665   6.962  -6.742  0.00  0.00    -0.022 A 
ATOM     14  C   UNL     1      -5.817   6.272  -6.417  0.00  0.00    +0.008 A 
ATOM     15  C   UNL     1      -6.569   5.674  -7.410  0.00  0.00    +0.038 A 
ATOM     16  C   UNL     1      -6.168   5.767  -8.732  0.00  0.00    +0.123 A 
ATOM     17  C   UNL     1      -5.014   6.459  -9.057  0.00  0.00    +0.038 A 
ATOM     18  C   UNL     1      -4.266   7.060  -8.062  0.00  0.00    +0.008 A 
ATOM     19  F   UNL     1      -6.903   5.183  -9.704  0.00  0.00    -0.205 F 
ENDBRANCH   7  13
BRANCH  11  20
ATOM     20  C   UNL     1      -4.580  11.366  -5.296  0.00  0.00    +0.075 C 
ATOM     21  C   UNL     1      -3.927  12.235  -4.219  0.00  0.00    +0.013 C 
ATOM     22  C   UNL     1      -5.449  12.228  -4.379  0.00  0.00    +0.013 C 
ENDBRANCH  11  20
BRANCH   1  23
ATOM     23  O   UNL     1      -0.710   3.963  -5.001  0.00  0.00    -0.484 OA
BRANCH  23  24
ATOM     24  C   UNL     1       0.632   3.480  -5.084  0.00  0.00    +0.303 C 
BRANCH  24  28
ATOM     25  C   UNL     1       0.864   0.292  -3.316  0.00  0.00    +0.190 A 
ATOM     26  C   UNL     1       0.635  -0.169  -4.581  0.00  0.00    +0.055 A 
ATOM     27  C   UNL     1       0.518   0.960  -5.407  0.00  0.00    +0.049 A 
ATOM     28  C   UNL     1       0.679   2.046  -4.620  0.00  0.00    +0.143 A 
ATOM     29  O   UNL     1       0.882   1.640  -3.360  0.00  0.00    -0.452 OA
BRANCH  25  32
ATOM     30  C   UNL     1       0.988   1.498  -0.775  0.00  0.00    +0.133 C 
ATOM     31  N   UNL     1       1.160   0.050  -0.908  0.00  0.00    -0.291 N 
ATOM     32  C   UNL     1       1.052  -0.534  -2.119  0.00  0.00    +0.282 C 
ATOM     33  O   UNL     1       1.109  -1.745  -2.217  0.00  0.00    -0.267 OA
BRANCH  31  34
ATOM     34  C   UNL     1       1.451  -0.765   0.274  0.00  0.00    +0.182 C 
BRANCH  34  35
ATOM     35  C   UNL     1       0.159  -1.230   0.894  0.00  0.00    +0.122 A 
ATOM     36  C   UNL     1      -0.490  -2.371   0.599  0.00  0.00    +0.046 A 
ATOM     37  C   UNL     1      -1.647  -2.406   1.409  0.00  0.00    +0.041 A 
ATOM     38  C   UNL     1      -1.637  -1.284   2.151  0.00  0.00    +0.195 A 
ATOM     39  O   UNL     1      -0.538  -0.579   1.839  0.00  0.00    -0.466 OA
ENDBRANCH  34  35
ENDBRANCH  31  34
ENDBRANCH  25  32
ENDBRANCH  24  28
ENDBRANCH  23  24
ENDBRANCH   1  23
TORSDOF 8
