REMARK  Name = ZINC35486192
REMARK  16 active torsions:
REMARK  status: ('A' for Active; 'I' for Inactive)
REMARK    1  A    between atoms: C_1  and  C_2
REMARK    2  A    between atoms: C_2  and  C_3
REMARK    3  A    between atoms: C_3  and  O_4
REMARK    4  A    between atoms: O_4  and  C_5
REMARK    5  A    between atoms: C_8  and  C_14
REMARK    6  A    between atoms: C_10  and  O_11
REMARK    7  A    between atoms: O_11  and  C_12
REMARK    8  A    between atoms: C_12  and  C_13
REMARK    9  A    between atoms: C_21  and  C_37
REMARK   10  A    between atoms: N_29  and  C_30
REMARK   11  A    between atoms: C_30  and  C_31
REMARK   12  A    between atoms: C_31  and  N_32
REMARK   13  A    between atoms: N_32  and  C_33
REMARK   14  A    between atoms: N_32  and  C_35
REMARK   15  A    between atoms: C_33  and  C_34
REMARK   16  A    between atoms: C_35  and  C_36
REMARK                            x       y       z     vdW  Elec       q    Type
REMARK                         _______ _______ _______ _____ _____    ______ ____
ROOT
ATOM      1  C   UNL     1       3.840  -5.314   5.488  0.00  0.00    +0.145 C 
ATOM      2  C   UNL     1       3.149  -5.624   6.775  0.00  0.00    +0.072 A 
ATOM      3  C   UNL     1       1.881  -6.308   7.051  0.00  0.00    +0.199 A 
ATOM      4  O   UNL     1       1.248  -6.907   6.200  0.00  0.00    -0.287 OA
ATOM      5  C   UNL     1       1.443  -6.201   8.465  0.00  0.00    +0.065 A 
ATOM      6  C   UNL     1       0.169  -6.625   8.845  0.00  0.00    +0.018 A 
ATOM      7  C   UNL     1      -0.221  -6.515  10.150  0.00  0.00    -0.050 A 
ATOM      8  C   UNL     1       0.646  -5.984  11.096  0.00  0.00    +0.007 A 
ATOM      9  C   UNL     1       1.907  -5.563  10.739  0.00  0.00    +0.047 A 
ATOM     10  C   UNL     1       2.330  -5.667   9.414  0.00  0.00    +0.139 A 
ATOM     11  O   UNL     1       3.577  -5.257   9.088  0.00  0.00    -0.450 OA
ATOM     12  C   UNL     1       3.920  -5.134   7.791  0.00  0.00    +0.199 A 
ATOM     13  C   UNL     1       5.111  -4.498   7.201  0.00  0.00    +0.283 C 
ATOM     14  O   UNL     1       5.998  -3.961   7.834  0.00  0.00    -0.267 OA
ATOM     15  N   UNL     1       5.074  -4.600   5.855  0.00  0.00    -0.285 N 
ATOM     16  C   UNL     1      -1.596  -6.971  10.564  0.00  0.00    +0.044 C 
ENDROOT
BRANCH   1  20
ATOM     17  C   UNL     1       1.368  -2.820   3.048  0.00  0.00    +0.162 A 
ATOM     18  C   UNL     1       2.066  -2.277   4.115  0.00  0.00    +0.050 A 
ATOM     19  C   UNL     1       2.864  -3.086   4.902  0.00  0.00    +0.009 A 
ATOM     20  C   UNL     1       2.968  -4.437   4.627  0.00  0.00    -0.019 A 
ATOM     21  C   UNL     1       2.275  -4.985   3.565  0.00  0.00    +0.055 A 
ATOM     22  C   UNL     1       1.468  -4.181   2.776  0.00  0.00    +0.162 A 
BRANCH  17  23
ATOM     23  O   UNL     1       0.582  -2.025   2.273  0.00  0.00    -0.488 OA
BRANCH  23  24
ATOM     24  C   UNL     1       0.527  -0.638   2.612  0.00  0.00    +0.229 C 
BRANCH  24  26
ATOM     25  C   UNL     1      -0.459   1.574   2.000  0.00  0.00    +0.007 C 
ATOM     26  C   UNL     1      -0.400   0.089   1.637  0.00  0.00    +0.038 C 
ENDBRANCH  24  26
ENDBRANCH  23  24
ENDBRANCH  17  23
BRANCH  22  27
ATOM     27  O   UNL     1       0.780  -4.719   1.733  0.00  0.00    -0.489 OA
BRANCH  27  28
ATOM     28  C   UNL     1       0.930  -6.123   1.513  0.00  0.00    +0.226 C 
ATOM     29  C   UNL     1       0.088  -6.543   0.307  0.00  0.00    +0.048 C 
ENDBRANCH  27  28
ENDBRANCH  22  27
ENDBRANCH   1  20
BRANCH  15  30
ATOM     30  C   UNL     1       6.083  -4.090   4.924  0.00  0.00    +0.090 C 
BRANCH  30  31
ATOM     31  C   UNL     1       5.729  -2.656   4.524  0.00  0.00    -0.060 C 
BRANCH  31  32
ATOM     32  N   UNL     1       6.741  -2.144   3.590  0.00  0.00    +0.380 N 
ATOM     33  H   UNL     1       7.657  -2.232   4.005  0.00  0.00    -0.082 HD
BRANCH  32  34
ATOM     34  C   UNL     1       6.692  -2.918   2.343  0.00  0.00    -0.082 C 
ATOM     35  C   UNL     1       7.836  -2.482   1.426  0.00  0.00    -0.017 C 
ENDBRANCH  32  34
BRANCH  32  36
ATOM     36  C   UNL     1       6.468  -0.730   3.300  0.00  0.00    -0.082 C 
ATOM     37  C   UNL     1       6.659   0.098   4.572  0.00  0.00    -0.017 C 
ENDBRANCH  32  36
ENDBRANCH  31  32
ENDBRANCH  30  31
ENDBRANCH  15  30
TORSDOF 11
