REMARK  Name = ZINC47864154
REMARK  6 active torsions:
REMARK  status: ('A' for Active; 'I' for Inactive)
REMARK    1  A    between atoms: C_1  and  C_2
REMARK    2  A    between atoms: C_4  and  C_7
REMARK    3  A    between atoms: C_7  and  N_8
REMARK    4  A    between atoms: N_11  and  C_12
REMARK    5  A    between atoms: C_17  and  S_18
REMARK    6  A    between atoms: S_18  and  C_19
REMARK                            x       y       z     vdW  Elec       q    Type
REMARK                         _______ _______ _______ _____ _____    ______ ____
ROOT
ATOM      1  N   UNL     1      -2.436  -3.330   1.372  0.00  0.00    -0.294 N 
ATOM      2  C   UNL     1      -3.480  -4.147   1.617  0.00  0.00    +0.304 C 
ATOM      3  O   UNL     1      -4.047  -4.703   0.696  0.00  0.00    -0.252 OA
ATOM      4  N   UNL     1      -3.896  -4.347   2.884  0.00  0.00    -0.268 N 
ATOM      5  H   UNL     1      -1.984  -2.887   2.107  0.00  0.00    +0.151 HD
ATOM      6  H   UNL     1      -3.405  -3.956   3.623  0.00  0.00    +0.156 HD
ENDROOT
BRANCH   4   7
ATOM      7  C   UNL     1      -5.038  -5.120   3.132  0.00  0.00    +0.048 A 
ATOM      8  C   UNL     1      -5.330  -6.209   2.325  0.00  0.00    +0.024 A 
ATOM      9  C   UNL     1      -6.457  -6.971   2.572  0.00  0.00    +0.002 A 
ATOM     10  C   UNL     1      -7.297  -6.650   3.623  0.00  0.00    +0.001 A 
ATOM     11  C   UNL     1      -7.014  -5.567   4.433  0.00  0.00    +0.017 A 
ATOM     12  C   UNL     1      -5.882  -4.800   4.196  0.00  0.00    +0.037 A 
BRANCH  12  13
ATOM     13  S   UNL     1      -5.515  -3.423   5.232  0.00  0.00    -0.014 S 
BRANCH  13  14
ATOM     14  C   UNL     1      -6.866  -3.410   6.441  0.00  0.00    +0.448 C 
ATOM     15  F   UNL     1      -6.869  -4.617   7.150  0.00  0.00    -0.160 F 
ATOM     16  F   UNL     1      -6.686  -2.347   7.332  0.00  0.00    -0.160 F 
ATOM     17  F   UNL     1      -8.087  -3.258   5.775  0.00  0.00    -0.160 F 
ENDBRANCH  13  14
ENDBRANCH  12  13
ENDBRANCH   4   7
BRANCH   1  18
ATOM     18  C   UNL     1      -1.984  -3.113  -0.004  0.00  0.00    +0.161 C 
BRANCH  18  22
ATOM     19  C   UNL     1       0.031   1.468   0.007  0.00  0.00    +0.073 C 
ATOM     20  C   UNL     1       0.040  -0.039   0.001  0.00  0.00    +0.076 A 
ATOM     21  N   UNL     1      -0.982  -0.859   0.001  0.00  0.00    -0.248 NA
ATOM     22  C   UNL     1      -0.812  -2.166  -0.004  0.00  0.00    +0.066 A 
ATOM     23  C   UNL     1       0.467  -2.620  -0.009  0.00  0.00    +0.071 A 
ATOM     24  S   UNL     1       1.365  -1.077  -0.014  0.00  0.00    -0.080 S 
ENDBRANCH  18  22
ENDBRANCH   1  18
TORSDOF 5
