REMARK  Name = ZINC00909352
REMARK  6 active torsions:
REMARK  status: ('A' for Active; 'I' for Inactive)
REMARK    1  A    between atoms: C_1  and  C_2
REMARK    2  A    between atoms: C_5  and  C_7
REMARK    3  A    between atoms: C_17  and  C_27
REMARK    4  A    between atoms: C_18  and  C_19
REMARK    5  A    between atoms: C_19  and  O_21
REMARK    6  A    between atoms: O_21  and  C_22
REMARK                            x       y       z     vdW  Elec       q    Type
REMARK                         _______ _______ _______ _____ _____    ______ ____
ROOT
ATOM      1  C   UNL     1      -1.239   2.204   0.145  0.00  0.00    +0.128 C 
ATOM      2  C   UNL     1      -1.293   2.960  -1.158  0.00  0.00    +0.027 C 
ATOM      3  C   UNL     1      -0.957   4.265  -1.214  0.00  0.00    +0.015 C 
ATOM      4  C   UNL     1      -0.990   5.021  -2.518  0.00  0.00    +0.051 C 
ATOM      5  C   UNL     1      -2.083   4.444  -3.420  0.00  0.00    +0.014 C 
ATOM      6  C   UNL     1      -1.792   2.956  -3.645  0.00  0.00    +0.080 C 
ATOM      7  C   UNL     1      -1.704   2.266  -2.311  0.00  0.00    +0.162 C 
ATOM      8  O   UNL     1      -1.993   1.089  -2.229  0.00  0.00    -0.292 OA
ATOM      9  N   UNL     1      -0.574   4.932  -0.081  0.00  0.00    -0.321 N 
ATOM     10  C   UNL     1      -0.887   4.441   1.156  0.00  0.00    +0.016 C 
ATOM     11  C   UNL     1      -1.213   3.147   1.313  0.00  0.00    +0.068 C 
ATOM     12  C   UNL     1      -0.864   5.357   2.352  0.00  0.00    +0.061 C 
ATOM     13  H   UNL     1      -0.010   5.873  -0.161  0.00  0.00    +0.152 HD
ENDROOT
BRANCH   1  18
ATOM     14  C   UNL     1       3.617   0.842   0.077  0.00  0.00    +0.086 C 
ATOM     15  C   UNL     1       2.114   0.757   0.139  0.00  0.00    +0.102 A 
ATOM     16  C   UNL     1       1.393  -0.373   0.253  0.00  0.00    +0.044 A 
ATOM     17  C   UNL     1       0.032   0.009   0.274  0.00  0.00    +0.046 A 
ATOM     18  C   UNL     1       0.002   1.349   0.172  0.00  0.00    +0.117 A 
ATOM     19  O   UNL     1       1.266   1.798   0.090  0.00  0.00    -0.464 OA
ENDBRANCH   1  18
BRANCH  11  20
ATOM     20  C   UNL     1      -1.539   2.664   2.602  0.00  0.00    +0.338 C 
ATOM     21  O   UNL     1      -1.419   3.390   3.571  0.00  0.00    -0.245 OA
BRANCH  20  22
ATOM     22  O   UNL     1      -1.982   1.399   2.757  0.00  0.00    -0.458 OA
BRANCH  22  23
ATOM     23  C   UNL     1      -2.292   0.978   4.087  0.00  0.00    +0.177 C 
ATOM     24  C   UNL     1      -1.062   0.302   4.727  0.00  0.00    +0.044 C 
ATOM     25  C   UNL     1      -1.660  -0.850   5.572  0.00  0.00    +0.004 C 
ATOM     26  C   UNL     1      -2.821  -1.360   4.683  0.00  0.00    +0.004 C 
ATOM     27  C   UNL     1      -3.410  -0.079   4.058  0.00  0.00    +0.044 C 
ENDBRANCH  22  23
ENDBRANCH  20  22
ENDBRANCH  11  20
TORSDOF 4
