REMARK  Name = ZINC39154745
REMARK  9 active torsions:
REMARK  status: ('A' for Active; 'I' for Inactive)
REMARK    1  A    between atoms: C_1  and  C_2
REMARK    2  A    between atoms: C_2  and  O_3
REMARK    3  A    between atoms: O_3  and  C_4
REMARK    4  A    between atoms: C_4  and  C_6
REMARK    5  A    between atoms: C_8  and  N_17
REMARK    6  A    between atoms: C_18  and  C_20
REMARK    7  A    between atoms: C_20  and  S_21
REMARK    8  A    between atoms: S_21  and  C_22
REMARK    9  A    between atoms: C_26  and  C_29
REMARK                            x       y       z     vdW  Elec       q    Type
REMARK                         _______ _______ _______ _____ _____    ______ ____
ROOT
ATOM      1  N   UNL     1      -2.609  -1.859   2.427  0.00  0.00    -0.301 N 
ATOM      2  C   UNL     1      -2.728  -0.800   3.252  0.00  0.00    +0.224 C 
ATOM      3  O   UNL     1      -3.637  -0.012   3.101  0.00  0.00    -0.275 OA
ATOM      4  H   UNL     1      -1.881  -2.489   2.547  0.00  0.00    +0.150 HD
ENDROOT
BRANCH   1   6
ATOM      5  C   UNL     1      -2.881  -2.427   0.017  0.00  0.00    +0.155 C 
ATOM      6  C   UNL     1      -3.579  -2.058   1.347  0.00  0.00    +0.153 C 
ATOM      7  S   UNL     1      -4.553  -3.603   1.589  0.00  0.00    -0.106 S 
ATOM      8  C   UNL     1      -3.579  -4.685   0.569  0.00  0.00    -0.013 C 
ATOM      9  C   UNL     1      -2.776  -3.921  -0.159  0.00  0.00    -0.044 C 
ATOM     10  C   UNL     1      -1.784  -4.538  -1.143  0.00  0.00    +0.032 C 
ATOM     11  C   UNL     1      -1.579  -6.010  -0.791  0.00  0.00    +0.005 C 
ATOM     12  C   UNL     1      -2.941  -6.706  -0.692  0.00  0.00    +0.005 C 
ATOM     13  C   UNL     1      -3.662  -6.186   0.551  0.00  0.00    +0.042 C 
BRANCH   5  14
ATOM     14  C   UNL     1      -1.496  -1.832   0.006  0.00  0.00    +0.317 C 
ATOM     15  O   UNL     1      -0.578  -2.429   0.517  0.00  0.00    -0.250 OA
BRANCH  14  16
ATOM     16  O   UNL     1      -1.283  -0.638  -0.569  0.00  0.00    -0.464 OA
BRANCH  16  18
ATOM     17  C   UNL     1       0.101   1.226  -1.241  0.00  0.00    +0.048 C 
ATOM     18  C   UNL     1       0.054  -0.135  -0.542  0.00  0.00    +0.229 C 
ENDBRANCH  16  18
ENDBRANCH  14  16
ENDBRANCH   5  14
ENDBRANCH   1   6
BRANCH   2  19
ATOM     19  C   UNL     1      -1.729  -0.595   4.362  0.00  0.00    +0.173 C 
BRANCH  19  20
ATOM     20  S   UNL     1      -2.156   0.905   5.290  0.00  0.00    -0.075 S 
BRANCH  20  21
ATOM     21  C   UNL     1      -0.913   1.005   6.535  0.00  0.00    +0.213 A 
ATOM     22  N   UNL     1      -0.935   2.010   7.402  0.00  0.00    -0.180 NA
ATOM     23  C   UNL     1       0.001   2.084   8.340  0.00  0.00    +0.300 A 
ATOM     24  O   UNL     1       0.002   3.098   9.238  0.00  0.00    -0.263 OA
ATOM     25  C   UNL     1       0.992   1.087   8.381  0.00  0.00    +0.159 A 
ATOM     26  N   UNL     1       0.958   0.108   7.485  0.00  0.00    -0.141 NA
ATOM     27  N   UNL     1       0.029   0.070   6.595  0.00  0.00    -0.122 NA
BRANCH  25  28
ATOM     28  C   UNL     1       2.058   1.128   9.410  0.00  0.00    +0.008 A 
ATOM     29  C   UNL     1       2.564   2.352   9.844  0.00  0.00    +0.011 A 
ATOM     30  C   UNL     1       3.556   2.385  10.803  0.00  0.00    +0.020 A 
ATOM     31  C   UNL     1       4.050   1.205  11.332  0.00  0.00    +0.041 A 
ATOM     32  C   UNL     1       3.551  -0.013  10.904  0.00  0.00    +0.020 A 
ATOM     33  C   UNL     1       2.554  -0.057   9.951  0.00  0.00    +0.011 A 
ATOM     34 CL   UNL     1       5.299   1.254  12.537  0.00  0.00    -0.084 Cl
ENDBRANCH  25  28
ENDBRANCH  20  21
ENDBRANCH  19  20
ENDBRANCH   2  19
TORSDOF 8
