REMARK  Name = ZINC35921502
REMARK  15 active torsions:
REMARK  status: ('A' for Active; 'I' for Inactive)
REMARK    1  A    between atoms: C_1  and  C_2
REMARK    2  A    between atoms: C_2  and  C_3
REMARK    3  A    between atoms: C_3  and  N_4
REMARK    4  A    between atoms: C_9  and  C_20
REMARK    5  A    between atoms: N_11  and  C_12
REMARK    6  A    between atoms: C_17  and  O_18
REMARK    7  A    between atoms: O_18  and  C_19
REMARK    8  A    between atoms: C_20  and  N_21
REMARK    9  A    between atoms: N_21  and  C_22
REMARK   10  A    between atoms: C_22  and  C_23
REMARK   11  A    between atoms: C_23  and  C_24
REMARK   12  A    between atoms: C_23  and  C_25
REMARK   13  A    between atoms: C_26  and  C_28
REMARK   14  A    between atoms: C_33  and  O_34
REMARK   15  A    between atoms: O_34  and  C_35
REMARK                            x       y       z     vdW  Elec       q    Type
REMARK                         _______ _______ _______ _____ _____    ______ ____
ROOT
ATOM      1  N   UNL     1       1.132  -1.883  -1.177  0.00  0.00    +0.383 N 
ATOM      2  C   UNL     1       2.241  -2.024  -0.225  0.00  0.00    -0.072 C 
ATOM      3  C   UNL     1       2.446  -3.508   0.115  0.00  0.00    +0.037 C 
ATOM      4  C   UNL     1       2.514  -4.270  -1.186  0.00  0.00    +0.045 A 
ATOM      5  C   UNL     1       2.107  -3.744  -2.373  0.00  0.00    -0.018 A 
ATOM      6  C   UNL     1       2.311  -4.703  -3.358  0.00  0.00    +0.082 A 
ATOM      7  N   UNL     1       2.819  -5.771  -2.790  0.00  0.00    -0.169 NA
ATOM      8  N   UNL     1       2.953  -5.517  -1.415  0.00  0.00    -0.233 N 
ATOM      9  C   UNL     1       1.541  -2.353  -2.511  0.00  0.00    -0.039 C 
ATOM     10  H   UNL     1       0.347  -2.431  -0.856  0.00  0.00    -0.081 HD
ENDROOT
BRANCH   8  11
ATOM     11  C   UNL     1       3.456  -6.407  -0.455  0.00  0.00    +0.107 A 
ATOM     12  C   UNL     1       2.775  -6.600   0.739  0.00  0.00    +0.031 A 
ATOM     13  C   UNL     1       3.272  -7.477   1.683  0.00  0.00    +0.002 A 
ATOM     14  C   UNL     1       4.448  -8.164   1.443  0.00  0.00    +0.004 A 
ATOM     15  C   UNL     1       5.132  -7.978   0.257  0.00  0.00    +0.048 A 
ATOM     16  C   UNL     1       4.636  -7.104  -0.699  0.00  0.00    +0.145 A 
BRANCH  16  17
ATOM     17  O   UNL     1       5.304  -6.924  -1.869  0.00  0.00    -0.493 OA
ATOM     18  C   UNL     1       6.508  -7.672  -2.051  0.00  0.00    +0.277 C 
ENDBRANCH  16  17
ENDBRANCH   8  11
BRANCH   1  19
ATOM     19  C   UNL     1       0.738  -0.470  -1.259  0.00  0.00    -0.079 C 
BRANCH  19  21
ATOM     20  C   UNL     1      -0.216   1.458   0.011  0.00  0.00    +0.002 C 
ATOM     21  C   UNL     1       0.194  -0.013   0.097  0.00  0.00    -0.022 C 
ENDBRANCH  19  21
ENDBRANCH   1  19
BRANCH   6  22
ATOM     22  C   UNL     1       2.001  -4.545  -4.825  0.00  0.00    +0.165 C 
BRANCH  22  23
ATOM     23  N   UNL     1       3.174  -4.002  -5.516  0.00  0.00    -0.291 N 
ATOM     24  C   UNL     1       3.329  -2.669  -5.635  0.00  0.00    +0.250 C 
ATOM     25  O   UNL     1       2.535  -1.915  -5.105  0.00  0.00    -0.270 OA
BRANCH  24  26
ATOM     26  C   UNL     1       4.461  -2.124  -6.408  0.00  0.00    +0.078 A 
ATOM     27  C   UNL     1       5.773  -2.454  -6.060  0.00  0.00    +0.017 A 
ATOM     28  C   UNL     1       6.826  -1.942  -6.786  0.00  0.00    +0.001 A 
ATOM     29  C   UNL     1       6.590  -1.100  -7.860  0.00  0.00    +0.004 A 
ATOM     30  C   UNL     1       5.299  -0.765  -8.215  0.00  0.00    +0.046 A 
ATOM     31  C   UNL     1       4.227  -1.276  -7.499  0.00  0.00    +0.132 A 
BRANCH  31  32
ATOM     32  O   UNL     1       2.957  -0.952  -7.849  0.00  0.00    -0.494 OA
ATOM     33  C   UNL     1       2.796  -0.083  -8.972  0.00  0.00    +0.277 C 
ENDBRANCH  31  32
ENDBRANCH  24  26
BRANCH  23  34
ATOM     34  C   UNL     1       4.178  -4.909  -6.077  0.00  0.00    +0.111 C 
BRANCH  34  35
ATOM     35  C   UNL     1       3.888  -5.135  -7.562  0.00  0.00    +0.000 C 
ATOM     36  C   UNL     1       5.005  -5.981  -8.177  0.00  0.00    +0.009 C 
ATOM     37  C   UNL     1       2.552  -5.865  -7.716  0.00  0.00    +0.009 C 
ENDBRANCH  34  35
ENDBRANCH  23  34
ENDBRANCH  22  23
ENDBRANCH   6  22
TORSDOF 10
