REMARK  Name = ZINC35245214
REMARK  11 active torsions:
REMARK  status: ('A' for Active; 'I' for Inactive)
REMARK    1  A    between atoms: C_1  and  C_2
REMARK    2  A    between atoms: C_2  and  C_3
REMARK    3  A    between atoms: C_3  and  C_5
REMARK    4  A    between atoms: C_3  and  N_6
REMARK    5  A    between atoms: C_7  and  C_9
REMARK    6  A    between atoms: C_12  and  C_14
REMARK    7  A    between atoms: C_14  and  N_15
REMARK    8  A    between atoms: N_15  and  C_16
REMARK    9  A    between atoms: N_15  and  C_24
REMARK   10  A    between atoms: C_16  and  C_17
REMARK   11  A    between atoms: C_24  and  C_25
REMARK                            x       y       z     vdW  Elec       q    Type
REMARK                         _______ _______ _______ _____ _____    ______ ____
ROOT
ATOM      1  N   UNL     1      -3.309   2.704   6.428  0.00  0.00    +0.390 N 
ATOM      2  H   UNL     1      -3.200   2.997   5.468  0.00  0.00    -0.080 HD
ENDROOT
BRANCH   1   3
ATOM      3  C   UNL     1      -3.112   1.252   6.522  0.00  0.00    -0.002 C 
BRANCH   3   7
ATOM      4  C   UNL     1      -5.793  -0.496   4.763  0.00  0.00    +0.189 A 
ATOM      5  C   UNL     1      -4.912  -0.341   3.731  0.00  0.00    +0.055 A 
ATOM      6  C   UNL     1      -3.796   0.332   4.252  0.00  0.00    +0.043 A 
ATOM      7  C   UNL     1      -4.041   0.555   5.562  0.00  0.00    +0.090 A 
ATOM      8  O   UNL     1      -5.248   0.059   5.865  0.00  0.00    -0.457 OA
BRANCH   4  10
ATOM      9  N   UNL     1      -7.883  -1.229   5.783  0.00  0.00    -0.306 N 
ATOM     10  C   UNL     1      -7.105  -1.147   4.685  0.00  0.00    +0.280 C 
ATOM     11  O   UNL     1      -7.491  -1.613   3.629  0.00  0.00    -0.267 OA
ATOM     12  H   UNL     1      -7.575  -0.858   6.624  0.00  0.00    +0.149 HD
BRANCH   9  13
ATOM     13  C   UNL     1      -9.193  -1.879   5.705  0.00  0.00    +0.070 C 
ATOM     14  C   UNL     1      -9.025  -3.389   5.891  0.00  0.00    +0.028 C 
BRANCH  13  16
ATOM     15  C   UNL     1     -10.371   0.156   6.549  0.00  0.00    +0.005 C 
ATOM     16  C   UNL     1     -10.102  -1.328   6.806  0.00  0.00    +0.018 C 
ENDBRANCH  13  16
ENDBRANCH   9  13
ENDBRANCH   4  10
ENDBRANCH   3   7
ENDBRANCH   1   3
BRANCH   1  17
ATOM     17  C   UNL     1      -2.314   3.389   7.263  0.00  0.00    -0.042 C 
BRANCH  17  18
ATOM     18  C   UNL     1      -0.936   3.148   6.703  0.00  0.00    -0.064 A 
ATOM     19  C   UNL     1      -0.154   2.125   7.206  0.00  0.00    +0.003 A 
ATOM     20  C   UNL     1       1.110   1.904   6.692  0.00  0.00    +0.020 A 
ATOM     21  C   UNL     1       1.592   2.707   5.673  0.00  0.00    +0.041 A 
ATOM     22  C   UNL     1       0.810   3.730   5.170  0.00  0.00    +0.020 A 
ATOM     23  C   UNL     1      -0.456   3.947   5.681  0.00  0.00    +0.003 A 
ATOM     24 CL   UNL     1       3.180   2.430   5.028  0.00  0.00    -0.084 Cl
ENDBRANCH  17  18
ENDBRANCH   1  17
BRANCH   1  25
ATOM     25  C   UNL     1      -4.659   3.047   6.894  0.00  0.00    -0.042 C 
BRANCH  25  26
ATOM     26  C   UNL     1      -4.905   4.519   6.683  0.00  0.00    -0.060 A 
ATOM     27  C   UNL     1      -4.577   5.423   7.676  0.00  0.00    +0.005 A 
ATOM     28  C   UNL     1      -4.800   6.774   7.486  0.00  0.00    +0.050 A 
ATOM     29  C   UNL     1      -5.354   7.225   6.299  0.00  0.00    +0.166 A 
ATOM     30  C   UNL     1      -5.685   6.314   5.299  0.00  0.00    +0.166 A 
ATOM     31  C   UNL     1      -5.453   4.963   5.494  0.00  0.00    +0.051 A 
ATOM     32  O   UNL     1      -6.210   7.000   4.241  0.00  0.00    -0.453 OA
ATOM     33  C   UNL     1      -6.574   8.292   4.763  0.00  0.00    +0.466 C 
ATOM     34  O   UNL     1      -5.671   8.481   5.868  0.00  0.00    -0.453 OA
ENDBRANCH  25  26
ENDBRANCH   1  25
TORSDOF 9
