REMARK  Name = ZINC01387900
REMARK  8 active torsions:
REMARK  status: ('A' for Active; 'I' for Inactive)
REMARK    1  A    between atoms: C_1  and  N_2
REMARK    2  A    between atoms: C_4  and  C_20
REMARK    3  A    between atoms: C_6  and  C_7
REMARK    4  A    between atoms: N_9  and  N_10
REMARK    5  A    between atoms: C_11  and  C_12
REMARK    6  A    between atoms: C_12  and  O_13
REMARK    7  A    between atoms: O_13  and  C_14
REMARK    8  A    between atoms: C_20  and  C_22
REMARK                            x       y       z     vdW  Elec       q    Type
REMARK                         _______ _______ _______ _____ _____    ______ ____
ROOT
ATOM      1  C   UNL     1       0.613   2.139  -0.496  0.00  0.00    +0.277 C 
ATOM      2  O   UNL     1      -0.393   1.474  -0.656  0.00  0.00    -0.267 OA
ATOM      3  N   UNL     1       0.540   3.485  -0.509  0.00  0.00    -0.230 N 
ATOM      4  H   UNL     1       1.351   4.015  -0.451  0.00  0.00    +0.173 HD
ENDROOT
BRANCH   1  10
ATOM      5  C   UNL     1       1.052  -0.899  -0.183  0.00  0.00    +0.149 C 
ATOM      6  N   UNL     1       2.104   0.119  -0.146  0.00  0.00    -0.345 N 
ATOM      7  C   UNL     1       3.413  -0.121   0.032  0.00  0.00    +0.097 A 
ATOM      8  C   UNL     1       4.085   1.088   0.007  0.00  0.00    +0.040 A 
ATOM      9  C   UNL     1       3.117   2.097  -0.197  0.00  0.00    +0.044 A 
ATOM     10  C   UNL     1       1.907   1.476  -0.288  0.00  0.00    +0.106 A 
BRANCH   8  11
ATOM     11  C   UNL     1       5.537   1.286   0.164  0.00  0.00    +0.196 C 
ATOM     12  O   UNL     1       6.277   0.324   0.237  0.00  0.00    -0.287 OA
BRANCH  11  13
ATOM     13  C   UNL     1       6.093   2.653   0.231  0.00  0.00    +0.041 A 
ATOM     14  C   UNL     1       6.754   3.196  -0.874  0.00  0.00    +0.014 A 
ATOM     15  C   UNL     1       7.266   4.474  -0.807  0.00  0.00    +0.021 A 
ATOM     16  C   UNL     1       7.136   5.217   0.356  0.00  0.00    +0.042 A 
ATOM     17  C   UNL     1       6.487   4.683   1.456  0.00  0.00    +0.040 A 
ATOM     18  C   UNL     1       5.964   3.406   1.401  0.00  0.00    +0.053 A 
ATOM     19 CL   UNL     1       5.151   2.738   2.781  0.00  0.00    -0.083 Cl
ATOM     20 CL   UNL     1       7.791   6.823   0.434  0.00  0.00    -0.083 Cl
ENDBRANCH  11  13
ENDBRANCH   8  11
ENDBRANCH   1  10
BRANCH   3  21
ATOM     21  N   UNL     1      -0.706   4.118  -0.606  0.00  0.00    -0.251 N 
ATOM     22  C   UNL     1      -0.780   5.486  -0.619  0.00  0.00    +0.120 C 
ATOM     23  H   UNL     1      -1.516   3.588  -0.663  0.00  0.00    +0.171 HD
ATOM     24  H   UNL     1       0.351   7.167  -0.543  0.00  0.00    +0.157 HD
ATOM     25  N   UNL     1       0.354   6.147  -0.537  0.00  0.00    -0.387 N 
ATOM     26  H   UNL     1       1.242   5.636  -0.468  0.00  0.00    +0.157 HD
BRANCH  22  27
ATOM     27  C   UNL     1      -2.120   6.167  -0.723  0.00  0.00    +0.299 C 
BRANCH  27  28
ATOM     28  O   UNL     1      -1.936   7.584  -0.717  0.00  0.00    -0.485 OA
BRANCH  28  29
ATOM     29  C   UNL     1      -3.054   8.352  -0.805  0.00  0.00    +0.121 A 
ATOM     30  C   UNL     1      -4.302   7.753  -0.901  0.00  0.00    +0.045 A 
ATOM     31  C   UNL     1      -5.437   8.536  -0.985  0.00  0.00    +0.004 A 
ATOM     32  C   UNL     1      -5.330   9.915  -0.984  0.00  0.00    +0.000 A 
ATOM     33  C   UNL     1      -4.086  10.513  -0.894  0.00  0.00    +0.004 A 
ATOM     34  C   UNL     1      -2.949   9.735  -0.805  0.00  0.00    +0.045 A 
ENDBRANCH  28  29
ENDBRANCH  27  28
ENDBRANCH  22  27
ENDBRANCH   3  21
TORSDOF 7
