REMARK  Name = ZINC36124682
REMARK  9 active torsions:
REMARK  status: ('A' for Active; 'I' for Inactive)
REMARK    1  A    between atoms: C_1  and  C_2
REMARK    2  A    between atoms: C_5  and  N_8
REMARK    3  A    between atoms: C_9  and  O_30
REMARK    4  A    between atoms: C_10  and  C_16
REMARK    5  A    between atoms: C_11  and  C_13
REMARK    6  A    between atoms: C_19  and  N_22
REMARK    7  A    between atoms: C_23  and  C_25
REMARK    8  A    between atoms: O_30  and  C_31
REMARK    9  A    between atoms: C_31  and  C_33
REMARK                            x       y       z     vdW  Elec       q    Type
REMARK                         _______ _______ _______ _____ _____    ______ ____
ROOT
ATOM      1  N   UNL     1      -0.024  -4.253   0.048  0.00  0.00    -0.199 N 
ATOM      2  C   UNL     1       0.795  -5.017   0.819  0.00  0.00    +0.235 A 
ATOM      3  C   UNL     1       0.574  -6.334   0.467  0.00  0.00    +0.067 A 
ATOM      4  C   UNL     1      -0.406  -6.340  -0.544  0.00  0.00    +0.078 A 
ATOM      5  N   UNL     1      -0.761  -5.106  -0.783  0.00  0.00    -0.167 NA
ENDROOT
BRANCH   1  10
ATOM      6  C   UNL     1      -0.409   1.407   0.190  0.00  0.00    +0.044 C 
ATOM      7  C   UNL     1      -0.307  -0.096   0.152  0.00  0.00    -0.050 A 
ATOM      8  C   UNL     1      -0.335  -0.759  -1.061  0.00  0.00    +0.005 A 
ATOM      9  C   UNL     1      -0.242  -2.136  -1.099  0.00  0.00    +0.028 A 
ATOM     10  C   UNL     1      -0.119  -2.855   0.083  0.00  0.00    +0.069 A 
ATOM     11  C   UNL     1      -0.090  -2.186   1.299  0.00  0.00    +0.028 A 
ATOM     12  C   UNL     1      -0.179  -0.808   1.330  0.00  0.00    +0.005 A 
ENDBRANCH   1  10
BRANCH   3  13
ATOM     13  C   UNL     1       1.247  -7.523   1.046  0.00  0.00    -0.011 A 
ATOM     14  C   UNL     1       2.080  -8.309   0.252  0.00  0.00    +0.010 A 
ATOM     15  C   UNL     1       2.705  -9.413   0.793  0.00  0.00    +0.024 A 
ATOM     16  C   UNL     1       2.504  -9.742   2.128  0.00  0.00    +0.034 A 
ATOM     17  C   UNL     1       1.674  -8.960   2.921  0.00  0.00    +0.024 A 
ATOM     18  C   UNL     1       1.052  -7.851   2.386  0.00  0.00    +0.010 A 
BRANCH  16  19
ATOM     19  N   UNL     1       3.138 -10.863   2.674  0.00  0.00    -0.279 N 
ATOM     20  C   UNL     1       4.380 -11.197   2.272  0.00  0.00    +0.284 C 
ATOM     21  O   UNL     1       4.917 -10.576   1.373  0.00  0.00    -0.266 OA
ATOM     22  H   UNL     1       2.683 -11.400   3.342  0.00  0.00    +0.155 HD
BRANCH  20  23
ATOM     23  C   UNL     1       5.085 -12.309   2.918  0.00  0.00    +0.189 A 
ATOM     24  C   UNL     1       6.342 -12.747   2.614  0.00  0.00    +0.054 A 
ATOM     25  C   UNL     1       6.614 -13.822   3.473  0.00  0.00    +0.042 A 
ATOM     26  C   UNL     1       5.525 -13.992   4.255  0.00  0.00    +0.196 A 
ATOM     27  O   UNL     1       4.608 -13.075   3.921  0.00  0.00    -0.458 OA
ENDBRANCH  20  23
ENDBRANCH  16  19
ENDBRANCH   3  13
BRANCH   4  28
ATOM     28  C   UNL     1      -0.959  -7.564  -1.229  0.00  0.00    +0.040 C 
ATOM     29  C   UNL     1      -1.869  -7.346  -2.439  0.00  0.00    +0.010 C 
ATOM     30  C   UNL     1      -2.462  -7.821  -1.111  0.00  0.00    +0.010 C 
ENDBRANCH   4  28
BRANCH   2  31
ATOM     31  O   UNL     1       1.666  -4.569   1.757  0.00  0.00    -0.407 OA
BRANCH  31  32
ATOM     32  C   UNL     1       2.886  -4.182   1.352  0.00  0.00    +0.310 C 
ATOM     33  O   UNL     1       3.150  -4.153   0.173  0.00  0.00    -0.251 OA
ATOM     34  C   UNL     1       3.927  -3.785   2.367  0.00  0.00    +0.136 C 
ENDBRANCH  31  32
ENDBRANCH   2  31
TORSDOF 7
