REMARK  Name = ZINC40740337
REMARK  9 active torsions:
REMARK  status: ('A' for Active; 'I' for Inactive)
REMARK    1  A    between atoms: C_1  and  C_2
REMARK    2  A    between atoms: C_2  and  O_3
REMARK    3  A    between atoms: O_3  and  C_4
REMARK    4  A    between atoms: C_6  and  C_21
REMARK    5  A    between atoms: C_9  and  O_10
REMARK    6  A    between atoms: O_10  and  C_11
REMARK    7  A    between atoms: C_11  and  C_12
REMARK    8  A    between atoms: C_21  and  N_22
REMARK    9  A    between atoms: N_22  and  C_23
REMARK                            x       y       z     vdW  Elec       q    Type
REMARK                         _______ _______ _______ _____ _____    ______ ____
ROOT
ATOM      1  C   UNL     1      -1.498  -1.849   0.006  0.00  0.00    +0.163 A 
ATOM      2  C   UNL     1      -0.389  -2.680  -0.003  0.00  0.00    +0.051 A 
ATOM      3  C   UNL     1      -0.553  -4.052  -0.009  0.00  0.00    -0.060 A 
ATOM      4  C   UNL     1      -1.822  -4.600  -0.006  0.00  0.00    +0.021 A 
ATOM      5  C   UNL     1      -2.934  -3.777   0.003  0.00  0.00    +0.063 A 
ATOM      6  C   UNL     1      -2.776  -2.400   0.016  0.00  0.00    +0.176 A 
ATOM      7 BR   UNL     1      -4.668  -4.531   0.006  0.00  0.00    -0.046 Br
ENDROOT
BRANCH   1   8
ATOM      8  O   UNL     1      -1.339  -0.499   0.012  0.00  0.00    -0.489 OA
BRANCH   8  10
ATOM      9  C   UNL     1      -0.019   1.526   0.010  0.00  0.00    +0.048 C 
ATOM     10  C   UNL     1       0.002  -0.004   0.002  0.00  0.00    +0.226 C 
ENDBRANCH   8  10
ENDBRANCH   1   8
BRANCH   6  11
ATOM     11  O   UNL     1      -3.868  -1.589   0.030  0.00  0.00    -0.483 OA
BRANCH  11  12
ATOM     12  C   UNL     1      -4.401  -1.195  -1.236  0.00  0.00    +0.267 C 
BRANCH  12  13
ATOM     13  C   UNL     1      -5.598  -0.305  -1.022  0.00  0.00    +0.026 A 
ATOM     14  C   UNL     1      -6.861  -0.859  -0.916  0.00  0.00    +0.049 A 
ATOM     15  C   UNL     1      -7.960  -0.041  -0.720  0.00  0.00    +0.020 A 
ATOM     16  C   UNL     1      -7.796   1.328  -0.630  0.00  0.00    +0.003 A 
ATOM     17  C   UNL     1      -6.534   1.882  -0.736  0.00  0.00    +0.020 A 
ATOM     18  C   UNL     1      -5.434   1.065  -0.925  0.00  0.00    +0.049 A 
ATOM     19 CL   UNL     1      -3.848   1.760  -1.050  0.00  0.00    -0.083 Cl
ATOM     20 CL   UNL     1      -7.068  -2.579  -1.031  0.00  0.00    -0.083 Cl
ENDBRANCH  12  13
ENDBRANCH  11  12
ENDBRANCH   6  11
BRANCH   3  21
ATOM     21  C   UNL     1       0.655  -4.954  -0.020  0.00  0.00    -0.046 C 
BRANCH  21  22
ATOM     22  N   UNL     1       1.054  -5.253   1.362  0.00  0.00    +0.384 N 
ATOM     23  H   UNL     1       1.280  -4.394   1.841  0.00  0.00    -0.085 HD
ATOM     24  H   UNL     1       0.294  -5.715   1.839  0.00  0.00    -0.085 HD
BRANCH  22  25
ATOM     25  C   UNL     1       2.232  -6.132   1.351  0.00  0.00    -0.071 C 
ATOM     26  C   UNL     1       1.856  -7.482   0.737  0.00  0.00    -0.016 C 
ATOM     27  C   UNL     1       3.128  -8.242   0.359  0.00  0.00    -0.002 C 
ATOM     28  C   UNL     1       4.110  -7.289  -0.325  0.00  0.00    -0.000 C 
ATOM     29  C   UNL     1       5.335  -7.090   0.570  0.00  0.00    -0.000 C 
ATOM     30  C   UNL     1       4.976  -6.151   1.723  0.00  0.00    -0.000 C 
ATOM     31  C   UNL     1       4.144  -6.909   2.759  0.00  0.00    -0.002 C 
ATOM     32  C   UNL     1       2.723  -6.344   2.785  0.00  0.00    -0.016 C 
ENDBRANCH  22  25
ENDBRANCH  21  22
ENDBRANCH   3  21
TORSDOF 8
