REMARK  Name = ZINC59233630
REMARK  9 active torsions:
REMARK  status: ('A' for Active; 'I' for Inactive)
REMARK    1  A    between atoms: C_4  and  C_7
REMARK    2  A    between atoms: C_7  and  C_8
REMARK    3  A    between atoms: C_7  and  C_14
REMARK    4  A    between atoms: C_7  and  O_37
REMARK    5  A    between atoms: N_17  and  C_20
REMARK    6  A    between atoms: C_20  and  C_21
REMARK    7  A    between atoms: N_23  and  C_24
REMARK    8  A    between atoms: C_29  and  S_30
REMARK    9  A    between atoms: S_30  and  C_31
REMARK                            x       y       z     vdW  Elec       q    Type
REMARK                         _______ _______ _______ _____ _____    ______ ____
ROOT
ATOM      1  C   UNL     1       2.940  -3.711  -1.917  0.00  0.00    +0.026 C 
ATOM      2  C   UNL     1       2.203  -3.597  -0.580  0.00  0.00    -0.012 C 
ATOM      3  C   UNL     1       2.034  -4.993   0.023  0.00  0.00    -0.078 C 
ATOM      4  N   UNL     1       3.353  -5.600   0.240  0.00  0.00    +0.385 N 
ATOM      5  C   UNL     1       4.036  -5.778  -1.047  0.00  0.00    -0.078 C 
ATOM      6  C   UNL     1       4.283  -4.412  -1.691  0.00  0.00    -0.012 C 
ATOM      7  H   UNL     1       3.905  -4.998   0.832  0.00  0.00    -0.081 HD
ENDROOT
BRANCH   1   8
ATOM      8  C   UNL     1       3.184  -2.312  -2.488  0.00  0.00    +0.119 C 
BRANCH   8  12
ATOM      9  C   UNL     1       5.584  -2.611  -6.009  0.00  0.00    +0.000 A 
ATOM     10  C   UNL     1       5.894  -1.677  -5.038  0.00  0.00    +0.000 A 
ATOM     11  C   UNL     1       5.117  -1.580  -3.899  0.00  0.00    +0.007 A 
ATOM     12  C   UNL     1       4.030  -2.417  -3.731  0.00  0.00    -0.011 A 
ATOM     13  C   UNL     1       3.719  -3.350  -4.702  0.00  0.00    +0.007 A 
ATOM     14  C   UNL     1       4.497  -3.448  -5.840  0.00  0.00    +0.000 A 
ENDBRANCH   8  12
BRANCH   8  15
ATOM     15  C   UNL     1       1.863  -1.673  -2.833  0.00  0.00    -0.011 A 
ATOM     16  C   UNL     1       0.990  -2.312  -3.694  0.00  0.00    +0.007 A 
ATOM     17  C   UNL     1      -0.222  -1.726  -4.010  0.00  0.00    +0.000 A 
ATOM     18  C   UNL     1      -0.560  -0.502  -3.464  0.00  0.00    +0.000 A 
ATOM     19  C   UNL     1       0.312   0.136  -2.602  0.00  0.00    +0.000 A 
ATOM     20  C   UNL     1       1.522  -0.452  -2.283  0.00  0.00    +0.007 A 
ENDBRANCH   8  15
BRANCH   8  21
ATOM     21  O   UNL     1       3.861  -1.512  -1.517  0.00  0.00    -0.379 OA
ATOM     22  H   UNL     1       4.720  -1.864  -1.248  0.00  0.00    +0.211 HD
ENDBRANCH   8  21
ENDBRANCH   1   8
BRANCH   4  23
ATOM     23  C   UNL     1       3.188  -6.907   0.890  0.00  0.00    +0.019 C 
BRANCH  23  24
ATOM     24  C   UNL     1       4.543  -7.476   1.224  0.00  0.00    +0.201 C 
ATOM     25  O   UNL     1       5.547  -6.854   0.947  0.00  0.00    -0.278 OA
ATOM     26  N   UNL     1       4.639  -8.676   1.830  0.00  0.00    -0.286 N 
ATOM     27  H   UNL     1       3.837  -9.136   2.124  0.00  0.00    +0.155 HD
BRANCH  26  28
ATOM     28  C   UNL     1       5.896  -9.258   2.035  0.00  0.00    +0.047 A 
ATOM     29  C   UNL     1       7.015  -8.457   2.205  0.00  0.00    +0.024 A 
ATOM     30  C   UNL     1       8.255  -9.033   2.407  0.00  0.00    +0.002 A 
ATOM     31  C   UNL     1       8.385 -10.410   2.442  0.00  0.00    +0.001 A 
ATOM     32  C   UNL     1       7.276 -11.217   2.274  0.00  0.00    +0.017 A 
ATOM     33  C   UNL     1       6.026 -10.647   2.075  0.00  0.00    +0.034 A 
BRANCH  33  34
ATOM     34  S   UNL     1       4.609 -11.673   1.867  0.00  0.00    -0.088 S 
BRANCH  34  35
ATOM     35  C   UNL     1       5.221 -13.304   2.135  0.00  0.00    +0.013 A 
ATOM     36  C   UNL     1       5.165 -13.870   3.403  0.00  0.00    +0.015 A 
ATOM     37  C   UNL     1       5.645 -15.148   3.609  0.00  0.00    +0.001 A 
ATOM     38  C   UNL     1       6.182 -15.865   2.555  0.00  0.00    +0.000 A 
ATOM     39  C   UNL     1       6.240 -15.305   1.292  0.00  0.00    +0.001 A 
ATOM     40  C   UNL     1       5.756 -14.029   1.077  0.00  0.00    +0.015 A 
ENDBRANCH  34  35
ENDBRANCH  33  34
ENDBRANCH  26  28
ENDBRANCH  23  24
ENDBRANCH   4  23
TORSDOF 9
