REMARK  Name = ZINC09041360
REMARK  9 active torsions:
REMARK  status: ('A' for Active; 'I' for Inactive)
REMARK    1  A    between atoms: C_1  and  C_2
REMARK    2  A    between atoms: C_5  and  N_8
REMARK    3  A    between atoms: C_9  and  C_11
REMARK    4  A    between atoms: C_11  and  C_13
REMARK    5  A    between atoms: C_11  and  S_14
REMARK    6  A    between atoms: S_14  and  C_15
REMARK    7  A    between atoms: C_19  and  C_23
REMARK    8  A    between atoms: C_20  and  C_22
REMARK    9  A    between atoms: N_31  and  C_32
REMARK                            x       y       z     vdW  Elec       q    Type
REMARK                         _______ _______ _______ _____ _____    ______ ____
ROOT
ATOM      1  C   UNL     1      -2.530   4.808   2.855  0.00  0.00    +0.178 A 
ATOM      2  N   UNL     1      -3.158   4.545   1.727  0.00  0.00    -0.215 NA
ATOM      3  C   UNL     1      -2.752   3.560   0.934  0.00  0.00    +0.117 A 
ATOM      4  C   UNL     1      -1.646   2.754   1.253  0.00  0.00    +0.080 A 
ATOM      5  C   UNL     1      -1.336   1.717   0.273  0.00  0.00    +0.007 A 
ATOM      6  C   UNL     1      -2.107   1.616  -0.835  0.00  0.00    -0.003 A 
ATOM      7  S   UNL     1      -3.312   2.911  -0.620  0.00  0.00    -0.073 S 
ATOM      8  C   UNL     1      -1.979   0.639  -1.976  0.00  0.00    +0.052 C 
ATOM      9  C   UNL     1      -0.984   3.061   2.481  0.00  0.00    +0.268 A 
ATOM     10  O   UNL     1      -0.015   2.413   2.838  0.00  0.00    -0.267 OA
ATOM     11  N   UNL     1      -1.445   4.072   3.240  0.00  0.00    -0.255 N 
ENDROOT
BRANCH   5  12
ATOM     12  C   UNL     1      -0.194   0.796   0.485  0.00  0.00    -0.016 A 
ATOM     13  C   UNL     1       1.111   1.289   0.492  0.00  0.00    +0.008 A 
ATOM     14  C   UNL     1       2.170   0.426   0.684  0.00  0.00    +0.001 A 
ATOM     15  C   UNL     1       1.940  -0.926   0.869  0.00  0.00    +0.000 A 
ATOM     16  C   UNL     1       0.648  -1.420   0.862  0.00  0.00    +0.001 A 
ATOM     17  C   UNL     1      -0.419  -0.567   0.671  0.00  0.00    +0.008 A 
ENDBRANCH   5  12
BRANCH  11  18
ATOM     18  C   UNL     1      -0.800   4.376   4.446  0.00  0.00    +0.052 A 
ATOM     19  C   UNL     1       0.479   4.915   4.434  0.00  0.00    +0.026 A 
ATOM     20  C   UNL     1       1.110   5.219   5.625  0.00  0.00    +0.002 A 
ATOM     21  C   UNL     1       0.473   4.977   6.828  0.00  0.00    +0.000 A 
ATOM     22  C   UNL     1      -0.799   4.434   6.843  0.00  0.00    +0.002 A 
ATOM     23  C   UNL     1      -1.437   4.133   5.656  0.00  0.00    +0.026 A 
ENDBRANCH  11  18
BRANCH   1  24
ATOM     24  S   UNL     1      -3.098   6.124   3.881  0.00  0.00    -0.075 S 
BRANCH  24  25
ATOM     25  C   UNL     1      -4.501   6.706   2.897  0.00  0.00    +0.137 C 
ATOM     26  C   UNL     1      -3.993   7.274   1.570  0.00  0.00    +0.029 C 
BRANCH  25  28
ATOM     27  N   UNL     1      -6.537   8.015   3.404  0.00  0.00    -0.285 N 
ATOM     28  C   UNL     1      -5.234   7.782   3.655  0.00  0.00    +0.230 C 
ATOM     29  O   UNL     1      -4.651   8.439   4.492  0.00  0.00    -0.274 OA
ATOM     30  H   UNL     1      -7.021   7.446   2.786  0.00  0.00    +0.155 HD
BRANCH  27  35
ATOM     31  C   UNL     1      -9.193  12.328   5.960  0.00  0.00    +0.044 C 
ATOM     32  C   UNL     1      -8.488  11.182   5.281  0.00  0.00    -0.050 A 
ATOM     33  C   UNL     1      -7.150  11.296   4.949  0.00  0.00    +0.005 A 
ATOM     34  C   UNL     1      -6.501  10.247   4.327  0.00  0.00    +0.023 A 
ATOM     35  C   UNL     1      -7.192   9.079   4.035  0.00  0.00    +0.033 A 
ATOM     36  C   UNL     1      -8.537   8.970   4.366  0.00  0.00    +0.023 A 
ATOM     37  C   UNL     1      -9.179  10.020   4.992  0.00  0.00    +0.005 A 
ENDBRANCH  27  35
ENDBRANCH  25  28
ENDBRANCH  24  25
ENDBRANCH   1  24
TORSDOF 6
