REMARK  Name = ZINC12785789
REMARK  8 active torsions:
REMARK  status: ('A' for Active; 'I' for Inactive)
REMARK    1  A    between atoms: C_1  and  C_2
REMARK    2  A    between atoms: C_2  and  C_4
REMARK    3  A    between atoms: C_2  and  N_11
REMARK    4  A    between atoms: C_12  and  C_14
REMARK    5  A    between atoms: N_17  and  S_20
REMARK    6  A    between atoms: S_20  and  C_23
REMARK    7  A    between atoms: C_25  and  C_29
REMARK    8  A    between atoms: N_26  and  C_28
REMARK                            x       y       z     vdW  Elec       q    Type
REMARK                         _______ _______ _______ _____ _____    ______ ____
ROOT
ATOM      1  C   UNL     1      -1.930   5.349   1.885  0.00  0.00    +0.077 C 
ATOM      2  C   UNL     1      -0.802   5.309   2.918  0.00  0.00    +0.030 C 
ATOM      3  C   UNL     1      -0.593   6.712   3.496  0.00  0.00    +0.110 C 
ATOM      4  N   UNL     1      -1.875   7.203   4.021  0.00  0.00    -0.176 NA
ATOM      5  C   UNL     1      -3.048   7.200   3.136  0.00  0.00    +0.110 C 
ATOM      6  C   UNL     1      -3.229   5.791   2.562  0.00  0.00    +0.030 C 
ENDROOT
BRANCH   1   8
ATOM      7  N   UNL     1      -1.096   3.382   0.638  0.00  0.00    -0.308 N 
ATOM      8  C   UNL     1      -2.115   3.977   1.289  0.00  0.00    +0.217 C 
ATOM      9  O   UNL     1      -3.181   3.409   1.397  0.00  0.00    -0.275 OA
ATOM     10  H   UNL     1      -0.244   3.837   0.552  0.00  0.00    +0.149 HD
BRANCH   7  12
ATOM     11  C   UNL     1      -1.794   2.180  -1.374  0.00  0.00    +0.033 C 
ATOM     12  C   UNL     1      -1.276   2.049   0.059  0.00  0.00    +0.101 C 
BRANCH  12  13
ATOM     13  C   UNL     1       0.044   1.322   0.051  0.00  0.00    -0.014 A 
ATOM     14  C   UNL     1       1.226   2.037  -0.005  0.00  0.00    +0.006 A 
ATOM     15  C   UNL     1       2.437   1.370  -0.018  0.00  0.00    +0.000 A 
ATOM     16  C   UNL     1       2.467  -0.011   0.025  0.00  0.00    +0.001 A 
ATOM     17  C   UNL     1       1.286  -0.727   0.081  0.00  0.00    +0.015 A 
ATOM     18  C   UNL     1       0.073  -0.060   0.094  0.00  0.00    +0.023 A 
ATOM     19 BR   UNL     1      -1.543  -1.038   0.171  0.00  0.00    -0.050 Br
ENDBRANCH  12  13
ENDBRANCH   7  12
ENDBRANCH   1   8
BRANCH   4  20
ATOM     20  S   UNL     1      -1.995   7.749   5.579  0.00  0.00    +0.062 S 
ATOM     21  O   UNL     1      -0.689   8.152   5.970  0.00  0.00    -0.153 OA
ATOM     22  O   UNL     1      -3.108   8.632   5.616  0.00  0.00    -0.153 OA
BRANCH  20  23
ATOM     23  C   UNL     1      -2.417   6.365   6.585  0.00  0.00    +0.124 A 
ATOM     24  C   UNL     1      -1.516   5.500   7.216  0.00  0.00    +0.061 A 
ATOM     25  C   UNL     1      -2.264   4.563   7.896  0.00  0.00    +0.106 A 
ATOM     26  N   UNL     1      -3.591   4.855   7.680  0.00  0.00    -0.344 N 
ATOM     27  C   UNL     1      -3.671   5.952   6.889  0.00  0.00    +0.114 A 
ATOM     28  C   UNL     1      -4.730   4.107   8.220  0.00  0.00    +0.149 C 
BRANCH  25  29
ATOM     29  C   UNL     1      -1.740   3.455   8.702  0.00  0.00    +0.258 C 
ATOM     30  O   UNL     1      -2.503   2.637   9.181  0.00  0.00    -0.269 OA
ATOM     31  N   UNL     1      -0.413   3.343   8.912  0.00  0.00    -0.324 N 
ATOM     32  H   UNL     1       0.188   4.034   8.593  0.00  0.00    +0.145 HD
ATOM     33  H   UNL     1      -0.060   2.572   9.383  0.00  0.00    +0.145 HD
ENDBRANCH  25  29
ENDBRANCH  20  23
ENDBRANCH   4  20
TORSDOF 6
