REMARK  Name = ZINC21879097
REMARK  9 active torsions:
REMARK  status: ('A' for Active; 'I' for Inactive)
REMARK    1  A    between atoms: C_1  and  C_2
REMARK    2  A    between atoms: C_2  and  O_3
REMARK    3  A    between atoms: O_3  and  C_4
REMARK    4  A    between atoms: C_4  and  C_6
REMARK    5  A    between atoms: C_12  and  C_24
REMARK    6  A    between atoms: C_12  and  C_25
REMARK    7  A    between atoms: N_13  and  C_16
REMARK    8  A    between atoms: C_21  and  C_22
REMARK    9  A    between atoms: N_27  and  C_28
REMARK                            x       y       z     vdW  Elec       q    Type
REMARK                         _______ _______ _______ _____ _____    ______ ____
ROOT
ATOM      1  C   UNL     1      -1.092  -2.179   0.137  0.00  0.00    +0.170 A 
ATOM      2  C   UNL     1      -1.582  -3.407  -0.364  0.00  0.00    +0.069 A 
ATOM      3  C   UNL     1      -2.930  -3.296  -0.315  0.00  0.00    +0.125 A 
ATOM      4  N   UNL     1      -3.224  -2.051   0.199  0.00  0.00    -0.256 N 
ATOM      5  N   UNL     1      -2.138  -1.427   0.441  0.00  0.00    -0.164 NA
ATOM      6  C   UNL     1      -4.614  -1.624   0.408  0.00  0.00    +0.179 C 
ATOM      7  C   UNL     1      -5.510  -2.298  -0.629  0.00  0.00    +0.135 C 
ATOM      8  N   UNL     1      -5.254  -3.729  -0.747  0.00  0.00    -0.250 N 
ATOM      9  C   UNL     1      -3.995  -4.230  -0.718  0.00  0.00    +0.270 C 
ATOM     10  O   UNL     1      -3.758  -5.387  -1.008  0.00  0.00    -0.268 OA
ATOM     11  C   UNL     1      -5.274  -1.639  -1.989  0.00  0.00    +0.044 C 
ENDROOT
BRANCH   8  12
ATOM     12  C   UNL     1      -6.334  -4.607  -0.894  0.00  0.00    +0.041 A 
ATOM     13  C   UNL     1      -6.873  -4.842  -2.153  0.00  0.00    +0.026 A 
ATOM     14  C   UNL     1      -7.939  -5.708  -2.296  0.00  0.00    +0.040 A 
ATOM     15  C   UNL     1      -8.470  -6.343  -1.185  0.00  0.00    +0.124 A 
ATOM     16  C   UNL     1      -7.934  -6.111   0.070  0.00  0.00    +0.043 A 
ATOM     17  C   UNL     1      -6.865  -5.248   0.217  0.00  0.00    -0.026 A 
ATOM     18  C   UNL     1      -6.278  -5.000   1.583  0.00  0.00    +0.046 C 
ATOM     19  F   UNL     1      -9.512  -7.191  -1.328  0.00  0.00    -0.205 F 
ENDBRANCH   8  12
BRANCH   7  20
ATOM     20  C   UNL     1      -6.949  -2.093  -0.232  0.00  0.00    +0.239 C 
ATOM     21  O   UNL     1      -7.223  -1.733   0.893  0.00  0.00    -0.273 OA
ATOM     22  N   UNL     1      -7.933  -2.308  -1.129  0.00  0.00    -0.311 N 
ATOM     23  H   UNL     1      -7.692  -2.718  -2.121  0.00  0.00    +0.149 HD
BRANCH  22  24
ATOM     24  C   UNL     1      -9.322  -1.997  -0.782  0.00  0.00    +0.073 C 
ATOM     25  C   UNL     1      -9.979  -3.211  -0.094  0.00  0.00    +0.022 C 
ATOM     26  C   UNL     1     -11.435  -3.205  -0.624  0.00  0.00    +0.002 C 
ATOM     27  C   UNL     1     -11.258  -2.777  -2.102  0.00  0.00    +0.002 C 
ATOM     28  C   UNL     1     -10.135  -1.721  -2.058  0.00  0.00    +0.022 C 
ENDBRANCH  22  24
ENDBRANCH   7  20
BRANCH   1  29
ATOM     29  C   UNL     1       0.327  -1.802   0.287  0.00  0.00    +0.359 C 
ATOM     30  O   UNL     1       1.200  -2.585  -0.029  0.00  0.00    -0.243 OA
BRANCH  29  31
ATOM     31  O   UNL     1       0.654  -0.590   0.776  0.00  0.00    -0.460 OA
BRANCH  31  33
ATOM     32  C   UNL     1       2.242   1.123   1.465  0.00  0.00    +0.048 C 
ATOM     33  C   UNL     1       2.069  -0.287   0.896  0.00  0.00    +0.229 C 
ENDBRANCH  31  33
ENDBRANCH  29  31
ENDBRANCH   1  29
TORSDOF 6
