REMARK  Name = ZINC21938242
REMARK  4 active torsions:
REMARK  status: ('A' for Active; 'I' for Inactive)
REMARK    1  A    between atoms: C_7  and  C_11
REMARK    2  A    between atoms: C_11  and  C_12
REMARK    3  A    between atoms: C_12  and  N_13
REMARK    4  A    between atoms: C_14  and  C_16
REMARK                            x       y       z     vdW  Elec       q    Type
REMARK                         _______ _______ _______ _____ _____    ______ ____
ROOT
ATOM      1  N   UNL     1      -6.040   1.683  -0.592  0.00  0.00    -0.311 N 
ATOM      2  C   UNL     1      -4.876   1.003  -0.585  0.00  0.00    +0.244 C 
ATOM      3  O   UNL     1      -4.866  -0.188  -0.832  0.00  0.00    -0.270 OA
ATOM      4  H   UNL     1      -6.050   2.760  -0.369  0.00  0.00    +0.149 HD
ENDROOT
BRANCH   2   5
ATOM      5  C   UNL     1      -3.615   1.704  -0.279  0.00  0.00    +0.039 A 
ATOM      6  C   UNL     1      -3.624   3.073   0.005  0.00  0.00    +0.015 A 
ATOM      7  C   UNL     1      -2.447   3.726   0.310  0.00  0.00    +0.026 A 
ATOM      8  C   UNL     1      -1.243   3.029   0.320  0.00  0.00    +0.052 A 
ATOM      9  C   UNL     1      -1.229   1.663   0.017  0.00  0.00    +0.055 A 
ATOM     10  C   UNL     1      -2.406   1.002  -0.271  0.00  0.00    +0.038 A 
ATOM     11  N   UNL     1      -0.011   0.966   0.007  0.00  0.00    -0.282 N 
ATOM     12  C   UNL     1       1.142   1.669   0.000  0.00  0.00    +0.238 C 
ATOM     13  O   UNL     1       2.209   1.098   0.082  0.00  0.00    -0.273 OA
ATOM     14  C   UNL     1       1.088   3.169  -0.111  0.00  0.00    +0.160 C 
ATOM     15  N   UNL     1      -0.062   3.691   0.628  0.00  0.00    -0.317 N 
ATOM     16  C   UNL     1      -0.187   5.144   0.466  0.00  0.00    +0.106 C 
ATOM     17  C   UNL     1       1.061   5.824   1.035  0.00  0.00    +0.019 C 
ATOM     18  C   UNL     1       2.302   5.306   0.304  0.00  0.00    +0.004 C 
ATOM     19  C   UNL     1       2.375   3.782   0.445  0.00  0.00    +0.032 C 
ATOM     20  H   UNL     1      -0.007  -0.134   0.006  0.00  0.00    +0.155 HD
ENDBRANCH   2   5
BRANCH   1  21
ATOM     21  C   UNL     1      -7.293   0.986  -0.896  0.00  0.00    +0.109 C 
BRANCH  21  22
ATOM     22  C   UNL     1      -8.455   1.979  -0.837  0.00  0.00    +0.056 C 
BRANCH  22  29
ATOM     23  C   UNL     1     -11.459  -0.504   1.768  0.00  0.00    +0.001 A 
ATOM     24  C   UNL     1     -12.536  -0.989   1.038  0.00  0.00    +0.002 A 
ATOM     25  C   UNL     1     -12.649  -0.721  -0.309  0.00  0.00    +0.026 A 
ATOM     26  C   UNL     1     -11.669   0.033  -0.948  0.00  0.00    +0.047 A 
ATOM     27  C   UNL     1     -10.579   0.519  -0.204  0.00  0.00    +0.003 A 
ATOM     28  C   UNL     1     -10.488   0.242   1.161  0.00  0.00    +0.010 A 
ATOM     29  C   UNL     1      -9.744   1.263  -1.150  0.00  0.00    -0.021 A 
ATOM     30  C   UNL     1     -10.341   1.181  -2.350  0.00  0.00    +0.087 A 
ATOM     31  N   UNL     1     -11.493   0.450  -2.248  0.00  0.00    -0.360 N 
ATOM     32  H   UNL     1     -12.231   0.179  -3.018  0.00  0.00    +0.165 HD
ENDBRANCH  22  29
ENDBRANCH  21  22
ENDBRANCH   1  21
TORSDOF 4
