REMARK  Name = ZINC63537953
REMARK  5 active torsions:
REMARK  status: ('A' for Active; 'I' for Inactive)
REMARK    1  A    between atoms: C_6  and  C_7
REMARK    2  A    between atoms: C_10  and  C_34
REMARK    3  A    between atoms: C_15  and  C_18
REMARK    4  A    between atoms: N_20  and  C_21
REMARK    5  A    between atoms: C_21  and  C_22
REMARK                            x       y       z     vdW  Elec       q    Type
REMARK                         _______ _______ _______ _____ _____    ______ ____
ROOT
ATOM      1  C   UNL     1      -1.294  -0.774   0.010  0.00  0.00    +0.113 C 
ATOM      2  C   UNL     1      -1.839  -0.832   1.438  0.00  0.00    +0.062 C 
ATOM      3  C   UNL     1      -3.193  -1.555   1.441  0.00  0.00    +0.198 C 
ATOM      4  N   UNL     1      -4.051  -0.882   0.448  0.00  0.00    -0.243 N 
ATOM      5  C   UNL     1      -3.520  -0.206  -0.628  0.00  0.00    +0.087 C 
ATOM      6  C   UNL     1      -4.666   0.363  -1.431  0.00  0.00    +0.100 C 
ATOM      7  C   UNL     1      -5.878  -0.431  -0.884  0.00  0.00    +0.165 C 
ATOM      8  N   UNL     1      -5.411  -0.829   0.464  0.00  0.00    -0.226 NA
ATOM      9  N   UNL     1      -2.258  -0.110  -0.873  0.00  0.00    -0.369 N 
ATOM     10  H   UNL     1      -5.739  -0.183   1.166  0.00  0.00    +0.145 HD
ATOM     11  H   UNL     1      -1.949   0.397  -1.640  0.00  0.00    +0.161 HD
ENDROOT
BRANCH   1  17
ATOM     12  C   UNL     1      -0.017   1.378   0.010  0.00  0.00    +0.009 A 
ATOM     13  C   UNL     1       1.170   2.088   0.002  0.00  0.00    +0.050 A 
ATOM     14  C   UNL     1       2.380   1.416  -0.013  0.00  0.00    +0.166 A 
ATOM     15  C   UNL     1       2.399   0.023  -0.021  0.00  0.00    +0.167 A 
ATOM     16  C   UNL     1       1.207  -0.682  -0.014  0.00  0.00    +0.055 A 
ATOM     17  C   UNL     1       0.002  -0.004   0.002  0.00  0.00    -0.021 A 
ATOM     18  O   UNL     1       3.698  -0.395  -0.036  0.00  0.00    -0.453 OA
ATOM     19  C   UNL     1       4.466   0.750  -0.450  0.00  0.00    +0.466 C 
ATOM     20  O   UNL     1       3.668   1.870  -0.024  0.00  0.00    -0.453 OA
ENDBRANCH   1  17
BRANCH   7  21
ATOM     21  C   UNL     1      -7.099   0.448  -0.795  0.00  0.00    +0.232 C 
ATOM     22  O   UNL     1      -7.425   0.927   0.271  0.00  0.00    -0.274 OA
ATOM     23  N   UNL     1      -7.829   0.701  -1.899  0.00  0.00    -0.312 N 
ATOM     24  H   UNL     1      -7.568   0.317  -2.751  0.00  0.00    +0.149 HD
BRANCH  23  25
ATOM     25  C   UNL     1      -9.016   1.555  -1.813  0.00  0.00    +0.133 C 
BRANCH  25  26
ATOM     26  C   UNL     1      -9.656   1.679  -3.197  0.00  0.00    +0.120 C 
ATOM     27  C   UNL     1     -10.979   2.404  -3.095  0.00  0.00    +0.009 C 
ATOM     28  C   UNL     1     -11.917   1.536  -3.539  0.00  0.00    -0.003 A 
ATOM     29  C   UNL     1     -13.374   1.637  -3.687  0.00  0.00    +0.029 A 
ATOM     30  C   UNL     1     -14.059   0.575  -4.170  0.00  0.00    +0.042 A 
ATOM     31  C   UNL     1     -13.414  -0.617  -4.532  0.00  0.00    +0.022 A 
ATOM     32  C   UNL     1     -12.079  -0.784  -4.424  0.00  0.00    +0.027 A 
ATOM     33  C   UNL     1     -11.260   0.268  -3.927  0.00  0.00    +0.043 A 
ATOM     34  N   UNL     1      -9.965   0.349  -3.733  0.00  0.00    -0.376 N 
ATOM     35 CL   UNL     1     -15.783   0.690  -4.347  0.00  0.00    -0.084 Cl
ATOM     36  H   UNL     1      -9.319  -0.353  -3.913  0.00  0.00    +0.160 HD
ENDBRANCH  25  26
ENDBRANCH  23  25
ENDBRANCH   7  21
BRANCH   3  37
ATOM     37  C   UNL     1      -3.830  -1.462   2.829  0.00  0.00    +0.409 C 
ATOM     38  F   UNL     1      -4.024  -0.117   3.164  0.00  0.00    -0.169 F 
ATOM     39  F   UNL     1      -5.063  -2.123   2.822  0.00  0.00    -0.169 F 
ATOM     40  F   UNL     1      -2.986  -2.060   3.771  0.00  0.00    -0.169 F 
ENDBRANCH   3  37
TORSDOF 5
