REMARK  Name = ZINC14987159
REMARK  8 active torsions:
REMARK  status: ('A' for Active; 'I' for Inactive)
REMARK    1  A    between atoms: C_1  and  N_67
REMARK    2  A    between atoms: C_2  and  C_3
REMARK    3  A    between atoms: C_2  and  N_67
REMARK    4  A    between atoms: C_7  and  O_9
REMARK    5  A    between atoms: O_9  and  C_10
REMARK    6  A    between atoms: C_16  and  C_18
REMARK    7  A    between atoms: C_25  and  C_26
REMARK    8  A    between atoms: C_25  and  N_67
REMARK                            x       y       z     vdW  Elec       q    Type
REMARK                         _______ _______ _______ _____ _____    ______ ____
ROOT
ATOM      1  C   UNL     1      -9.201   6.529  -1.964  0.00  0.00    -0.060 A 
ATOM      2  C   UNL     1      -9.088   7.271  -0.802  0.00  0.00    +0.002 A 
ATOM      3  C   UNL     1      -8.312   6.809   0.244  0.00  0.00    +0.004 A 
ATOM      4  C   UNL     1      -7.651   5.601   0.134  0.00  0.00    +0.045 A 
ATOM      5  C   UNL     1      -7.757   4.857  -1.032  0.00  0.00    +0.121 A 
ATOM      6  C   UNL     1      -8.537   5.324  -2.081  0.00  0.00    +0.047 A 
ENDROOT
BRANCH   1   7
ATOM      7  C   UNL     1     -10.048   7.036  -3.102  0.00  0.00    -0.043 C 
BRANCH   7   9
ATOM      8  C   UNL     1     -12.057   7.122  -1.754  0.00  0.00    -0.095 C 
ATOM      9  N   UNL     1     -11.422   6.515  -2.943  0.00  0.00    +0.383 N 
ATOM     10  H   UNL     1     -11.380   5.497  -2.815  0.00  0.00    -0.081 HD
BRANCH   9  11
ATOM     11  C   UNL     1     -12.219   6.815  -4.151  0.00  0.00    -0.042 C 
BRANCH  11  12
ATOM     12  C   UNL     1     -13.567   6.153  -4.021  0.00  0.00    -0.056 A 
ATOM     13  C   UNL     1     -14.672   6.899  -3.745  0.00  0.00    +0.002 A 
ATOM     14  C   UNL     1     -15.926   6.305  -3.622  0.00  0.00    +0.001 A 
ATOM     15  C   UNL     1     -16.084   4.962  -3.775  0.00  0.00    +0.008 A 
ATOM     16  C   UNL     1     -14.966   4.159  -4.061  0.00  0.00    -0.018 A 
ATOM     17  C   UNL     1     -13.691   4.764  -4.191  0.00  0.00    -0.017 A 
ATOM     18  C   UNL     1     -12.573   3.961  -4.473  0.00  0.00    +0.009 A 
ATOM     19  C   UNL     1     -12.730   2.618  -4.626  0.00  0.00    +0.001 A 
ATOM     20  C   UNL     1     -13.985   2.023  -4.502  0.00  0.00    +0.001 A 
ATOM     21  C   UNL     1     -15.089   2.769  -4.226  0.00  0.00    +0.008 A 
ENDBRANCH  11  12
ENDBRANCH   9  11
ENDBRANCH   7   9
ENDBRANCH   1   7
BRANCH   5  22
ATOM     22  O   UNL     1      -7.102   3.672  -1.146  0.00  0.00    -0.489 OA
BRANCH  22  23
ATOM     23  C   UNL     1      -6.256   3.292  -0.059  0.00  0.00    +0.176 C 
ATOM     24  C   UNL     1      -6.068   1.773  -0.066  0.00  0.00    +0.063 C 
ATOM     25  C   UNL     1      -5.188   1.365   1.120  0.00  0.00    +0.111 C 
ATOM     26  N   UNL     1      -3.934   2.128   1.063  0.00  0.00    -0.297 N 
ATOM     27  C   UNL     1      -4.002   3.594   0.981  0.00  0.00    +0.111 C 
ATOM     28  C   UNL     1      -4.895   3.976  -0.209  0.00  0.00    +0.063 C 
ATOM     29  C   UNL     1      -2.744   1.497   1.090  0.00  0.00    +0.247 C 
ATOM     30  O   UNL     1      -2.700   0.282   1.066  0.00  0.00    -0.270 OA
BRANCH  29  31
ATOM     31  C   UNL     1      -1.492   2.281   1.150  0.00  0.00    +0.038 A 
ATOM     32  C   UNL     1      -0.340   1.812   0.515  0.00  0.00    +0.013 A 
ATOM     33  C   UNL     1       0.823   2.551   0.569  0.00  0.00    +0.002 A 
ATOM     34  C   UNL     1       0.853   3.752   1.255  0.00  0.00    +0.020 A 
ATOM     35  C   UNL     1      -0.284   4.220   1.892  0.00  0.00    +0.042 A 
ATOM     36  C   UNL     1      -1.455   3.490   1.845  0.00  0.00    +0.033 A 
ATOM     37 CL   UNL     1      -0.237   5.729   2.749  0.00  0.00    -0.084 Cl
ENDBRANCH  29  31
ENDBRANCH  22  23
ENDBRANCH   5  22
TORSDOF 7
