REMARK  Name = ZINC03620015
REMARK  9 active torsions:
REMARK  status: ('A' for Active; 'I' for Inactive)
REMARK    1  A    between atoms: C_1  and  C_2
REMARK    2  A    between atoms: C_7  and  C_8
REMARK    3  A    between atoms: C_7  and  N_64
REMARK    4  A    between atoms: C_8  and  C_10
REMARK    5  A    between atoms: C_8  and  C_11
REMARK    6  A    between atoms: C_11  and  N_12
REMARK    7  A    between atoms: C_13  and  C_15
REMARK    8  A    between atoms: C_15  and  O_33
REMARK    9  A    between atoms: N_25  and  C_26
REMARK                            x       y       z     vdW  Elec       q    Type
REMARK                         _______ _______ _______ _____ _____    ______ ____
ROOT
ATOM      1  C   UNL     1      -3.309   4.326  -0.521  0.00  0.00    +0.247 C 
ATOM      2  C   UNL     1      -2.127   3.391  -0.407  0.00  0.00    +0.034 A 
ATOM      3  C   UNL     1      -2.220   2.072  -0.785  0.00  0.00    +0.025 A 
ATOM      4  C   UNL     1      -1.117   1.242  -0.662  0.00  0.00    +0.018 A 
ATOM      5  C   UNL     1       0.074   1.744  -0.170  0.00  0.00    +0.017 A 
ATOM      6  C   UNL     1       0.171   3.070   0.206  0.00  0.00    +0.025 A 
ATOM      7  C   UNL     1      -0.933   3.903   0.089  0.00  0.00    +0.043 A 
ATOM      8  N   UNL     1      -0.855   5.246   0.463  0.00  0.00    -0.269 N 
ATOM      9  C   UNL     1      -1.891   6.089   0.370  0.00  0.00    +0.314 C 
ATOM     10  O   UNL     1      -1.732   7.243   0.719  0.00  0.00    -0.252 OA
ATOM     11  N   UNL     1      -3.099   5.720  -0.093  0.00  0.00    -0.214 N 
ATOM     12 BR   UNL     1      -1.239  -0.574  -1.174  0.00  0.00    -0.050 Br
ATOM     13  H   UNL     1      -0.013   5.583   0.807  0.00  0.00    +0.156 HD
ENDROOT
BRANCH  11  14
ATOM     14  C   UNL     1      -4.144   6.648  -0.168  0.00  0.00    +0.041 A 
ATOM     15  C   UNL     1      -4.074   7.703  -1.068  0.00  0.00    +0.024 A 
ATOM     16  C   UNL     1      -5.108   8.615  -1.143  0.00  0.00    +0.002 A 
ATOM     17  C   UNL     1      -6.208   8.485  -0.315  0.00  0.00    +0.000 A 
ATOM     18  C   UNL     1      -6.278   7.439   0.587  0.00  0.00    +0.002 A 
ATOM     19  C   UNL     1      -5.249   6.520   0.663  0.00  0.00    +0.024 A 
ENDBRANCH  11  14
BRANCH   1  21
ATOM     20  N   UNL     1      -2.896   4.745  -2.924  0.00  0.00    -0.311 N 
ATOM     21  C   UNL     1      -3.750   4.344  -1.962  0.00  0.00    +0.269 C 
ATOM     22  O   UNL     1      -4.875   3.997  -2.256  0.00  0.00    -0.270 OA
ATOM     23  H   UNL     1      -1.996   5.023  -2.688  0.00  0.00    +0.149 HD
BRANCH  20  24
ATOM     24  C   UNL     1      -3.325   4.762  -4.324  0.00  0.00    +0.105 C 
BRANCH  24  25
ATOM     25  C   UNL     1      -2.174   5.254  -5.204  0.00  0.00    -0.014 C 
ATOM     26  C   UNL     1      -1.022   4.250  -5.146  0.00  0.00    +0.007 C 
BRANCH  25  27
ATOM     27  C   UNL     1      -2.659   5.391  -6.649  0.00  0.00    -0.074 C 
BRANCH  27  34
ATOM     28  C   UNL     1      -6.253   9.772  -7.401  0.00  0.00    +0.007 C 
ATOM     29  C   UNL     1      -5.021   8.866  -7.444  0.00  0.00    -0.018 C 
ATOM     30  C   UNL     1      -5.386   7.537  -8.111  0.00  0.00    -0.016 C 
ATOM     31  C   UNL     1      -4.167   6.612  -8.097  0.00  0.00    -0.079 C 
ATOM     32  C   UNL     1      -3.340   7.639  -6.064  0.00  0.00    -0.079 C 
ATOM     33  C   UNL     1      -4.535   8.595  -6.017  0.00  0.00    -0.016 C 
ATOM     34  N   UNL     1      -3.764   6.372  -6.695  0.00  0.00    +0.380 N 
ATOM     35  H   UNL     1      -4.566   5.994  -6.178  0.00  0.00    -0.082 HD
ENDBRANCH  27  34
ENDBRANCH  25  27
ENDBRANCH  24  25
ENDBRANCH  20  24
ENDBRANCH   1  21
BRANCH   1  36
ATOM     36  O   UNL     1      -4.378   3.782   0.256  0.00  0.00    -0.360 OA
ATOM     37  H   UNL     1      -4.663   2.904  -0.029  0.00  0.00    +0.213 HD
ENDBRANCH   1  36
TORSDOF 7
