REMARK  Name = ZINC11995715
REMARK  8 active torsions:
REMARK  status: ('A' for Active; 'I' for Inactive)
REMARK    1  A    between atoms: C_1  and  C_2
REMARK    2  A    between atoms: C_10  and  C_13
REMARK    3  A    between atoms: C_13  and  N_63
REMARK    4  A    between atoms: C_20  and  C_24
REMARK    5  A    between atoms: C_24  and  C_26
REMARK    6  A    between atoms: C_24  and  O_34
REMARK    7  A    between atoms: C_26  and  C_27
REMARK    8  A    between atoms: C_27  and  C_28
REMARK                            x       y       z     vdW  Elec       q    Type
REMARK                         _______ _______ _______ _____ _____    ______ ____
ROOT
ATOM      1  C   UNL     1      -0.763  -2.765  -1.249  0.00  0.00    -0.036 C 
ATOM      2  C   UNL     1      -1.424  -1.404  -1.256  0.00  0.00    +0.210 C 
ATOM      3  O   UNL     1      -1.165  -0.705  -0.032  0.00  0.00    -0.494 OA
ATOM      4  C   UNL     1       0.002  -0.004   0.002  0.00  0.00    +0.122 A 
ATOM      5  C   UNL     1      -0.017   1.383   0.010  0.00  0.00    +0.046 A 
ATOM      6  C   UNL     1       1.175   2.083   0.002  0.00  0.00    +0.010 A 
ATOM      7  C   UNL     1       2.380   1.405  -0.013  0.00  0.00    -0.019 A 
ATOM      8  C   UNL     1       2.398   0.021  -0.013  0.00  0.00    +0.011 A 
ATOM      9  C   UNL     1       1.208  -0.678   0.003  0.00  0.00    -0.022 A 
ATOM     10  C   UNL     1       1.217  -2.193   0.048  0.00  0.00    -0.039 C 
ATOM     11  N   UNL     1       0.713  -2.688  -1.256  0.00  0.00    +0.387 N 
ATOM     12  H   UNL     1       1.006  -2.035  -1.992  0.00  0.00    -0.081 HD
ENDROOT
BRANCH  11  13
ATOM     13  C   UNL     1       1.281  -4.015  -1.543  0.00  0.00    -0.035 C 
BRANCH  13  23
ATOM     14  C   UNL     1      -0.164  -4.753  -8.902  0.00  0.00    +0.044 C 
ATOM     15  C   UNL     1      -0.402  -5.117  -7.460  0.00  0.00    -0.050 A 
ATOM     16  C   UNL     1      -1.354  -6.073  -7.136  0.00  0.00    +0.007 A 
ATOM     17  C   UNL     1      -1.587  -6.419  -5.822  0.00  0.00    +0.047 A 
ATOM     18  C   UNL     1      -0.863  -5.807  -4.806  0.00  0.00    +0.138 A 
ATOM     19  C   UNL     1       0.101  -4.839  -5.135  0.00  0.00    +0.064 A 
ATOM     20  C   UNL     1       0.327  -4.498  -6.467  0.00  0.00    +0.018 A 
ATOM     21  C   UNL     1       0.852  -4.200  -4.037  0.00  0.00    +0.194 A 
ATOM     22  O   UNL     1       1.698  -3.350  -4.257  0.00  0.00    -0.287 OA
ATOM     23  C   UNL     1       0.552  -4.620  -2.715  0.00  0.00    +0.018 A 
ATOM     24  C   UNL     1      -0.392  -5.558  -2.513  0.00  0.00    +0.201 A 
ATOM     25  O   UNL     1      -1.072  -6.129  -3.513  0.00  0.00    -0.462 OA
ENDBRANCH  13  23
ENDBRANCH  11  13
BRANCH   7  26
ATOM     26  C   UNL     1       3.676   2.174  -0.030  0.00  0.00    +0.145 C 
BRANCH  26  27
ATOM     27  O   UNL     1       3.570   3.305   0.837  0.00  0.00    -0.387 OA
ATOM     28  H   UNL     1       2.867   3.924   0.592  0.00  0.00    +0.210 HD
ENDBRANCH  26  27
BRANCH  26  29
ATOM     29  C   UNL     1       3.968   2.649  -1.455  0.00  0.00    +0.041 C 
BRANCH  29  30
ATOM     30  C   UNL     1       5.342   3.321  -1.496  0.00  0.00    +0.038 C 
BRANCH  30  31
ATOM     31  C   UNL     1       5.631   3.789  -2.899  0.00  0.00    -0.047 A 
ATOM     32  C   UNL     1       6.277   2.951  -3.788  0.00  0.00    +0.003 A 
ATOM     33  C   UNL     1       6.536   3.378  -5.077  0.00  0.00    +0.000 A 
ATOM     34  C   UNL     1       6.160   4.648  -5.473  0.00  0.00    +0.000 A 
ATOM     35  C   UNL     1       5.519   5.488  -4.583  0.00  0.00    +0.000 A 
ATOM     36  C   UNL     1       5.254   5.059  -3.296  0.00  0.00    +0.003 A 
ENDBRANCH  30  31
ENDBRANCH  29  30
ENDBRANCH  26  29
ENDBRANCH   7  26
TORSDOF 7
