REMARK  Name = ZINC10166884
REMARK  13 active torsions:
REMARK  status: ('A' for Active; 'I' for Inactive)
REMARK    1  A    between atoms: C_1  and  C_2
REMARK    2  A    between atoms: C_2  and  C_3
REMARK    3  A    between atoms: C_8  and  O_34
REMARK    4  A    between atoms: C_9  and  C_11
REMARK    5  A    between atoms: C_11  and  C_13
REMARK    6  A    between atoms: C_11  and  N_22
REMARK    7  A    between atoms: C_16  and  C_19
REMARK    8  A    between atoms: C_19  and  C_20
REMARK    9  A    between atoms: C_19  and  C_21
REMARK   10  A    between atoms: C_26  and  C_29
REMARK   11  A    between atoms: C_29  and  O_31
REMARK   12  A    between atoms: O_31  and  C_32
REMARK   13  A    between atoms: C_32  and  C_33
REMARK                            x       y       z     vdW  Elec       q    Type
REMARK                         _______ _______ _______ _____ _____    ______ ____
ROOT
ATOM      1  C   UNL     1      -6.961  -2.571  -0.749  0.00  0.00    +0.005 C 
ENDROOT
BRANCH   1   8
ATOM      2  C   UNL     1      -1.412  -0.526   0.013  0.00  0.00    +0.152 A 
ATOM      3  N   UNL     1      -2.127  -0.793   1.104  0.00  0.00    -0.205 NA
ATOM      4  C   UNL     1      -3.306  -1.227   0.751  0.00  0.00    +0.199 A 
ATOM      5  N   UNL     1      -3.395  -1.255  -0.607  0.00  0.00    -0.173 N 
ATOM      6  N   UNL     1      -2.131  -0.782  -1.047  0.00  0.00    -0.147 NA
ATOM      7  C   UNL     1      -4.579  -1.691  -1.151  0.00  0.00    +0.225 A 
ATOM      8  C   UNL     1      -5.593  -2.068  -0.364  0.00  0.00    +0.045 A 
ATOM      9  S   UNL     1      -4.901  -1.817   1.264  0.00  0.00    -0.050 S 
BRANCH   2  11
ATOM     10  C   UNL     1      -0.019   1.526   0.010  0.00  0.00    +0.012 C 
ATOM     11  C   UNL     1       0.002  -0.004   0.002  0.00  0.00    +0.075 C 
ENDBRANCH   2  11
BRANCH   7  12
ATOM     12  O   UNL     1      -4.722  -1.740  -2.503  0.00  0.00    -0.492 OA
ATOM     13  H   UNL     1      -3.939  -1.449  -2.992  0.00  0.00    +0.294 HD
ENDBRANCH   7  12
ENDBRANCH   1   8
BRANCH   1  14
ATOM     14  N   UNL     1      -7.987  -1.742  -0.102  0.00  0.00    +0.388 N 
ATOM     15  C   UNL     1      -9.318  -2.239  -0.471  0.00  0.00    -0.077 C 
ATOM     16  C   UNL     1     -10.390  -1.430   0.264  0.00  0.00    -0.018 C 
ATOM     17  C   UNL     1     -10.267   0.045  -0.127  0.00  0.00    +0.011 C 
ATOM     18  C   UNL     1      -8.851   0.532   0.194  0.00  0.00    +0.081 C 
ATOM     19  C   UNL     1      -7.836  -0.349  -0.539  0.00  0.00    -0.063 C 
ATOM     20  H   UNL     1      -7.877  -1.794   0.900  0.00  0.00    -0.080 HD
BRANCH  18  21
ATOM     21  C   UNL     1      -8.695   1.961  -0.257  0.00  0.00    +0.308 C 
ATOM     22  O   UNL     1      -7.856   2.248  -1.078  0.00  0.00    -0.251 OA
BRANCH  21  23
ATOM     23  O   UNL     1      -9.489   2.916   0.253  0.00  0.00    -0.465 OA
BRANCH  23  24
ATOM     24  C   UNL     1      -9.287   4.249  -0.220  0.00  0.00    +0.229 C 
ATOM     25  C   UNL     1     -10.276   5.191   0.470  0.00  0.00    +0.048 C 
ENDBRANCH  23  24
ENDBRANCH  21  23
ENDBRANCH  18  21
ENDBRANCH   1  14
BRANCH   1  26
ATOM     26  C   UNL     1      -7.114  -4.002  -0.301  0.00  0.00    -0.056 A 
ATOM     27  C   UNL     1      -7.425  -4.284   1.015  0.00  0.00    +0.002 A 
ATOM     28  C   UNL     1      -7.566  -5.597   1.426  0.00  0.00    +0.004 A 
ATOM     29  C   UNL     1      -7.397  -6.626   0.519  0.00  0.00    -0.045 A 
ATOM     30  C   UNL     1      -7.087  -6.344  -0.798  0.00  0.00    +0.004 A 
ATOM     31  C   UNL     1      -6.950  -5.031  -1.209  0.00  0.00    +0.002 A 
BRANCH  29  32
ATOM     32  C   UNL     1      -7.550  -8.057   0.967  0.00  0.00    +0.013 C 
ATOM     33  C   UNL     1      -8.675  -8.723   0.172  0.00  0.00    +0.012 C 
ATOM     34  C   UNL     1      -6.240  -8.810   0.725  0.00  0.00    +0.012 C 
ENDBRANCH  29  32
ENDBRANCH   1  26
TORSDOF 9
