REMARK  Name = ZINC01798292
REMARK  10 active torsions:
REMARK  status: ('A' for Active; 'I' for Inactive)
REMARK    1  A    between atoms: C_1  and  C_2
REMARK    2  A    between atoms: C_2  and  C_3
REMARK    3  A    between atoms: C_3  and  C_4
REMARK    4  A    between atoms: C_4  and  C_5
REMARK    5  A    between atoms: C_5  and  O_6
REMARK    6  A    between atoms: O_6  and  C_7
REMARK    7  A    between atoms: C_10  and  C_13
REMARK    8  A    between atoms: C_19  and  C_21
REMARK    9  A    between atoms: C_24  and  O_27
REMARK   10  A    between atoms: O_27  and  C_28
REMARK                            x       y       z     vdW  Elec       q    Type
REMARK                         _______ _______ _______ _____ _____    ______ ____
ROOT
ATOM      1  C   UNL     1      -7.812  -6.647   0.040  0.00  0.00    +0.294 C 
ATOM      2  N   UNL     1      -7.665  -7.978   0.586  0.00  0.00    -0.175 NA
ATOM      3  C   UNL     1      -6.546  -8.665  -0.132  0.00  0.00    +0.138 C 
ATOM      4  C   UNL     1      -6.443  -9.922   0.688  0.00  0.00    +0.023 C 
ATOM      5  C   UNL     1      -6.926  -9.569   1.902  0.00  0.00    +0.047 C 
ATOM      6  N   UNL     1      -7.323  -8.211   1.874  0.00  0.00    -0.273 N 
ATOM      7  C   UNL     1      -6.995  -8.802  -1.549  0.00  0.00    +0.018 A 
ATOM      8  C   UNL     1      -6.595  -9.858  -2.338  0.00  0.00    +0.024 A 
ATOM      9  C   UNL     1      -7.022  -9.944  -3.651  0.00  0.00    +0.018 A 
ATOM     10  C   UNL     1      -7.853  -8.967  -4.170  0.00  0.00    +0.019 A 
ATOM     11  C   UNL     1      -8.260  -7.910  -3.382  0.00  0.00    +0.047 A 
ATOM     12  C   UNL     1      -7.840  -7.818  -2.060  0.00  0.00    +0.128 A 
ATOM     13  O   UNL     1      -8.298  -6.796  -1.306  0.00  0.00    -0.468 OA
ATOM     14 BR   UNL     1      -6.472 -11.394  -4.733  0.00  0.00    -0.050 Br
ATOM     15  H   UNL     1      -7.345  -7.585   2.614  0.00  0.00    +0.167 HD
ENDROOT
BRANCH   1  19
ATOM     16  C   UNL     1      -4.031  -4.655   0.015  0.00  0.00    +0.121 A 
ATOM     17  C   UNL     1      -4.827  -4.648  -1.121  0.00  0.00    +0.046 A 
ATOM     18  C   UNL     1      -6.049  -5.293  -1.110  0.00  0.00    +0.012 A 
ATOM     19  C   UNL     1      -6.479  -5.945   0.032  0.00  0.00    +0.009 A 
ATOM     20  C   UNL     1      -5.687  -5.952   1.165  0.00  0.00    +0.012 A 
ATOM     21  C   UNL     1      -4.462  -5.314   1.158  0.00  0.00    +0.046 A 
BRANCH  16  22
ATOM     22  O   UNL     1      -2.829  -4.021   0.007  0.00  0.00    -0.492 OA
BRANCH  22  23
ATOM     23  C   UNL     1      -2.450  -3.364  -1.204  0.00  0.00    +0.229 C 
BRANCH  23  24
ATOM     24  C   UNL     1      -1.077  -2.713  -1.023  0.00  0.00    +0.041 C 
BRANCH  24  25
ATOM     25  C   UNL     1      -0.672  -2.009  -2.319  0.00  0.00    +0.003 C 
BRANCH  25  27
ATOM     26  C   UNL     1       1.106  -0.653  -3.434  0.00  0.00    +0.004 C 
ATOM     27  C   UNL     1       0.701  -1.357  -2.138  0.00  0.00    -0.003 C 
ENDBRANCH  25  27
ENDBRANCH  24  25
ENDBRANCH  23  24
ENDBRANCH  22  23
ENDBRANCH  16  22
ENDBRANCH   1  19
BRANCH   5  28
ATOM     28  C   UNL     1      -7.025 -10.465   3.077  0.00  0.00    -0.003 A 
ATOM     29  C   UNL     1      -6.595 -11.789   2.985  0.00  0.00    +0.013 A 
ATOM     30  C   UNL     1      -6.688 -12.620   4.082  0.00  0.00    +0.046 A 
ATOM     31  C   UNL     1      -7.209 -12.140   5.276  0.00  0.00    +0.120 A 
ATOM     32  C   UNL     1      -7.639 -10.823   5.371  0.00  0.00    +0.046 A 
ATOM     33  C   UNL     1      -7.542  -9.985   4.281  0.00  0.00    +0.013 A 
BRANCH  31  34
ATOM     34  O   UNL     1      -7.300 -12.962   6.354  0.00  0.00    -0.495 OA
ATOM     35  C   UNL     1      -7.846 -12.404   7.551  0.00  0.00    +0.277 C 
ENDBRANCH  31  34
ENDBRANCH   5  28
TORSDOF 8
