REMARK  Name = ZINC16614066
REMARK  11 active torsions:
REMARK  status: ('A' for Active; 'I' for Inactive)
REMARK    1  A    between atoms: C_1  and  C_2
REMARK    2  A    between atoms: C_4  and  C_36
REMARK    3  A    between atoms: C_5  and  S_9
REMARK    4  A    between atoms: C_6  and  C_8
REMARK    5  A    between atoms: S_9  and  N_12
REMARK    6  A    between atoms: N_12  and  C_13
REMARK    7  A    between atoms: C_17  and  C_19
REMARK    8  A    between atoms: C_21  and  C_31
REMARK    9  A    between atoms: C_22  and  C_30
REMARK   10  A    between atoms: N_33  and  C_34
REMARK   11  A    between atoms: N_33  and  C_35
REMARK                            x       y       z     vdW  Elec       q    Type
REMARK                         _______ _______ _______ _____ _____    ______ ____
ROOT
ATOM      1  C   UNL     1      -4.325   3.738   4.738  0.00  0.00    +0.048 A 
ATOM      2  C   UNL     1      -5.498   3.376   4.087  0.00  0.00    +0.024 A 
ATOM      3  C   UNL     1      -6.188   4.311   3.341  0.00  0.00    +0.002 A 
ATOM      4  C   UNL     1      -5.713   5.606   3.241  0.00  0.00    +0.006 A 
ATOM      5  C   UNL     1      -4.546   5.969   3.888  0.00  0.00    -0.021 A 
ATOM      6  C   UNL     1      -3.854   5.040   4.641  0.00  0.00    +0.030 A 
ENDROOT
BRANCH   5   7
ATOM      7  C   UNL     1      -4.032   7.381   3.777  0.00  0.00    +0.143 C 
ATOM      8  C   UNL     1      -3.516   7.628   2.380  0.00  0.00    +0.060 C 
ATOM      9  C   UNL     1      -4.350   8.162   1.443  0.00  0.00    +0.051 C 
ATOM     10  N   UNL     1      -5.599   8.506   1.754  0.00  0.00    -0.230 NA
ATOM     11  C   UNL     1      -6.000   8.585   3.011  0.00  0.00    +0.157 C 
ATOM     12  N   UNL     1      -5.131   8.333   4.035  0.00  0.00    -0.299 N 
ATOM     13  C   UNL     1      -5.203   8.984   5.329  0.00  0.00    +0.109 C 
ATOM     14  C   UNL     1      -6.599   9.269   5.833  0.00  0.00    +0.030 C 
ATOM     15  C   UNL     1      -7.429  10.039   4.808  0.00  0.00    +0.079 C 
ATOM     16  S   UNL     1      -7.687   8.967   3.367  0.00  0.00    -0.090 S 
ATOM     17  C   UNL     1      -3.853   8.365   0.035  0.00  0.00    +0.066 C 
BRANCH   8  18
ATOM     18  C   UNL     1      -2.185   7.311   2.048  0.00  0.00    +0.246 C 
ATOM     19  O   UNL     1      -1.881   6.160   1.784  0.00  0.00    -0.270 OA
ATOM     20  N   UNL     1      -1.248   8.278   2.023  0.00  0.00    -0.304 N 
ATOM     21  C   UNL     1       0.117   7.965   1.591  0.00  0.00    +0.132 C 
ATOM     22  C   UNL     1      -1.593   9.643   2.428  0.00  0.00    +0.132 C 
ENDBRANCH   8  18
ENDBRANCH   5   7
BRANCH   1  23
ATOM     23  N   UNL     1      -3.625   2.795   5.495  0.00  0.00    -0.216 N 
ATOM     24  H   UNL     1      -3.631   2.848   6.463  0.00  0.00    +0.174 HD
BRANCH  23  25
ATOM     25  S   UNL     1      -2.784   1.585   4.738  0.00  0.00    +0.073 S 
ATOM     26  O   UNL     1      -3.701   0.937   3.867  0.00  0.00    -0.150 OA
ATOM     27  O   UNL     1      -2.074   0.889   5.752  0.00  0.00    -0.150 OA
BRANCH  25  32
ATOM     28  C   UNL     1       1.357   4.222   1.230  0.00  0.00    +0.044 C 
ATOM     29  C   UNL     1       0.323   3.563   2.106  0.00  0.00    -0.050 A 
ATOM     30  C   UNL     1       0.612   3.287   3.429  0.00  0.00    +0.008 A 
ATOM     31  C   UNL     1      -0.338   2.687   4.234  0.00  0.00    -0.023 A 
ATOM     32  C   UNL     1      -1.575   2.355   3.713  0.00  0.00    +0.114 A 
ATOM     33  C   UNL     1      -1.862   2.626   2.389  0.00  0.00    -0.023 A 
ATOM     34  C   UNL     1      -0.913   3.230   1.585  0.00  0.00    +0.008 A 
ATOM     35  C   UNL     1      -3.210   2.264   1.821  0.00  0.00    +0.046 C 
ATOM     36  C   UNL     1      -0.024   2.392   5.678  0.00  0.00    +0.046 C 
ENDBRANCH  25  32
ENDBRANCH  23  25
ENDBRANCH   1  23
TORSDOF 5
