REMARK  Name = ZINC02719769
REMARK  6 active torsions:
REMARK  status: ('A' for Active; 'I' for Inactive)
REMARK    1  A    between atoms: C_1  and  C_2
REMARK    2  A    between atoms: C_5  and  N_8
REMARK    3  A    between atoms: C_14  and  S_15
REMARK    4  A    between atoms: S_15  and  C_16
REMARK    5  A    between atoms: C_16  and  C_17
REMARK    6  A    between atoms: N_19  and  C_20
REMARK                            x       y       z     vdW  Elec       q    Type
REMARK                         _______ _______ _______ _____ _____    ______ ____
ROOT
ATOM      1  N   UNL     1       5.171   1.439   0.289  0.00  0.00    -0.255 N 
ATOM      2  C   UNL     1       6.260   2.201   0.538  0.00  0.00    +0.273 A 
ATOM      3  O   UNL     1       7.315   1.689   0.877  0.00  0.00    -0.266 OA
ATOM      4  C   UNL     1       6.150   3.591   0.403  0.00  0.00    +0.094 A 
ATOM      5  C   UNL     1       4.957   4.181   0.035  0.00  0.00    +0.064 A 
ATOM      6  N   UNL     1       3.917   3.353  -0.207  0.00  0.00    -0.227 NA
ATOM      7  C   UNL     1       4.012   2.052  -0.091  0.00  0.00    +0.177 A 
ATOM      8  C   UNL     1       4.945   5.688  -0.038  0.00  0.00    +0.068 C 
ATOM      9  C   UNL     1       6.372   6.265  -0.176  0.00  0.00    +0.081 C 
ATOM     10  S   UNL     1       7.326   4.906   0.620  0.00  0.00    -0.118 S 
ENDROOT
BRANCH   1  15
ATOM     11  C   UNL     1       5.418  -4.207   0.801  0.00  0.00    +0.044 C 
ATOM     12  C   UNL     1       5.352  -2.708   0.664  0.00  0.00    -0.050 A 
ATOM     13  C   UNL     1       6.047  -2.076  -0.350  0.00  0.00    +0.005 A 
ATOM     14  C   UNL     1       5.989  -0.702  -0.477  0.00  0.00    +0.026 A 
ATOM     15  C   UNL     1       5.231   0.045   0.415  0.00  0.00    +0.052 A 
ATOM     16  C   UNL     1       4.539  -0.592   1.437  0.00  0.00    +0.026 A 
ATOM     17  C   UNL     1       4.597  -1.967   1.555  0.00  0.00    +0.005 A 
ENDBRANCH   1  15
BRANCH   7  18
ATOM     18  S   UNL     1       2.596   1.061  -0.431  0.00  0.00    -0.078 S 
BRANCH  18  19
ATOM     19  C   UNL     1       1.404   2.353  -0.862  0.00  0.00    +0.173 C 
BRANCH  19  20
ATOM     20  C   UNL     1       0.078   1.722  -1.200  0.00  0.00    +0.228 C 
ATOM     21  O   UNL     1      -0.048   0.516  -1.155  0.00  0.00    -0.275 OA
ATOM     22  N   UNL     1      -0.965   2.496  -1.558  0.00  0.00    -0.284 N 
ATOM     23  H   UNL     1      -0.885   3.462  -1.529  0.00  0.00    +0.155 HD
BRANCH  22  24
ATOM     24  C   UNL     1      -2.162   1.907  -1.973  0.00  0.00    +0.041 A 
ATOM     25  C   UNL     1      -2.531   0.670  -1.491  0.00  0.00    +0.024 A 
ATOM     26  C   UNL     1      -3.721   0.074  -1.897  0.00  0.00    +0.002 A 
ATOM     27  C   UNL     1      -4.553   0.695  -2.779  0.00  0.00    +0.008 A 
ATOM     28  C   UNL     1      -4.213   1.958  -3.293  0.00  0.00    -0.016 A 
ATOM     29  C   UNL     1      -3.006   2.576  -2.884  0.00  0.00    +0.003 A 
ATOM     30  C   UNL     1      -2.666   3.836  -3.402  0.00  0.00    +0.010 A 
ATOM     31  C   UNL     1      -3.503   4.450  -4.283  0.00  0.00    +0.001 A 
ATOM     32  C   UNL     1      -4.692   3.845  -4.684  0.00  0.00    +0.001 A 
ATOM     33  C   UNL     1      -5.052   2.622  -4.205  0.00  0.00    +0.008 A 
ENDBRANCH  22  24
ENDBRANCH  19  20
ENDBRANCH  18  19
ENDBRANCH   7  18
TORSDOF 5
