REMARK  Name = ZINC35886296
REMARK  6 active torsions:
REMARK  status: ('A' for Active; 'I' for Inactive)
REMARK    1  A    between atoms: C_4  and  C_7
REMARK    2  A    between atoms: C_7  and  C_8
REMARK    3  A    between atoms: N_11  and  C_14
REMARK    4  A    between atoms: C_14  and  C_15
REMARK    5  A    between atoms: C_20  and  C_22
REMARK    6  A    between atoms: C_29  and  C_31
REMARK                            x       y       z     vdW  Elec       q    Type
REMARK                         _______ _______ _______ _____ _____    ______ ____
ROOT
ATOM      1  C   UNL     1       6.943  -4.032   4.729  0.00  0.00    -0.001 C 
ATOM      2  C   UNL     1       8.048  -3.009   4.390  0.00  0.00    +0.110 C 
ATOM      3  N   UNL     1       8.537  -2.536   5.707  0.00  0.00    -0.297 N 
ATOM      4  C   UNL     1       8.557  -3.754   6.549  0.00  0.00    +0.116 C 
ATOM      5  C   UNL     1       7.277  -4.526   6.152  0.00  0.00    +0.039 C 
ATOM      6  C   UNL     1       8.884  -1.282   6.058  0.00  0.00    +0.247 C 
ATOM      7  O   UNL     1       8.710  -0.363   5.281  0.00  0.00    -0.270 OA
ENDROOT
BRANCH   6   8
ATOM      8  C   UNL     1       9.474  -1.024   7.386  0.00  0.00    +0.041 A 
ATOM      9  C   UNL     1      10.098  -2.059   8.087  0.00  0.00    +0.017 A 
ATOM     10  C   UNL     1      10.650  -1.816   9.326  0.00  0.00    +0.050 A 
ATOM     11  C   UNL     1      10.588  -0.545   9.882  0.00  0.00    +0.166 A 
ATOM     12  C   UNL     1       9.966   0.492   9.187  0.00  0.00    +0.167 A 
ATOM     13  C   UNL     1       9.416   0.256   7.942  0.00  0.00    +0.062 A 
ATOM     14  O   UNL     1      10.039   1.627   9.942  0.00  0.00    -0.453 OA
ATOM     15  C   UNL     1      10.348   1.182  11.276  0.00  0.00    +0.466 C 
ATOM     16  O   UNL     1      11.050  -0.058  11.069  0.00  0.00    -0.453 OA
ENDBRANCH   6   8
BRANCH   5  17
ATOM     17  C   UNL     1       7.539  -6.010   6.143  0.00  0.00    -0.040 A 
ATOM     18  C   UNL     1       8.570  -6.525   5.379  0.00  0.00    +0.004 A 
ATOM     19  C   UNL     1       8.812  -7.886   5.370  0.00  0.00    +0.003 A 
ATOM     20  C   UNL     1       8.023  -8.734   6.124  0.00  0.00    +0.038 A 
ATOM     21  C   UNL     1       6.990  -8.219   6.890  0.00  0.00    +0.124 A 
ATOM     22  C   UNL     1       6.753  -6.855   6.903  0.00  0.00    +0.042 A 
ATOM     23  F   UNL     1       6.218  -9.047   7.627  0.00  0.00    -0.205 F 
ENDBRANCH   5  17
BRANCH   1  24
ATOM     24  C   UNL     1       5.570  -3.358   4.709  0.00  0.00    -0.073 C 
BRANCH  24  28
ATOM     25  C   UNL     1       2.072  -5.779   4.465  0.00  0.00    -0.010 C 
ATOM     26  C   UNL     1       2.164  -4.695   5.543  0.00  0.00    -0.015 C 
ATOM     27  C   UNL     1       3.235  -3.677   5.145  0.00  0.00    -0.079 C 
ATOM     28  N   UNL     1       4.532  -4.351   5.015  0.00  0.00    +0.380 N 
ATOM     29  C   UNL     1       4.472  -5.342   3.934  0.00  0.00    -0.079 C 
ATOM     30  C   UNL     1       3.449  -6.425   4.285  0.00  0.00    -0.015 C 
ATOM     31  H   UNL     1       4.758  -4.814   5.882  0.00  0.00    -0.082 HD
BRANCH  25  32
ATOM     32  C   UNL     1       1.060  -6.843   4.894  0.00  0.00    +0.038 C 
BRANCH  32  36
ATOM     33  C   UNL     1      -2.843  -5.116   5.057  0.00  0.00    +0.000 A 
ATOM     34  C   UNL     1      -2.389  -5.688   3.883  0.00  0.00    +0.000 A 
ATOM     35  C   UNL     1      -1.126  -6.247   3.831  0.00  0.00    +0.003 A 
ATOM     36  C   UNL     1      -0.317  -6.233   4.951  0.00  0.00    -0.047 A 
ATOM     37  C   UNL     1      -0.771  -5.660   6.125  0.00  0.00    +0.003 A 
ATOM     38  C   UNL     1      -2.034  -5.103   6.178  0.00  0.00    +0.000 A 
ENDBRANCH  32  36
ENDBRANCH  25  32
ENDBRANCH  24  28
ENDBRANCH   1  24
TORSDOF 6
