REMARK  Name = ZINC58853663
REMARK  10 active torsions:
REMARK  status: ('A' for Active; 'I' for Inactive)
REMARK    1  A    between atoms: C_1  and  C_2
REMARK    2  A    between atoms: C_4  and  C_15
REMARK    3  A    between atoms: C_5  and  C_14
REMARK    4  A    between atoms: N_6  and  C_7
REMARK    5  A    between atoms: N_16  and  N_17
REMARK    6  A    between atoms: C_18  and  C_20
REMARK    7  A    between atoms: C_23  and  N_26
REMARK    8  A    between atoms: N_26  and  C_27
REMARK    9  A    between atoms: N_26  and  S_28
REMARK   10  A    between atoms: S_28  and  C_31
REMARK                            x       y       z     vdW  Elec       q    Type
REMARK                         _______ _______ _______ _____ _____    ______ ____
ROOT
ATOM      1  N   UNL     1      -0.103  -5.741  -1.640  0.00  0.00    -0.203 N 
ATOM      2  C   UNL     1       0.125  -6.948  -1.086  0.00  0.00    +0.263 C 
ATOM      3  O   UNL     1       0.326  -7.040   0.111  0.00  0.00    -0.268 OA
ATOM      4  H   UNL     1      -0.264  -5.668  -2.594  0.00  0.00    +0.178 HD
ENDROOT
BRANCH   2   5
ATOM      5  C   UNL     1       0.130  -8.158  -1.929  0.00  0.00    +0.038 A 
ATOM      6  C   UNL     1      -0.097  -8.054  -3.305  0.00  0.00    +0.015 A 
ATOM      7  C   UNL     1      -0.091  -9.185  -4.089  0.00  0.00    +0.025 A 
ATOM      8  C   UNL     1       0.138 -10.432  -3.514  0.00  0.00    +0.051 A 
ATOM      9  C   UNL     1       0.363 -10.539  -2.144  0.00  0.00    +0.025 A 
ATOM     10  C   UNL     1       0.366  -9.411  -1.355  0.00  0.00    +0.015 A 
BRANCH   8  11
ATOM     11  N   UNL     1       0.142 -11.572  -4.309  0.00  0.00    -0.206 N 
ATOM     12  C   UNL     1       1.107 -11.699  -5.404  0.00  0.00    +0.157 C 
BRANCH  11  13
ATOM     13  S   UNL     1      -0.944 -12.789  -4.018  0.00  0.00    +0.074 S 
ATOM     14  O   UNL     1      -0.321 -13.997  -4.432  0.00  0.00    -0.150 OA
ATOM     15  O   UNL     1      -1.426 -12.595  -2.695  0.00  0.00    -0.150 OA
BRANCH  13  16
ATOM     16  C   UNL     1      -2.314 -12.533  -5.096  0.00  0.00    +0.109 A 
ATOM     17  C   UNL     1      -3.380 -11.754  -4.686  0.00  0.00    +0.029 A 
ATOM     18  C   UNL     1      -4.455 -11.553  -5.531  0.00  0.00    +0.002 A 
ATOM     19  C   UNL     1      -4.463 -12.130  -6.787  0.00  0.00    +0.000 A 
ATOM     20  C   UNL     1      -3.397 -12.909  -7.197  0.00  0.00    +0.002 A 
ATOM     21  C   UNL     1      -2.320 -13.106  -6.353  0.00  0.00    +0.029 A 
ENDBRANCH  13  16
ENDBRANCH  11  13
ENDBRANCH   8  11
ENDBRANCH   2   5
BRANCH   1  23
ATOM     22  C   UNL     1      -0.328  -3.429  -1.373  0.00  0.00    +0.140 C 
ATOM     23  N   UNL     1      -0.108  -4.592  -0.839  0.00  0.00    -0.187 NA
BRANCH  22  27
ATOM     24  C   UNL     1      -0.644   1.431   0.157  0.00  0.00    +0.064 C 
ATOM     25  C   UNL     1      -0.476  -0.067   0.126  0.00  0.00    +0.022 A 
ATOM     26  C   UNL     1      -0.562  -0.841  -0.972  0.00  0.00    +0.032 A 
ATOM     27  C   UNL     1      -0.332  -2.220  -0.530  0.00  0.00    +0.016 A 
ATOM     28  C   UNL     1      -0.123  -2.160   0.818  0.00  0.00    +0.030 A 
ATOM     29  N   UNL     1      -0.206  -0.858   1.205  0.00  0.00    -0.316 N 
ATOM     30  C   UNL     1       0.157  -3.334   1.721  0.00  0.00    +0.064 C 
BRANCH  29  31
ATOM     31  C   UNL     1      -0.042  -0.398   2.519  0.00  0.00    +0.065 A 
ATOM     32  C   UNL     1      -1.137  -0.311   3.368  0.00  0.00    +0.027 A 
ATOM     33  C   UNL     1      -0.972   0.143   4.662  0.00  0.00    +0.002 A 
ATOM     34  C   UNL     1       0.282   0.511   5.113  0.00  0.00    +0.002 A 
ATOM     35  C   UNL     1       1.375   0.426   4.270  0.00  0.00    +0.022 A 
ATOM     36  C   UNL     1       1.218  -0.033   2.976  0.00  0.00    +0.065 A 
ATOM     37 CL   UNL     1       2.592  -0.145   1.921  0.00  0.00    -0.081 Cl
ENDBRANCH  29  31
ENDBRANCH  22  27
ENDBRANCH   1  23
TORSDOF 7
