REMARK  Name = ZINC64058174
REMARK  9 active torsions:
REMARK  status: ('A' for Active; 'I' for Inactive)
REMARK    1  A    between atoms: C_1  and  C_2
REMARK    2  A    between atoms: C_2  and  C_4
REMARK    3  A    between atoms: C_2  and  S_13
REMARK    4  A    between atoms: C_7  and  C_10
REMARK    5  A    between atoms: C_10  and  C_11
REMARK    6  A    between atoms: C_10  and  C_12
REMARK    7  A    between atoms: S_13  and  C_14
REMARK    8  A    between atoms: C_18  and  C_20
REMARK    9  A    between atoms: C_21  and  C_22
REMARK                            x       y       z     vdW  Elec       q    Type
REMARK                         _______ _______ _______ _____ _____    ______ ____
ROOT
ATOM      1  C   UNL     1      -2.335  -0.110   1.573  0.00  0.00    +0.185 A 
ATOM      2  N   UNL     1      -3.579  -0.351   2.044  0.00  0.00    -0.253 N 
ATOM      3  H   UNL     1      -4.286  -0.839   1.593  0.00  0.00    +0.191 HD
ATOM      4  N   UNL     1      -3.649   0.244   3.314  0.00  0.00    -0.152 NA
ATOM      5  C   UNL     1      -2.477   0.799   3.541  0.00  0.00    +0.175 A 
ATOM      6  N   UNL     1      -1.680   0.576   2.483  0.00  0.00    -0.202 NA
ENDROOT
BRANCH   5   7
ATOM      7  C   UNL     1      -2.099   1.539   4.759  0.00  0.00    +0.050 C 
ATOM      8  C   UNL     1      -2.986   1.690   5.755  0.00  0.00    +0.011 C 
BRANCH   8   9
ATOM      9  C   UNL     1      -2.609   2.430   6.972  0.00  0.00    -0.025 A 
ATOM     10  C   UNL     1      -1.330   2.980   7.091  0.00  0.00    +0.011 A 
ATOM     11  C   UNL     1      -0.982   3.671   8.232  0.00  0.00    +0.039 A 
ATOM     12  C   UNL     1      -1.899   3.820   9.261  0.00  0.00    +0.123 A 
ATOM     13  C   UNL     1      -3.169   3.277   9.150  0.00  0.00    +0.039 A 
ATOM     14  C   UNL     1      -3.531   2.589   8.010  0.00  0.00    +0.011 A 
ATOM     15  F   UNL     1      -1.553   4.498  10.377  0.00  0.00    -0.205 F 
ENDBRANCH   8   9
ENDBRANCH   5   7
BRANCH   1  16
ATOM     16  S   UNL     1      -1.700  -0.632   0.015  0.00  0.00    -0.079 S 
BRANCH  16  18
ATOM     17  C   UNL     1      -0.019   1.526   0.010  0.00  0.00    +0.024 C 
ATOM     18  C   UNL     1       0.002  -0.004   0.002  0.00  0.00    +0.103 C 
BRANCH  18  19
ATOM     19  C   UNL     1       0.718  -0.497  -1.257  0.00  0.00    +0.256 C 
ATOM     20  N   UNL     1       0.672  -1.963  -1.327  0.00  0.00    -0.345 N 
ATOM     21  C   UNL     1       1.877  -2.417  -1.311  0.00  0.00    +0.105 C 
ATOM     22  N   UNL     1       2.796  -1.410  -1.235  0.00  0.00    -0.252 N 
ATOM     23  O   UNL     1       2.114  -0.164  -1.199  0.00  0.00    -0.247 OA
ATOM     24  H   UNL     1       3.759  -1.526  -1.210  0.00  0.00    +0.195 HD
ATOM     25  H   UNL     1      -0.133  -2.502  -1.377  0.00  0.00    +0.163 HD
BRANCH  21  26
ATOM     26  C   UNL     1       2.231  -3.880  -1.369  0.00  0.00    +0.048 C 
ATOM     27  C   UNL     1       3.639  -4.043  -1.943  0.00  0.00    +0.015 C 
ATOM     28  C   UNL     1       2.183  -4.473   0.041  0.00  0.00    +0.015 C 
ENDBRANCH  21  26
ENDBRANCH  18  19
ENDBRANCH  16  18
ENDBRANCH   1  16
TORSDOF 6
