REMARK  Name = ZINC08715747
REMARK  10 active torsions:
REMARK  status: ('A' for Active; 'I' for Inactive)
REMARK    1  A    between atoms: C_1  and  C_2
REMARK    2  A    between atoms: C_2  and  O_4
REMARK    3  A    between atoms: O_4  and  C_5
REMARK    4  A    between atoms: C_5  and  C_6
REMARK    5  A    between atoms: CA_7  and  C_33
REMARK    6  A    between atoms: CA_11  and  N_15
REMARK    7  A    between atoms: C_16  and  C_18
REMARK    8  A    between atoms: C_18  and  N_19
REMARK    9  A    between atoms: C_20  and  C_28
REMARK   10  A    between atoms: C_22  and  C_24
REMARK                            x       y       z     vdW  Elec       q    Type
REMARK                         _______ _______ _______ _____ _____    ______ ____
ROOT
ATOM      1  C   UNL     1      -7.136   2.322  -0.240  0.00  0.00    +0.006 C 
ATOM      2  CA  UNL     1      -6.518   1.468   0.559  0.00  0.00    +0.130 C 
ATOM      3  N   UNL     1      -5.332   0.828   0.146  0.00  0.00    -0.249 N 
ATOM      4  C   UNL     1      -4.862   0.673  -1.272  0.00  0.00    +0.169 C 
ATOM      5  CA  UNL     1      -3.529   0.406  -0.594  0.00  0.00    +0.191 C 
ATOM      6  C   UNL     1      -4.252   0.288   0.729  0.00  0.00    +0.244 C 
ATOM      7  O   UNL     1      -3.975  -0.119   1.838  0.00  0.00    -0.273 OA
ATOM      8  S   UNL     1      -5.043   2.325  -2.025  0.00  0.00    -0.131 S 
ATOM      9  C   UNL     1      -6.777   2.716  -1.636  0.00  0.00    +0.107 C 
ENDROOT
BRANCH   5  10
ATOM     10  N   UNL     1      -2.610   1.546  -0.652  0.00  0.00    -0.300 N 
ATOM     11  C   UNL     1      -1.280   1.345  -0.562  0.00  0.00    +0.235 C 
ATOM     12  O   UNL     1      -0.844   0.221  -0.433  0.00  0.00    -0.274 OA
ATOM     13  H   UNL     1      -2.959   2.445  -0.756  0.00  0.00    +0.150 HD
BRANCH  11  14
ATOM     14  C   UNL     1      -0.336   2.517  -0.629  0.00  0.00    +0.239 C 
BRANCH  14  15
ATOM     15  N   UNL     1       1.044   2.039  -0.515  0.00  0.00    -0.257 N 
ATOM     16  C   UNL     1       1.846   1.675  -1.539  0.00  0.00    +0.062 A 
ATOM     17  C   UNL     1       3.036   1.297  -1.017  0.00  0.00    +0.090 A 
ATOM     18  C   UNL     1       2.959   1.434   0.373  0.00  0.00    +0.147 A 
ATOM     19  N   UNL     1       1.768   1.884   0.674  0.00  0.00    -0.168 NA
ATOM     20 CL   UNL     1       4.414   0.739  -1.913  0.00  0.00    -0.080 Cl
BRANCH  18  21
ATOM     21  C   UNL     1       4.060   1.124   1.355  0.00  0.00    +0.393 C 
ATOM     22  F   UNL     1       4.416  -0.225   1.245  0.00  0.00    -0.202 F 
ATOM     23  F   UNL     1       5.173   1.924   1.075  0.00  0.00    -0.202 F 
ENDBRANCH  18  21
BRANCH  16  24
ATOM     24  C   UNL     1       1.481   1.688  -3.001  0.00  0.00    +0.039 C 
ATOM     25  C   UNL     1       2.375   0.898  -3.959  0.00  0.00    +0.010 C 
ATOM     26  C   UNL     1       2.418   2.428  -3.957  0.00  0.00    +0.010 C 
ENDBRANCH  16  24
ENDBRANCH  14  15
ENDBRANCH  11  14
ENDBRANCH   5  10
BRANCH   2  27
ATOM     27  C   UNL     1      -7.075   1.182   1.893  0.00  0.00    +0.401 C 
ATOM     28  O   UNL     1      -6.486   0.435   2.650  0.00  0.00    -0.239 OA
ATOM     29  OXT UNL     1      -8.237   1.748   2.273  0.00  0.00    -0.239 OA
ENDBRANCH   2  27
BRANCH   1  30
ATOM     30  C   UNL     1      -8.361   2.986   0.334  0.00  0.00    +0.266 C 
BRANCH  30  31
ATOM     31  O   UNL     1      -8.821   4.021  -0.575  0.00  0.00    -0.460 OA
BRANCH  31  33
ATOM     32  C   UNL     1     -10.571   5.641  -1.214  0.00  0.00    +0.136 C 
ATOM     33  C   UNL     1      -9.967   4.644  -0.259  0.00  0.00    +0.304 C 
ATOM     34  O   UNL     1     -10.514   4.406   0.792  0.00  0.00    -0.251 OA
ENDBRANCH  31  33
ENDBRANCH  30  31
ENDBRANCH   1  30
TORSDOF 9
