REMARK  Name = ZINC19961889
REMARK  8 active torsions:
REMARK  status: ('A' for Active; 'I' for Inactive)
REMARK    1  A    between atoms: C_1  and  C_2
REMARK    2  A    between atoms: C_2  and  C_3
REMARK    3  A    between atoms: C_8  and  N_9
REMARK    4  A    between atoms: C_10  and  C_12
REMARK    5  A    between atoms: C_12  and  C_13
REMARK    6  A    between atoms: C_21  and  C_23
REMARK    7  A    between atoms: C_23  and  N_24
REMARK    8  A    between atoms: N_27  and  C_30
REMARK                            x       y       z     vdW  Elec       q    Type
REMARK                         _______ _______ _______ _____ _____    ______ ____
ROOT
ATOM      1  C   UNL     1      -9.485   4.315   2.623  0.00  0.00    +0.170 C 
ATOM      2  C   UNL     1     -10.901   4.149   2.141  0.00  0.00    +0.234 C 
ATOM      3  O   UNL     1     -11.688   3.558   2.849  0.00  0.00    -0.274 OA
ATOM      4  N   UNL     1     -11.331   4.624   0.971  0.00  0.00    -0.312 N 
ATOM      5  C   UNL     1     -10.483   5.274  -0.019  0.00  0.00    +0.123 C 
ATOM      6  C   UNL     1      -9.210   5.827   0.634  0.00  0.00    +0.127 C 
ATOM      7  N   UNL     1      -8.652   4.776   1.502  0.00  0.00    -0.289 N 
ATOM      8  C   UNL     1      -7.426   4.263   1.282  0.00  0.00    +0.200 C 
ATOM      9  O   UNL     1      -6.989   3.401   2.016  0.00  0.00    -0.278 OA
ATOM     10  H   UNL     1     -12.406   4.498   0.776  0.00  0.00    +0.149 HD
ENDROOT
BRANCH   1  11
ATOM     11  C   UNL     1      -9.445   5.348   3.751  0.00  0.00    +0.128 C 
BRANCH  11  13
ATOM     12  N   UNL     1      -7.771   6.283   5.313  0.00  0.00    -0.285 N 
ATOM     13  C   UNL     1      -8.046   5.433   4.304  0.00  0.00    +0.219 C 
ATOM     14  O   UNL     1      -7.168   4.736   3.842  0.00  0.00    -0.275 OA
ATOM     15  H   UNL     1      -8.544   6.979   5.671  0.00  0.00    +0.155 HD
BRANCH  12  21
ATOM     16  C   UNL     1      -6.028   7.421   6.537  0.00  0.00    -0.026 A 
ATOM     17  C   UNL     1      -4.778   7.413   7.125  0.00  0.00    +0.005 A 
ATOM     18  C   UNL     1      -3.996   6.274   7.074  0.00  0.00    +0.000 A 
ATOM     19  C   UNL     1      -4.464   5.138   6.441  0.00  0.00    +0.002 A 
ATOM     20  C   UNL     1      -5.715   5.137   5.856  0.00  0.00    +0.023 A 
ATOM     21  C   UNL     1      -6.503   6.280   5.905  0.00  0.00    +0.037 A 
BRANCH  16  23
ATOM     22  C   UNL     1      -7.834   8.583   7.777  0.00  0.00    +0.009 C 
ATOM     23  C   UNL     1      -6.877   8.665   6.586  0.00  0.00    +0.033 C 
ENDBRANCH  16  23
ENDBRANCH  12  21
ENDBRANCH  11  13
ENDBRANCH   1  11
BRANCH   8  24
ATOM     24  C   UNL     1      -6.598   4.758   0.125  0.00  0.00    +0.019 C 
BRANCH  24  25
ATOM     25  N   UNL     1      -5.313   4.047   0.102  0.00  0.00    +0.387 N 
ATOM     26  C   UNL     1      -4.578   4.327  -1.140  0.00  0.00    -0.059 C 
ATOM     27  C   UNL     1      -3.285   3.507  -1.160  0.00  0.00    +0.086 C 
ATOM     28  N   UNL     1      -2.474   3.847   0.017  0.00  0.00    -0.331 N 
ATOM     29  C   UNL     1      -3.209   3.567   1.258  0.00  0.00    +0.086 C 
ATOM     30  C   UNL     1      -4.501   4.387   1.279  0.00  0.00    -0.059 C 
ATOM     31  H   UNL     1      -5.525   2.968   0.135  0.00  0.00    -0.081 HD
BRANCH  28  32
ATOM     32  C   UNL     1      -1.251   3.170  -0.005  0.00  0.00    +0.065 A 
ATOM     33  C   UNL     1      -1.224   1.782  -0.017  0.00  0.00    +0.026 A 
ATOM     34  C   UNL     1      -0.014   1.115  -0.033  0.00  0.00    +0.002 A 
ATOM     35  C   UNL     1       1.170   1.828  -0.048  0.00  0.00    +0.003 A 
ATOM     36  C   UNL     1       1.149   3.211  -0.042  0.00  0.00    +0.040 A 
ATOM     37  C   UNL     1      -0.058   3.885  -0.021  0.00  0.00    +0.144 A 
ATOM     38  F   UNL     1      -0.079   5.236  -0.015  0.00  0.00    -0.204 F 
ENDBRANCH  28  32
ENDBRANCH  24  25
ENDBRANCH   8  24
TORSDOF 7
