REMARK  Name = ZINC39363342
REMARK  9 active torsions:
REMARK  status: ('A' for Active; 'I' for Inactive)
REMARK    1  A    between atoms: C_1  and  N_2
REMARK    2  A    between atoms: N_2  and  C_3
REMARK    3  A    between atoms: N_2  and  C_31
REMARK    4  A    between atoms: C_3  and  C_4
REMARK    5  A    between atoms: C_8  and  O_10
REMARK    6  A    between atoms: O_10  and  C_11
REMARK    7  A    between atoms: C_17  and  C_19
REMARK    8  A    between atoms: C_19  and  C_20
REMARK    9  A    between atoms: C_31  and  C_32
REMARK                            x       y       z     vdW  Elec       q    Type
REMARK                         _______ _______ _______ _____ _____    ______ ____
ROOT
ATOM      1  C   UNL     1       5.682   2.984   2.130  0.00  0.00    +0.176 C 
ATOM      2  C   UNL     1       6.336   2.346   3.358  0.00  0.00    +0.063 C 
ATOM      3  C   UNL     1       7.843   2.621   3.329  0.00  0.00    +0.111 C 
ATOM      4  N   UNL     1       8.057   4.070   3.216  0.00  0.00    -0.301 N 
ATOM      5  C   UNL     1       7.399   4.798   2.123  0.00  0.00    +0.111 C 
ATOM      6  C   UNL     1       5.897   4.499   2.165  0.00  0.00    +0.063 C 
ATOM      7  C   UNL     1       8.842   4.719   4.098  0.00  0.00    +0.223 C 
ATOM      8  O   UNL     1       9.380   4.106   4.997  0.00  0.00    -0.275 OA
ENDROOT
BRANCH   1   9
ATOM      9  O   UNL     1       4.281   2.703   2.137  0.00  0.00    -0.489 OA
BRANCH   9  14
ATOM     10  C   UNL     1       2.139   0.022   0.926  0.00  0.00    -0.060 A 
ATOM     11  C   UNL     1       3.086  -0.896   0.510  0.00  0.00    +0.002 A 
ATOM     12  C   UNL     1       4.433  -0.610   0.639  0.00  0.00    +0.004 A 
ATOM     13  C   UNL     1       4.835   0.595   1.183  0.00  0.00    +0.045 A 
ATOM     14  C   UNL     1       3.888   1.517   1.601  0.00  0.00    +0.121 A 
ATOM     15  C   UNL     1       2.537   1.230   1.465  0.00  0.00    +0.047 A 
BRANCH  10  16
ATOM     16  C   UNL     1       0.672  -0.293   0.785  0.00  0.00    -0.043 C 
BRANCH  16  18
ATOM     17  C   UNL     1       0.287   1.634  -0.591  0.00  0.00    -0.095 C 
ATOM     18  N   UNL     1       0.196   0.169  -0.526  0.00  0.00    +0.384 N 
ATOM     19  H   UNL     1       0.767  -0.236  -1.253  0.00  0.00    -0.081 HD
BRANCH  18  20
ATOM     20  C   UNL     1      -1.201  -0.244  -0.713  0.00  0.00    -0.022 C 
BRANCH  20  21
ATOM     21  C   UNL     1      -1.651   0.122  -2.104  0.00  0.00    +0.032 A 
ATOM     22  C   UNL     1      -1.604  -0.773  -3.123  0.00  0.00    +0.068 A 
ATOM     23  S   UNL     1      -2.246   0.219  -4.462  0.00  0.00    -0.084 S 
ATOM     24  C   UNL     1      -2.500   1.640  -3.596  0.00  0.00    +0.156 A 
ATOM     25  N   UNL     1      -2.114   1.324  -2.385  0.00  0.00    -0.254 NA
ENDBRANCH  20  21
ENDBRANCH  18  20
ENDBRANCH  16  18
ENDBRANCH  10  16
ENDBRANCH   9  14
ENDBRANCH   1   9
BRANCH   7  26
ATOM     26  C   UNL     1       9.053   6.205   3.969  0.00  0.00    +0.170 C 
BRANCH  26  27
ATOM     27  C   UNL     1       9.964   6.682   5.071  0.00  0.00    +0.117 A 
ATOM     28  N   UNL     1      11.116   7.381   4.882  0.00  0.00    -0.341 N 
ATOM     29  H   UNL     1      11.488   7.657   4.029  0.00  0.00    +0.167 HD
ATOM     30  C   UNL     1      11.656   7.627   6.128  0.00  0.00    +0.068 A 
ATOM     31  C   UNL     1      12.796   8.280   6.576  0.00  0.00    +0.047 A 
ATOM     32  C   UNL     1      13.057   8.351   7.929  0.00  0.00    +0.043 A 
ATOM     33  C   UNL     1      12.185   7.774   8.843  0.00  0.00    +0.022 A 
ATOM     34  C   UNL     1      11.059   7.128   8.420  0.00  0.00    +0.031 A 
ATOM     35  C   UNL     1      10.775   7.043   7.054  0.00  0.00    +0.089 A 
ATOM     36  N   UNL     1       9.762   6.489   6.341  0.00  0.00    -0.232 NA
ATOM     37 CL   UNL     1      14.482   9.166   8.491  0.00  0.00    -0.083 Cl
ENDBRANCH  26  27
ENDBRANCH   7  26
TORSDOF 8
