REMARK  Name = ZINC39422361
REMARK  7 active torsions:
REMARK  status: ('A' for Active; 'I' for Inactive)
REMARK    1  A    between atoms: C_2  and  C_3
REMARK    2  A    between atoms: C_3  and  N_4
REMARK    3  A    between atoms: C_5  and  C_31
REMARK    4  A    between atoms: C_8  and  S_9
REMARK    5  A    between atoms: S_9  and  C_10
REMARK    6  A    between atoms: C_12  and  C_25
REMARK    7  A    between atoms: C_15  and  N_22
REMARK                            x       y       z     vdW  Elec       q    Type
REMARK                         _______ _______ _______ _____ _____    ______ ____
ROOT
ATOM      1  C   UNL     1       0.351  -5.654  -0.086  0.00  0.00    +0.171 C 
ATOM      2  C   UNL     1       0.296  -6.609  -1.263  0.00  0.00    -0.009 C 
ATOM      3  C   UNL     1      -0.959  -7.117  -1.611  0.00  0.00    +0.004 A 
ATOM      4  C   UNL     1      -1.100  -8.011  -2.692  0.00  0.00    +0.042 A 
ATOM      5  C   UNL     1      -2.333  -8.491  -3.009  0.00  0.00    +0.127 A 
ATOM      6  C   UNL     1      -3.463  -8.116  -2.286  0.00  0.00    +0.034 A 
ATOM      7  C   UNL     1      -3.390  -7.257  -1.232  0.00  0.00    +0.026 A 
ATOM      8  C   UNL     1      -2.148  -6.721  -0.848  0.00  0.00    +0.041 A 
ATOM      9  N   UNL     1      -2.078  -5.878   0.187  0.00  0.00    -0.284 N 
ATOM     10  C   UNL     1      -0.953  -5.334   0.608  0.00  0.00    +0.235 C 
ATOM     11  O   UNL     1      -0.965  -4.573   1.558  0.00  0.00    -0.274 OA
ATOM     12  H   UNL     1      -2.898  -5.654   0.653  0.00  0.00    +0.155 HD
ENDROOT
BRANCH   2  13
ATOM     13  C   UNL     1       1.466  -6.970  -1.979  0.00  0.00    -0.020 A 
ATOM     14  C   UNL     1       1.613  -6.599  -3.326  0.00  0.00    +0.008 A 
ATOM     15  C   UNL     1       2.753  -6.954  -4.012  0.00  0.00    +0.001 A 
ATOM     16  C   UNL     1       3.752  -7.676  -3.379  0.00  0.00    +0.000 A 
ATOM     17  C   UNL     1       3.616  -8.047  -2.051  0.00  0.00    +0.001 A 
ATOM     18  C   UNL     1       2.487  -7.696  -1.345  0.00  0.00    +0.008 A 
ENDBRANCH   2  13
BRANCH   5  19
ATOM     19  N   UNL     1      -2.476  -9.430  -4.144  0.00  0.00    +0.056 N 
ATOM     20  O   UNL     1      -1.503  -9.762  -4.780  0.00  0.00    -0.126 OA
ATOM     21  O   UNL     1      -3.567  -9.863  -4.436  0.00  0.00    -0.126 OA
ENDBRANCH   5  19
BRANCH   1  22
ATOM     22  S   UNL     1       1.069  -4.093  -0.668  0.00  0.00    -0.068 S 
BRANCH  22  27
ATOM     23  N   UNL     1       1.852  -1.909   0.893  0.00  0.00    -0.298 N 
ATOM     24  C   UNL     1       1.853  -1.597   2.233  0.00  0.00    +0.165 A 
ATOM     25  N   UNL     1       1.356  -2.631   2.870  0.00  0.00    -0.128 NA
ATOM     26  N   UNL     1       1.048  -3.555   2.032  0.00  0.00    -0.122 NA
ATOM     27  C   UNL     1       1.326  -3.166   0.808  0.00  0.00    +0.193 A 
BRANCH  24  28
ATOM     28  C   UNL     1       2.326  -0.335   2.841  0.00  0.00    +0.019 A 
ATOM     29  C   UNL     1       2.939  -0.347   4.095  0.00  0.00    +0.011 A 
ATOM     30  C   UNL     1       3.377   0.834   4.657  0.00  0.00    +0.001 A 
ATOM     31  C   UNL     1       3.210   2.029   3.981  0.00  0.00    +0.000 A 
ATOM     32  C   UNL     1       2.603   2.049   2.738  0.00  0.00    +0.001 A 
ATOM     33  C   UNL     1       2.166   0.874   2.162  0.00  0.00    +0.011 A 
ENDBRANCH  24  28
BRANCH  23  34
ATOM     34  C   UNL     1       2.314  -1.065  -0.212  0.00  0.00    +0.152 C 
BRANCH  34  36
ATOM     35  C   UNL     1       1.173   0.963  -0.950  0.00  0.00    +0.005 C 
ATOM     36  C   UNL     1       1.139  -0.340  -0.815  0.00  0.00    -0.013 C 
ENDBRANCH  34  36
ENDBRANCH  23  34
ENDBRANCH  22  27
ENDBRANCH   1  22
TORSDOF 7
