REMARK  Name = ZINC20240608
REMARK  7 active torsions:
REMARK  status: ('A' for Active; 'I' for Inactive)
REMARK    1  A    between atoms: C_4  and  C_7
REMARK    2  A    between atoms: C_7  and  C_8
REMARK    3  A    between atoms: N_11  and  C_14
REMARK    4  A    between atoms: C_14  and  C_15
REMARK    5  A    between atoms: C_18  and  C_21
REMARK    6  A    between atoms: N_23  and  N_24
REMARK    7  A    between atoms: C_25  and  C_26
REMARK                            x       y       z     vdW  Elec       q    Type
REMARK                         _______ _______ _______ _____ _____    ______ ____
ROOT
ATOM      1  C   UNL     1       6.775  -3.988   4.668  0.00  0.00    -0.064 A 
ATOM      2  C   UNL     1       6.764  -5.365   4.538  0.00  0.00    +0.002 A 
ATOM      3  C   UNL     1       7.951  -6.062   4.452  0.00  0.00    +0.013 A 
ATOM      4  C   UNL     1       9.165  -5.375   4.496  0.00  0.00    +0.038 A 
ATOM      5  C   UNL     1       9.169  -3.985   4.628  0.00  0.00    +0.013 A 
ATOM      6  C   UNL     1       7.975  -3.300   4.707  0.00  0.00    +0.002 A 
ENDROOT
BRANCH   4   7
ATOM      7  C   UNL     1      10.441  -6.116   4.405  0.00  0.00    +0.263 C 
ATOM      8  O   UNL     1      10.435  -7.326   4.291  0.00  0.00    -0.268 OA
ATOM      9  N   UNL     1      11.612  -5.449   4.448  0.00  0.00    -0.203 N 
ATOM     10  H   UNL     1      11.617  -4.483   4.539  0.00  0.00    +0.178 HD
BRANCH   9  11
ATOM     11  N   UNL     1      12.821  -6.151   4.362  0.00  0.00    -0.187 NA
ATOM     12  C   UNL     1      13.948  -5.509   4.404  0.00  0.00    +0.138 C 
BRANCH  12  13
ATOM     13  C   UNL     1      15.221  -6.248   4.313  0.00  0.00    -0.004 A 
ATOM     14  C   UNL     1      15.217  -7.639   4.176  0.00  0.00    +0.009 A 
ATOM     15  C   UNL     1      16.412  -8.324   4.091  0.00  0.00    +0.002 A 
ATOM     16  C   UNL     1      17.612  -7.637   4.141  0.00  0.00    +0.015 A 
ATOM     17  C   UNL     1      17.624  -6.260   4.276  0.00  0.00    +0.018 A 
ATOM     18  C   UNL     1      16.436  -5.561   4.357  0.00  0.00    +0.024 A 
ATOM     19 BR   UNL     1      19.271  -5.332   4.343  0.00  0.00    -0.050 Br
ENDBRANCH  12  13
ENDBRANCH   9  11
ENDBRANCH   4   7
BRANCH   1  20
ATOM     20  C   UNL     1       5.474  -3.233   4.762  0.00  0.00    -0.043 C 
BRANCH  20  24
ATOM     21  C   UNL     1       4.171  -0.963   1.399  0.00  0.00    -0.010 C 
ATOM     22  C   UNL     1       3.192  -1.919   2.088  0.00  0.00    -0.015 C 
ATOM     23  C   UNL     1       3.701  -2.233   3.496  0.00  0.00    -0.078 C 
ATOM     24  N   UNL     1       5.024  -2.862   3.413  0.00  0.00    +0.382 N 
ATOM     25  C   UNL     1       5.985  -1.925   2.819  0.00  0.00    -0.078 C 
ATOM     26  C   UNL     1       5.565  -1.599   1.385  0.00  0.00    -0.015 C 
ATOM     27  H   UNL     1       4.967  -3.691   2.841  0.00  0.00    -0.081 HD
BRANCH  21  28
ATOM     28  C   UNL     1       3.711  -0.707  -0.038  0.00  0.00    +0.038 C 
BRANCH  28  32
ATOM     29  C   UNL     1      -0.017   1.378   0.010  0.00  0.00    +0.000 A 
ATOM     30  C   UNL     1       1.171   2.086   0.002  0.00  0.00    +0.000 A 
ATOM     31  C   UNL     1       2.377   1.411  -0.013  0.00  0.00    +0.003 A 
ATOM     32  C   UNL     1       2.396   0.029  -0.020  0.00  0.00    -0.047 A 
ATOM     33  C   UNL     1       1.208  -0.679  -0.012  0.00  0.00    +0.003 A 
ATOM     34  C   UNL     1       0.002  -0.004   0.002  0.00  0.00    +0.000 A 
ENDBRANCH  28  32
ENDBRANCH  21  28
ENDBRANCH  20  24
ENDBRANCH   1  20
TORSDOF 7
