REMARK  Name = ZINC64719969
REMARK  6 active torsions:
REMARK  status: ('A' for Active; 'I' for Inactive)
REMARK    1  A    between atoms: C_1  and  C_2
REMARK    2  A    between atoms: C_4  and  C_12
REMARK    3  A    between atoms: C_18  and  C_20
REMARK    4  A    between atoms: C_20  and  C_21
REMARK    5  A    between atoms: C_22  and  C_28
REMARK    6  A    between atoms: C_25  and  C_27
REMARK                            x       y       z     vdW  Elec       q    Type
REMARK                         _______ _______ _______ _____ _____    ______ ____
ROOT
ATOM      1  C   UNL     1      -2.428  -0.332  -0.918  0.00  0.00    +0.079 A 
ATOM      2  C   UNL     1      -3.655  -0.973  -0.806  0.00  0.00    +0.076 A 
ATOM      3  S   UNL     1      -4.489  -0.400  -2.151  0.00  0.00    -0.060 S 
ATOM      4  C   UNL     1      -3.216   0.656  -2.818  0.00  0.00    +0.165 A 
ATOM      5  N   UNL     1      -2.238   0.496  -1.953  0.00  0.00    -0.225 NA
ATOM      6  N   UNL     1      -3.251   1.448  -3.956  0.00  0.00    -0.264 N 
ATOM      7  C   UNL     1      -4.361   1.483  -4.720  0.00  0.00    +0.223 C 
ATOM      8  O   UNL     1      -5.330   0.822  -4.412  0.00  0.00    -0.275 OA
ATOM      9  H   UNL     1      -2.476   1.978  -4.202  0.00  0.00    +0.157 HD
ENDROOT
BRANCH   1  12
ATOM     10  C   UNL     1      -1.552  -2.958   0.649  0.00  0.00    +0.035 C 
ATOM     11  C   UNL     1      -1.424  -1.530   1.184  0.00  0.00    +0.109 C 
ATOM     12  C   UNL     1      -1.411  -0.544   0.036  0.00  0.00    +0.009 C 
ATOM     13  C   UNL     1      -0.185   0.110   0.119  0.00  0.00    +0.005 A 
ATOM     14  C   UNL     1       0.408   1.127  -0.663  0.00  0.00    +0.010 A 
ATOM     15  C   UNL     1       1.645   1.586  -0.344  0.00  0.00    +0.001 A 
ATOM     16  C   UNL     1       2.356   1.077   0.745  0.00  0.00    +0.002 A 
ATOM     17  C   UNL     1       1.849   0.102   1.538  0.00  0.00    +0.026 A 
ATOM     18  C   UNL     1       0.561  -0.429   1.268  0.00  0.00    +0.043 A 
ATOM     19  N   UNL     1      -0.144  -1.364   1.878  0.00  0.00    -0.377 N 
ATOM     20  H   UNL     1       0.140  -1.862   2.660  0.00  0.00    +0.160 HD
ENDBRANCH   1  12
BRANCH   7  21
ATOM     21  C   UNL     1      -4.398   2.344  -5.956  0.00  0.00    +0.131 C 
BRANCH  21  22
ATOM     22  C   UNL     1      -5.742   2.204  -6.625  0.00  0.00    -0.010 C 
ATOM     23  C   UNL     1      -6.775   3.004  -6.465  0.00  0.00    +0.038 C 
ATOM     24  N   UNL     1      -7.851   2.587  -7.228  0.00  0.00    -0.270 N 
ATOM     25  O   UNL     1      -7.504   1.419  -7.950  0.00  0.00    -0.267 OA
ATOM     26  C   UNL     1      -6.142   1.125  -7.604  0.00  0.00    +0.174 C 
ATOM     27  C   UNL     1      -6.051  -0.252  -6.943  0.00  0.00    +0.045 C 
ATOM     28  C   UNL     1      -6.785   4.215  -5.569  0.00  0.00    +0.065 C 
ATOM     29  H   UNL     1      -8.714   3.029  -7.263  0.00  0.00    +0.194 HD
ENDBRANCH  21  22
ENDBRANCH   7  21
TORSDOF 3
