REMARK  Name = ZINC12150307
REMARK  11 active torsions:
REMARK  status: ('A' for Active; 'I' for Inactive)
REMARK    1  A    between atoms: C_1  and  C_2
REMARK    2  A    between atoms: C_5  and  C_7
REMARK    3  A    between atoms: C_7  and  C_9
REMARK    4  A    between atoms: C_7  and  C_10
REMARK    5  A    between atoms: C_10  and  C_11
REMARK    6  A    between atoms: C_11  and  N_65
REMARK    7  A    between atoms: C_17  and  C_21
REMARK    8  A    between atoms: C_21  and  C_22
REMARK    9  A    between atoms: C_22  and  N_23
REMARK   10  A    between atoms: C_24  and  C_26
REMARK   11  A    between atoms: C_26  and  C_27
REMARK                            x       y       z     vdW  Elec       q    Type
REMARK                         _______ _______ _______ _____ _____    ______ ____
ROOT
ATOM      1  C   UNL     1      -5.214   6.517   2.191  0.00  0.00    -0.071 C 
ATOM      2  C   UNL     1      -5.645   7.418   3.352  0.00  0.00    +0.058 C 
ATOM      3  C   UNL     1      -6.688   8.387   2.855  0.00  0.00    +0.132 A 
ATOM      4  N   UNL     1      -6.755   9.666   3.076  0.00  0.00    -0.134 NA
ATOM      5  N   UNL     1      -7.810  10.146   2.514  0.00  0.00    -0.134 NA
ATOM      6  C   UNL     1      -8.457   9.189   1.902  0.00  0.00    +0.135 A 
ATOM      7  N   UNL     1      -7.756   8.051   2.091  0.00  0.00    -0.317 N 
ATOM      8  C   UNL     1      -8.061   6.715   1.577  0.00  0.00    +0.106 C 
ATOM      9  C   UNL     1      -7.470   5.665   2.523  0.00  0.00    -0.057 C 
ATOM     10  N   UNL     1      -6.095   5.332   2.086  0.00  0.00    +0.381 N 
ATOM     11  H   UNL     1      -6.125   5.028   1.106  0.00  0.00    -0.082 HD
ENDROOT
BRANCH  10  12
ATOM     12  C   UNL     1      -5.558   4.234   2.910  0.00  0.00    -0.078 C 
BRANCH  12  13
ATOM     13  C   UNL     1      -4.232   3.771   2.303  0.00  0.00    -0.008 C 
BRANCH  13  14
ATOM     14  C   UNL     1      -3.672   2.610   3.127  0.00  0.00    +0.050 C 
ATOM     15  C   UNL     1      -4.610   1.407   3.017  0.00  0.00    +0.015 C 
BRANCH  14  20
ATOM     16  C   UNL     1      -0.013   1.086   0.008  0.00  0.00    +0.086 C 
ATOM     17  C   UNL     1      -0.718   1.572   1.248  0.00  0.00    +0.102 A 
ATOM     18  C   UNL     1      -0.136   1.835   2.432  0.00  0.00    +0.044 A 
ATOM     19  C   UNL     1      -1.162   2.263   3.306  0.00  0.00    +0.045 A 
ATOM     20  C   UNL     1      -2.309   2.234   2.604  0.00  0.00    +0.108 A 
ATOM     21  O   UNL     1      -2.033   1.821   1.357  0.00  0.00    -0.465 OA
ENDBRANCH  14  20
ENDBRANCH  13  14
ENDBRANCH  12  13
ENDBRANCH  10  12
BRANCH   6  22
ATOM     22  C   UNL     1      -9.744   9.329   1.130  0.00  0.00    +0.095 C 
BRANCH  22  23
ATOM     23  C   UNL     1     -10.930   9.115   2.073  0.00  0.00    +0.112 C 
BRANCH  23  24
ATOM     24  N   UNL     1     -12.181   9.252   1.323  0.00  0.00    -0.315 N 
ATOM     25  C   UNL     1     -13.363   9.102   1.952  0.00  0.00    +0.217 C 
ATOM     26  O   UNL     1     -13.392   8.855   3.138  0.00  0.00    -0.275 OA
ATOM     27  H   UNL     1     -12.158   9.450   0.373  0.00  0.00    +0.149 HD
BRANCH  25  28
ATOM     28  C   UNL     1     -14.650   9.243   1.180  0.00  0.00    +0.130 C 
BRANCH  28  29
ATOM     29  C   UNL     1     -15.818   9.032   2.108  0.00  0.00    -0.038 A 
ATOM     30  C   UNL     1     -16.339   7.763   2.285  0.00  0.00    +0.007 A 
ATOM     31  C   UNL     1     -17.407   7.567   3.140  0.00  0.00    +0.038 A 
ATOM     32  C   UNL     1     -17.962   8.644   3.811  0.00  0.00    +0.123 A 
ATOM     33  C   UNL     1     -17.443   9.914   3.629  0.00  0.00    +0.038 A 
ATOM     34  C   UNL     1     -16.372  10.107   2.778  0.00  0.00    +0.007 A 
ATOM     35  F   UNL     1     -19.010   8.454   4.643  0.00  0.00    -0.205 F 
ENDBRANCH  28  29
ENDBRANCH  25  28
ENDBRANCH  23  24
ENDBRANCH  22  23
ENDBRANCH   6  22
TORSDOF 9
