REMARK  Name = ZINC59170728
REMARK  10 active torsions:
REMARK  status: ('A' for Active; 'I' for Inactive)
REMARK    1  A    between atoms: C_1  and  C_2
REMARK    2  A    between atoms: C_2  and  O_3
REMARK    3  A    between atoms: O_3  and  C_4
REMARK    4  A    between atoms: N_12  and  C_13
REMARK    5  A    between atoms: C_16  and  S_19
REMARK    6  A    between atoms: S_19  and  N_22
REMARK    7  A    between atoms: C_23  and  C_25
REMARK    8  A    between atoms: N_27  and  C_28
REMARK    9  A    between atoms: C_33  and  O_34
REMARK   10  A    between atoms: O_34  and  C_35
REMARK                            x       y       z     vdW  Elec       q    Type
REMARK                         _______ _______ _______ _____ _____    ______ ____
ROOT
ATOM      1  C   UNL     1       0.755  -2.026  -1.427  0.00  0.00    +0.163 A 
ATOM      2  C   UNL     1      -0.194  -2.875  -0.880  0.00  0.00    +0.049 A 
ATOM      3  C   UNL     1      -0.537  -4.056  -1.520  0.00  0.00    +0.004 A 
ATOM      4  C   UNL     1       0.063  -4.405  -2.709  0.00  0.00    +0.012 A 
ATOM      5  C   UNL     1       1.026  -3.560  -3.275  0.00  0.00    +0.022 A 
ATOM      6  C   UNL     1       1.367  -2.357  -2.631  0.00  0.00    +0.179 A 
ATOM      7  O   UNL     1       2.289  -1.532  -3.187  0.00  0.00    -0.435 OA
ATOM      8  C   UNL     1       3.228  -2.104  -3.982  0.00  0.00    +0.212 A 
ATOM      9  N   UNL     1       4.485  -1.718  -3.932  0.00  0.00    -0.325 N 
ATOM     10  C   UNL     1       2.796  -3.172  -4.905  0.00  0.00    +0.098 A 
ATOM     11  C   UNL     1       1.684  -3.912  -4.536  0.00  0.00    +0.030 A 
ATOM     12  H   UNL     1       5.164  -2.213  -4.417  0.00  0.00    +0.169 HD
ENDROOT
BRANCH   9  13
ATOM     13  C   UNL     1       4.834  -0.619  -3.197  0.00  0.00    +0.042 A 
ATOM     14  C   UNL     1       4.068   0.547  -3.272  0.00  0.00    +0.027 A 
ATOM     15  C   UNL     1       4.427   1.652  -2.527  0.00  0.00    +0.030 A 
ATOM     16  C   UNL     1       5.542   1.607  -1.709  0.00  0.00    +0.105 A 
ATOM     17  C   UNL     1       6.305   0.455  -1.631  0.00  0.00    +0.030 A 
ATOM     18  C   UNL     1       5.955  -0.659  -2.364  0.00  0.00    +0.027 A 
BRANCH  16  19
ATOM     19  S   UNL     1       5.992   3.024  -0.763  0.00  0.00    +0.056 S 
ATOM     20  O   UNL     1       7.383   2.908  -0.497  0.00  0.00    -0.153 OA
ATOM     21  O   UNL     1       5.435   4.149  -1.427  0.00  0.00    -0.153 OA
BRANCH  19  22
ATOM     22  N   UNL     1       5.219   2.904   0.696  0.00  0.00    -0.204 NA
ATOM     23  H   UNL     1       4.647   2.143   0.881  0.00  0.00    +0.144 HD
ATOM     24  H   UNL     1       5.339   3.595   1.367  0.00  0.00    +0.144 HD
ENDBRANCH  19  22
ENDBRANCH  16  19
ENDBRANCH   9  13
BRANCH  10  25
ATOM     25  C   UNL     1       3.523  -3.447  -6.156  0.00  0.00    +0.253 C 
ATOM     26  O   UNL     1       3.212  -4.402  -6.843  0.00  0.00    -0.270 OA
ATOM     27  N   UNL     1       4.532  -2.641  -6.540  0.00  0.00    -0.278 N 
ATOM     28  H   UNL     1       4.813  -1.909  -5.969  0.00  0.00    +0.155 HD
BRANCH  27  29
ATOM     29  C   UNL     1       5.177  -2.861  -7.764  0.00  0.00    +0.076 A 
ATOM     30  C   UNL     1       5.117  -4.108  -8.368  0.00  0.00    +0.027 A 
ATOM     31  C   UNL     1       5.753  -4.322  -9.575  0.00  0.00    +0.002 A 
ATOM     32  C   UNL     1       6.451  -3.296 -10.184  0.00  0.00    +0.004 A 
ATOM     33  C   UNL     1       6.517  -2.050  -9.588  0.00  0.00    +0.047 A 
ATOM     34  C   UNL     1       5.877  -1.826  -8.380  0.00  0.00    +0.141 A 
BRANCH  34  35
ATOM     35  O   UNL     1       5.935  -0.600  -7.795  0.00  0.00    -0.493 OA
ATOM     36  C   UNL     1       6.670   0.414  -8.485  0.00  0.00    +0.277 C 
ENDBRANCH  34  35
ENDBRANCH  27  29
ENDBRANCH  10  25
BRANCH   1  37
ATOM     37  O   UNL     1       1.083  -0.870  -0.790  0.00  0.00    -0.489 OA
BRANCH  37  39
ATOM     38  C   UNL     1       0.909   0.737   1.006  0.00  0.00    +0.048 C 
ATOM     39  C   UNL     1       0.414  -0.596   0.443  0.00  0.00    +0.226 C 
ENDBRANCH  37  39
ENDBRANCH   1  37
TORSDOF 8
