REMARK  Name = ZINC01906317
REMARK  9 active torsions:
REMARK  status: ('A' for Active; 'I' for Inactive)
REMARK    1  A    between atoms: C_1  and  O_2
REMARK    2  A    between atoms: O_2  and  C_3
REMARK    3  A    between atoms: C_3  and  C_5
REMARK    4  A    between atoms: C_11  and  C_12
REMARK    5  A    between atoms: C_15  and  N_18
REMARK    6  A    between atoms: C_22  and  N_37
REMARK    7  A    between atoms: C_23  and  C_35
REMARK    8  A    between atoms: C_24  and  C_26
REMARK    9  A    between atoms: C_29  and  N_32
REMARK                            x       y       z     vdW  Elec       q    Type
REMARK                         _______ _______ _______ _____ _____    ______ ____
ROOT
ATOM      1  C   UNL     1       0.394  -0.137   1.169  0.00  0.00    +0.080 C 
ATOM      2  C   UNL     1       1.560  -0.632   0.648  0.00  0.00    +0.100 A 
ATOM      3  N   UNL     1       2.690   0.125   0.419  0.00  0.00    -0.257 N 
ATOM      4  C   UNL     1       3.767  -0.499  -0.100  0.00  0.00    +0.271 A 
ATOM      5  O   UNL     1       4.794   0.114  -0.325  0.00  0.00    -0.266 OA
ATOM      6  C   UNL     1       3.671  -1.936  -0.386  0.00  0.00    +0.079 A 
ATOM      7  C   UNL     1       4.603  -2.776  -0.902  0.00  0.00    +0.028 C 
ATOM      8  S   UNL     1       1.996  -2.279   0.127  0.00  0.00    -0.065 S 
ATOM      9  C   UNL     1       2.671   1.489   0.731  0.00  0.00    +0.118 C 
ATOM     10  C   UNL     1       1.599   2.127   1.250  0.00  0.00    +0.079 C 
ATOM     11  C   UNL     1       0.335   1.337   1.519  0.00  0.00    +0.102 C 
ENDROOT
BRANCH   7  12
ATOM     12  C   UNL     1       4.340  -4.221  -0.957  0.00  0.00    -0.024 A 
ATOM     13  C   UNL     1       3.220  -4.758  -0.312  0.00  0.00    +0.010 A 
ATOM     14  C   UNL     1       2.979  -6.114  -0.372  0.00  0.00    +0.033 A 
ATOM     15  C   UNL     1       3.846  -6.945  -1.060  0.00  0.00    +0.126 A 
ATOM     16  C   UNL     1       4.959  -6.423  -1.696  0.00  0.00    +0.033 A 
ATOM     17  C   UNL     1       5.212  -5.069  -1.650  0.00  0.00    +0.010 A 
BRANCH  15  18
ATOM     18  N   UNL     1       3.581  -8.401  -1.115  0.00  0.00    +0.056 N 
ATOM     19  O   UNL     1       4.342  -9.135  -1.719  0.00  0.00    -0.126 OA
ATOM     20  O   UNL     1       2.603  -8.863  -0.556  0.00  0.00    -0.126 OA
ENDBRANCH  15  18
ENDBRANCH   7  12
BRANCH  11  21
ATOM     21  C   UNL     1       0.004   1.461   2.984  0.00  0.00    -0.034 A 
ATOM     22  C   UNL     1       0.841   0.902   3.931  0.00  0.00    +0.007 A 
ATOM     23  C   UNL     1       0.540   1.020   5.275  0.00  0.00    +0.033 A 
ATOM     24  C   UNL     1      -0.604   1.688   5.671  0.00  0.00    +0.126 A 
ATOM     25  C   UNL     1      -1.444   2.242   4.723  0.00  0.00    +0.033 A 
ATOM     26  C   UNL     1      -1.140   2.128   3.380  0.00  0.00    +0.007 A 
BRANCH  24  27
ATOM     27  N   UNL     1      -0.930   1.809   7.110  0.00  0.00    +0.056 N 
ATOM     28  O   UNL     1      -1.938   2.397   7.459  0.00  0.00    -0.126 OA
ATOM     29  O   UNL     1      -0.190   1.321   7.945  0.00  0.00    -0.126 OA
ENDBRANCH  24  27
ENDBRANCH  11  21
BRANCH   9  30
ATOM     30  N   UNL     1       3.808   2.223   0.494  0.00  0.00    -0.343 N 
ATOM     31  H   UNL     1       4.427   1.947  -0.199  0.00  0.00    +0.144 HD
ATOM     32  H   UNL     1       3.991   3.017   1.021  0.00  0.00    +0.144 HD
ENDBRANCH   9  30
BRANCH   1  33
ATOM     33  C   UNL     1      -0.714  -0.971   1.374  0.00  0.00    +0.338 C 
ATOM     34  O   UNL     1      -0.648  -2.153   1.087  0.00  0.00    -0.245 OA
BRANCH  33  36
ATOM     35  C   UNL     1      -2.945  -1.370   2.071  0.00  0.00    +0.280 C 
ATOM     36  O   UNL     1      -1.855  -0.463   1.889  0.00  0.00    -0.465 OA
ENDBRANCH  33  36
ENDBRANCH   1  33
BRANCH  10  37
ATOM     37  C   UNL     1       1.658   3.528   1.542  0.00  0.00    +0.099 C 
ATOM     38  N   UNL     1       1.704   4.639   1.774  0.00  0.00    -0.191 NA
ENDBRANCH  10  37
TORSDOF 8
