REMARK  Name = ZINC04108592
REMARK  9 active torsions:
REMARK  status: ('A' for Active; 'I' for Inactive)
REMARK    1  A    between atoms: C_1  and  C_2
REMARK    2  A    between atoms: C_2  and  C_18
REMARK    3  A    between atoms: C_3  and  C_16
REMARK    4  A    between atoms: C_4  and  N_15
REMARK    5  A    between atoms: C_11  and  C_13
REMARK    6  A    between atoms: C_11  and  C_14
REMARK    7  A    between atoms: C_18  and  O_20
REMARK    8  A    between atoms: C_18  and  O_21
REMARK    9  A    between atoms: O_21  and  C_22
REMARK                            x       y       z     vdW  Elec       q    Type
REMARK                         _______ _______ _______ _____ _____    ______ ____
ROOT
ATOM      1  C   UNL     1      -0.019   1.526   0.010  0.00  0.00    +0.027 C 
ATOM      2  C   UNL     1       0.002  -0.004   0.002  0.00  0.00    +0.089 C 
ATOM      3  C   UNL     1      -1.404  -0.521   0.117  0.00  0.00    +0.101 C 
ATOM      4  C   UNL     1      -1.685  -1.580   0.915  0.00  0.00    +0.198 C 
ATOM      5  O   UNL     1      -0.719  -2.193   1.620  0.00  0.00    -0.445 OA
ATOM      6  C   UNL     1       0.436  -1.554   1.890  0.00  0.00    +0.115 C 
ATOM      7  C   UNL     1       0.837  -0.499   1.158  0.00  0.00    +0.049 C 
ATOM      8  C   UNL     1       2.039   0.176   1.445  0.00  0.00    +0.164 C 
ATOM      9  O   UNL     1       2.375   1.116   0.754  0.00  0.00    -0.292 OA
ATOM     10  C   UNL     1       2.915  -0.247   2.593  0.00  0.00    +0.086 C 
ATOM     11  C   UNL     1       2.040  -0.897   3.671  0.00  0.00    -0.021 C 
ATOM     12  C   UNL     1       1.276  -2.061   3.039  0.00  0.00    +0.081 C 
ATOM     13  C   UNL     1       1.048   0.132   4.217  0.00  0.00    +0.012 C 
ATOM     14  C   UNL     1       2.924  -1.418   4.806  0.00  0.00    +0.012 C 
ENDROOT
BRANCH   4  15
ATOM     15  N   UNL     1      -2.977  -2.033   1.007  0.00  0.00    -0.328 N 
ATOM     16  H   UNL     1      -3.681  -1.596   0.502  0.00  0.00    +0.145 HD
ATOM     17  H   UNL     1      -3.187  -2.790   1.576  0.00  0.00    +0.145 HD
ENDBRANCH   4  15
BRANCH   3  18
ATOM     18  C   UNL     1      -2.456   0.109  -0.624  0.00  0.00    +0.101 C 
ATOM     19  N   UNL     1      -3.290   0.609  -1.211  0.00  0.00    -0.191 NA
ENDBRANCH   3  18
BRANCH   2  20
ATOM     20  C   UNL     1       0.614  -0.495  -1.312  0.00  0.00    +0.262 C 
BRANCH  20  21
ATOM     21  O   UNL     1       0.635  -1.924  -1.322  0.00  0.00    -0.366 OA
ATOM     22  H   UNL     1      -0.239  -2.331  -1.245  0.00  0.00    +0.213 HD
ENDBRANCH  20  21
BRANCH  20  23
ATOM     23  O   UNL     1      -0.170  -0.022  -2.409  0.00  0.00    -0.353 OA
ATOM     24  C   UNL     1       0.379  -0.331  -3.691  0.00  0.00    +0.197 C 
ENDBRANCH  20  23
ENDBRANCH   2  20
TORSDOF 5
