REMARK  Name = ZINC39944074
REMARK  13 active torsions:
REMARK  status: ('A' for Active; 'I' for Inactive)
REMARK    1  A    between atoms: C_1  and  C_2
REMARK    2  A    between atoms: C_2  and  C_3
REMARK    3  A    between atoms: C_2  and  C_4
REMARK    4  A    between atoms: C_4  and  C_6
REMARK    5  A    between atoms: C_4  and  N_28
REMARK    6  A    between atoms: C_6  and  O_8
REMARK    7  A    between atoms: O_8  and  C_9
REMARK    8  A    between atoms: C_9  and  C_10
REMARK    9  A    between atoms: C_10  and  C_12
REMARK   10  A    between atoms: C_20  and  C_22
REMARK   11  A    between atoms: N_28  and  S_29
REMARK   12  A    between atoms: S_29  and  C_32
REMARK   13  A    between atoms: C_33  and  C_34
REMARK                            x       y       z     vdW  Elec       q    Type
REMARK                         _______ _______ _______ _____ _____    ______ ____
ROOT
ATOM      1  O   UNL     1      -1.738  -0.173   2.436  0.00  0.00    -0.455 OA
ENDROOT
BRANCH   1   2
ATOM      2  C   UNL     1      -2.175   0.051   1.187  0.00  0.00    +0.327 C 
ATOM      3  O   UNL     1      -3.164   0.721   1.004  0.00  0.00    -0.249 OA
BRANCH   2   4
ATOM      4  C   UNL     1      -1.433  -0.534   0.013  0.00  0.00    +0.187 C 
BRANCH   4   6
ATOM      5  C   UNL     1      -0.019   1.526   0.010  0.00  0.00    +0.009 C 
ATOM      6  C   UNL     1       0.002  -0.004   0.002  0.00  0.00    +0.012 C 
ATOM      7  C   UNL     1       0.742  -0.511   1.242  0.00  0.00    +0.009 C 
ENDBRANCH   4   6
BRANCH   4   8
ATOM      8  N   UNL     1      -2.105  -0.148  -1.230  0.00  0.00    -0.176 NA
ATOM      9  H   UNL     1      -2.526   0.723  -1.305  0.00  0.00    +0.149 HD
BRANCH   8  10
ATOM     10  S   UNL     1      -2.147  -1.200  -2.509  0.00  0.00    +0.052 S 
ATOM     11  O   UNL     1      -2.882  -0.555  -3.541  0.00  0.00    -0.154 OA
ATOM     12  O   UNL     1      -0.817  -1.663  -2.697  0.00  0.00    -0.154 OA
BRANCH  10  13
ATOM     13  C   UNL     1      -3.100  -2.594  -2.007  0.00  0.00    +0.153 C 
ATOM     14  C   UNL     1      -4.253  -2.859  -2.606  0.00  0.00    +0.028 C 
BRANCH  14  15
ATOM     15  C   UNL     1      -5.053  -4.028  -2.184  0.00  0.00    -0.024 A 
ATOM     16  C   UNL     1      -4.600  -4.852  -1.153  0.00  0.00    +0.008 A 
ATOM     17  C   UNL     1      -5.352  -5.942  -0.764  0.00  0.00    +0.001 A 
ATOM     18  C   UNL     1      -6.551  -6.219  -1.395  0.00  0.00    +0.000 A 
ATOM     19  C   UNL     1      -7.005  -5.407  -2.419  0.00  0.00    +0.001 A 
ATOM     20  C   UNL     1      -6.267  -4.310  -2.812  0.00  0.00    +0.008 A 
ENDBRANCH  14  15
ENDBRANCH  10  13
ENDBRANCH   8  10
ENDBRANCH   4   8
ENDBRANCH   2   4
ENDBRANCH   1   2
BRANCH   1  21
ATOM     21  C   UNL     1      -2.490   0.412   3.501  0.00  0.00    +0.311 C 
BRANCH  21  22
ATOM     22  C   UNL     1      -1.854   0.056   4.820  0.00  0.00    +0.199 C 
ATOM     23  O   UNL     1      -0.853  -0.632   4.845  0.00  0.00    -0.289 OA
BRANCH  22  24
ATOM     24  C   UNL     1      -2.421   0.521   6.026  0.00  0.00    +0.034 C 
ATOM     25  C   UNL     1      -3.553   1.303   6.171  0.00  0.00    +0.007 A 
ATOM     26  C   UNL     1      -4.461   1.862   5.242  0.00  0.00    +0.010 A 
ATOM     27  C   UNL     1      -5.506   2.603   5.673  0.00  0.00    +0.001 A 
ATOM     28  C   UNL     1      -5.743   2.853   7.034  0.00  0.00    +0.002 A 
ATOM     29  C   UNL     1      -4.936   2.366   8.001  0.00  0.00    +0.026 A 
ATOM     30  C   UNL     1      -3.773   1.548   7.617  0.00  0.00    +0.044 A 
ATOM     31  N   UNL     1      -2.849   0.964   8.325  0.00  0.00    -0.373 N 
ATOM     32  C   UNL     1      -1.921   0.265   7.431  0.00  0.00    +0.144 C 
ATOM     33  H   UNL     1      -2.787   0.984   9.293  0.00  0.00    +0.161 HD
BRANCH  32  34
ATOM     34  C   UNL     1      -0.530   0.820   7.596  0.00  0.00    -0.021 A 
ATOM     35  C   UNL     1      -0.347   2.170   7.829  0.00  0.00    +0.006 A 
ATOM     36  C   UNL     1       0.929   2.679   7.980  0.00  0.00    +0.000 A 
ATOM     37  C   UNL     1       2.023   1.837   7.899  0.00  0.00    +0.000 A 
ATOM     38  C   UNL     1       1.840   0.487   7.667  0.00  0.00    +0.000 A 
ATOM     39  C   UNL     1       0.564  -0.023   7.520  0.00  0.00    +0.006 A 
ENDBRANCH  32  34
ENDBRANCH  22  24
ENDBRANCH  21  22
ENDBRANCH   1  21
TORSDOF 11
