REMARK  Name = ZINC22320195
REMARK  14 active torsions:
REMARK  status: ('A' for Active; 'I' for Inactive)
REMARK    1  A    between atoms: C_1  and  C_2
REMARK    2  A    between atoms: C_5  and  S_8
REMARK    3  A    between atoms: S_8  and  N_11
REMARK    4  A    between atoms: N_11  and  C_12
REMARK    5  A    between atoms: N_11  and  C_29
REMARK    6  A    between atoms: C_12  and  C_13
REMARK    7  A    between atoms: N_15  and  C_16
REMARK    8  A    between atoms: C_16  and  C_17
REMARK    9  A    between atoms: C_19  and  O_27
REMARK   10  A    between atoms: C_20  and  O_25
REMARK   11  A    between atoms: C_21  and  O_23
REMARK   12  A    between atoms: O_23  and  C_24
REMARK   13  A    between atoms: O_25  and  C_26
REMARK   14  A    between atoms: O_27  and  C_28
REMARK                            x       y       z     vdW  Elec       q    Type
REMARK                         _______ _______ _______ _____ _____    ______ ____
ROOT
ATOM      1  N   UNL     1      -1.009   8.332  -4.580  0.00  0.00    -0.194 N 
ENDROOT
BRANCH   1   2
ATOM      2  C   UNL     1      -1.039   9.710  -4.355  0.00  0.00    +0.053 A 
ATOM      3  C   UNL     1      -0.988  10.206  -3.058  0.00  0.00    +0.025 A 
ATOM      4  C   UNL     1      -1.017  11.569  -2.840  0.00  0.00    +0.003 A 
ATOM      5  C   UNL     1      -1.097  12.441  -3.909  0.00  0.00    +0.020 A 
ATOM      6  C   UNL     1      -1.148  11.952  -5.203  0.00  0.00    +0.043 A 
ATOM      7  C   UNL     1      -1.114  10.588  -5.429  0.00  0.00    +0.044 A 
ATOM      8 CL   UNL     1      -1.247  13.051  -6.543  0.00  0.00    -0.083 Cl
ENDBRANCH   1   2
BRANCH   1   9
ATOM      9  S   UNL     1       0.179   7.673  -5.526  0.00  0.00    +0.075 S 
ATOM     10  O   UNL     1       1.218   8.639  -5.605  0.00  0.00    -0.150 OA
ATOM     11  O   UNL     1       0.399   6.355  -5.042  0.00  0.00    -0.150 OA
BRANCH   9  16
ATOM     12  C   UNL     1      -2.080   7.109 -11.092  0.00  0.00    +0.044 C 
ATOM     13  C   UNL     1      -1.515   7.250  -9.702  0.00  0.00    -0.050 A 
ATOM     14  C   UNL     1      -0.761   8.360  -9.371  0.00  0.00    +0.005 A 
ATOM     15  C   UNL     1      -0.243   8.489  -8.096  0.00  0.00    +0.029 A 
ATOM     16  C   UNL     1      -0.481   7.508  -7.151  0.00  0.00    +0.109 A 
ATOM     17  C   UNL     1      -1.231   6.396  -7.483  0.00  0.00    +0.029 A 
ATOM     18  C   UNL     1      -1.753   6.269  -8.757  0.00  0.00    +0.005 A 
ENDBRANCH   9  16
ENDBRANCH   1   9
BRANCH   1  19
ATOM     19  C   UNL     1      -2.029   7.470  -3.978  0.00  0.00    +0.227 C 
BRANCH  19  20
ATOM     20  C   UNL     1      -1.615   7.105  -2.575  0.00  0.00    +0.232 C 
ATOM     21  O   UNL     1      -0.570   7.524  -2.123  0.00  0.00    -0.274 OA
ATOM     22  N   UNL     1      -2.405   6.313  -1.824  0.00  0.00    -0.310 N 
ATOM     23  H   UNL     1      -3.352   5.933  -2.233  0.00  0.00    +0.149 HD
BRANCH  22  24
ATOM     24  C   UNL     1      -2.002   5.958  -0.461  0.00  0.00    +0.139 C 
BRANCH  24  25
ATOM     25  C   UNL     1      -3.051   5.071   0.159  0.00  0.00    -0.023 A 
ATOM     26  C   UNL     1      -4.100   5.633   0.863  0.00  0.00    +0.054 A 
ATOM     27  C   UNL     1      -5.067   4.820   1.434  0.00  0.00    +0.165 A 
ATOM     28  C   UNL     1      -4.984   3.440   1.294  0.00  0.00    +0.204 A 
ATOM     29  C   UNL     1      -3.924   2.879   0.591  0.00  0.00    +0.165 A 
ATOM     30  C   UNL     1      -2.961   3.699   0.022  0.00  0.00    +0.054 A 
BRANCH  29  31
ATOM     31  O   UNL     1      -3.835   1.529   0.456  0.00  0.00    -0.491 OA
ATOM     32  C   UNL     1      -2.723   1.023  -0.285  0.00  0.00    +0.277 C 
ENDBRANCH  29  31
BRANCH  28  33
ATOM     33  O   UNL     1      -5.934   2.639   1.849  0.00  0.00    -0.488 OA
ATOM     34  C   UNL     1      -5.707   2.194   3.188  0.00  0.00    +0.277 C 
ENDBRANCH  28  33
BRANCH  27  35
ATOM     35  O   UNL     1      -6.099   5.373   2.126  0.00  0.00    -0.491 OA
ATOM     36  C   UNL     1      -6.124   6.798   2.224  0.00  0.00    +0.277 C 
ENDBRANCH  27  35
ENDBRANCH  24  25
ENDBRANCH  22  24
ENDBRANCH  19  20
ENDBRANCH   1  19
TORSDOF 10
