REMARK  Name = ZINC63486021
REMARK  9 active torsions:
REMARK  status: ('A' for Active; 'I' for Inactive)
REMARK    1  A    between atoms: C_1  and  C_2
REMARK    2  A    between atoms: C_3  and  O_33
REMARK    3  A    between atoms: C_11  and  C_16
REMARK    4  A    between atoms: C_13  and  C_15
REMARK    5  A    between atoms: C_16  and  C_17
REMARK    6  A    between atoms: C_17  and  C_18
REMARK    7  A    between atoms: N_20  and  C_21
REMARK    8  A    between atoms: C_21  and  C_22
REMARK    9  A    between atoms: C_22  and  C_23
REMARK                            x       y       z     vdW  Elec       q    Type
REMARK                         _______ _______ _______ _____ _____    ______ ____
ROOT
ATOM      1  C   UNL     1      -2.421  -1.112   4.793  0.00  0.00    +0.096 C 
ENDROOT
BRANCH   1   2
ATOM      2  C   UNL     1      -3.922  -0.982   4.734  0.00  0.00    +0.213 C 
ATOM      3  O   UNL     1      -4.537  -1.472   3.811  0.00  0.00    -0.276 OA
ATOM      4  N   UNL     1      -4.580  -0.320   5.706  0.00  0.00    -0.315 N 
ATOM      5  H   UNL     1      -4.088   0.072   6.445  0.00  0.00    +0.149 HD
BRANCH   4   6
ATOM      6  C   UNL     1      -6.038  -0.194   5.649  0.00  0.00    +0.108 C 
BRANCH   6   7
ATOM      7  C   UNL     1      -6.530   0.596   6.863  0.00  0.00    +0.052 C 
BRANCH   7   8
ATOM      8  C   UNL     1      -8.030   0.726   6.804  0.00  0.00    -0.040 C 
ATOM      9  C   UNL     1      -8.940  -0.069   7.412  0.00  0.00    +0.002 A 
ATOM     10  C   UNL     1      -8.810  -1.247   8.277  0.00  0.00    +0.048 A 
ATOM     11  C   UNL     1      -9.931  -1.845   8.745  0.00  0.00    +0.124 A 
ATOM     12  C   UNL     1     -11.211  -1.367   8.423  0.00  0.00    +0.040 A 
ATOM     13  C   UNL     1     -11.409  -0.290   7.634  0.00  0.00    +0.029 A 
ATOM     14  C   UNL     1     -10.301   0.415   7.088  0.00  0.00    +0.043 A 
ATOM     15  N   UNL     1     -10.235   1.468   6.310  0.00  0.00    -0.380 N 
ATOM     16  C   UNL     1      -8.823   1.776   6.057  0.00  0.00    +0.144 C 
ATOM     17  F   UNL     1      -9.815  -2.931   9.541  0.00  0.00    -0.205 F 
ATOM     18  H   UNL     1     -10.993   1.964   5.962  0.00  0.00    +0.160 HD
ENDBRANCH   7   8
ENDBRANCH   6   7
ENDBRANCH   4   6
ENDBRANCH   1   2
BRANCH   1  19
ATOM     19  C   UNL     1      -1.929  -1.902   3.579  0.00  0.00    +0.024 C 
BRANCH  19  30
ATOM     20  C   UNL     1      -0.018   1.503   0.010  0.00  0.00    +0.051 C 
ATOM     21  C   UNL     1       0.002  -0.004   0.002  0.00  0.00    +0.034 A 
ATOM     22  C   UNL     1       0.006  -0.688  -1.202  0.00  0.00    +0.123 A 
ATOM     23  C   UNL     1       0.026  -2.075  -1.207  0.00  0.00    +0.046 A 
ATOM     24  C   UNL     1       0.046  -2.768  -0.013  0.00  0.00    +0.011 A 
ATOM     25  C   UNL     1       0.044  -2.088   1.194  0.00  0.00    -0.001 A 
ATOM     26  C   UNL     1       0.023  -0.704   1.203  0.00  0.00    +0.141 A 
ATOM     27  O   UNL     1       0.005   0.007   2.364  0.00  0.00    -0.425 OA
ATOM     28  C   UNL     1       0.234  -0.666   3.509  0.00  0.00    +0.316 C 
ATOM     29  O   UNL     1       0.917  -0.201   4.390  0.00  0.00    -0.250 OA
ATOM     30  C   UNL     1      -0.406  -2.034   3.639  0.00  0.00    +0.106 C 
ATOM     31  C   UNL     1       0.077  -2.890   2.471  0.00  0.00    +0.033 C 
ATOM     32  C   UNL     1      -0.820  -4.120   2.321  0.00  0.00    +0.013 C 
BRANCH  22  33
ATOM     33  O   UNL     1      -0.011  -0.003  -2.376  0.00  0.00    -0.506 OA
ATOM     34  H   UNL     1       0.868   0.209  -2.720  0.00  0.00    +0.292 HD
ENDBRANCH  22  33
ENDBRANCH  19  30
ENDBRANCH   1  19
TORSDOF 7
