REMARK  Name = ZINC22790558
REMARK  5 active torsions:
REMARK  status: ('A' for Active; 'I' for Inactive)
REMARK    1  A    between atoms: C_6  and  N_7
REMARK    2  A    between atoms: C_8  and  C_10
REMARK    3  A    between atoms: C_10  and  N_11
REMARK    4  A    between atoms: N_14  and  C_17
REMARK    5  A    between atoms: C_17  and  C_18
REMARK                            x       y       z     vdW  Elec       q    Type
REMARK                         _______ _______ _______ _____ _____    ______ ____
ROOT
ATOM      1  C   UNL     1      -3.855  -1.181   0.372  0.00  0.00    +0.180 C 
ENDROOT
BRANCH   1   2
ATOM      2  N   UNL     1      -4.915  -0.168   0.453  0.00  0.00    -0.292 NA
ATOM      3  C   UNL     1      -4.817   0.600   1.702  0.00  0.00    +0.100 C 
ATOM      4  C   UNL     1      -5.886   1.695   1.711  0.00  0.00    +0.100 C 
ATOM      5  N   UNL     1      -7.214   1.079   1.578  0.00  0.00    -0.294 NA
ATOM      6  C   UNL     1      -7.313   0.312   0.329  0.00  0.00    +0.100 C 
ATOM      7  C   UNL     1      -6.243  -0.783   0.320  0.00  0.00    +0.100 C 
BRANCH   5   8
ATOM      8  C   UNL     1      -8.274   2.093   1.658  0.00  0.00    +0.137 C 
BRANCH   8   9
ATOM      9  C   UNL     1      -8.294   2.691   3.041  0.00  0.00    +0.037 A 
ATOM     10  C   UNL     1      -7.983   4.020   3.236  0.00  0.00    +0.093 A 
ATOM     11  C   UNL     1      -8.007   4.556   4.524  0.00  0.00    +0.259 A 
ATOM     12  O   UNL     1      -7.732   5.732   4.702  0.00  0.00    -0.267 OA
ATOM     13  N   UNL     1      -8.339   3.762   5.586  0.00  0.00    -0.264 N 
ATOM     14  C   UNL     1      -8.407   4.141   6.905  0.00  0.00    +0.104 A 
ATOM     15  C   UNL     1      -8.745   3.269   7.855  0.00  0.00    +0.067 A 
ATOM     16  S   UNL     1      -9.004   1.778   6.907  0.00  0.00    -0.059 S 
ATOM     17  C   UNL     1      -8.634   2.455   5.303  0.00  0.00    +0.158 A 
ATOM     18  N   UNL     1      -8.618   1.947   4.096  0.00  0.00    -0.338 N 
ATOM     19  H   UNL     1      -8.843   1.012   3.969  0.00  0.00    +0.168 HD
ENDBRANCH   8   9
ENDBRANCH   5   8
ENDBRANCH   1   2
BRANCH   1  21
ATOM     20  N   UNL     1      -1.390  -1.235   0.179  0.00  0.00    -0.284 N 
ATOM     21  C   UNL     1      -2.515  -0.499   0.265  0.00  0.00    +0.231 C 
ATOM     22  O   UNL     1      -2.450   0.712   0.256  0.00  0.00    -0.274 OA
ATOM     23  H   UNL     1      -1.446  -2.201   0.116  0.00  0.00    +0.155 HD
BRANCH  20  29
ATOM     24  C   UNL     1       0.944  -1.212   0.800  0.00  0.00    +0.027 A 
ATOM     25  C   UNL     1       2.179  -0.591   0.802  0.00  0.00    +0.051 A 
ATOM     26  C   UNL     1       2.340   0.638   0.185  0.00  0.00    +0.167 A 
ATOM     27  C   UNL     1       1.254   1.251  -0.438  0.00  0.00    +0.169 A 
ATOM     28  C   UNL     1       0.018   0.628  -0.440  0.00  0.00    +0.072 A 
ATOM     29  C   UNL     1      -0.139  -0.605   0.180  0.00  0.00    +0.037 A 
ATOM     30  O   UNL     1       1.667   2.442  -0.965  0.00  0.00    -0.447 OA
ATOM     31  C   UNL     1       2.916   2.731  -0.321  0.00  0.00    +0.254 C 
ATOM     32  O   UNL     1       3.435   1.445   0.048  0.00  0.00    -0.448 OA
ATOM     33  C   UNL     1       2.690   3.589   0.919  0.00  0.00    +0.093 C 
ATOM     34  C   UNL     1       2.106   4.942   0.506  0.00  0.00    +0.008 C 
ATOM     35  C   UNL     1       3.072   5.643  -0.451  0.00  0.00    +0.000 C 
ATOM     36  C   UNL     1       3.275   4.781  -1.698  0.00  0.00    +0.008 C 
ATOM     37  C   UNL     1       3.864   3.428  -1.292  0.00  0.00    +0.093 C 
ENDBRANCH  20  29
ENDBRANCH   1  21
TORSDOF 5
