REMARK  Name = ZINC63448354
REMARK  8 active torsions:
REMARK  status: ('A' for Active; 'I' for Inactive)
REMARK    1  A    between atoms: C_1  and  C_2
REMARK    2  A    between atoms: C_2  and  N_3
REMARK    3  A    between atoms: C_4  and  C_21
REMARK    4  A    between atoms: C_8  and  S_10
REMARK    5  A    between atoms: S_10  and  C_11
REMARK    6  A    between atoms: C_11  and  C_12
REMARK    7  A    between atoms: C_26  and  O_27
REMARK    8  A    between atoms: O_27  and  C_28
REMARK                            x       y       z     vdW  Elec       q    Type
REMARK                         _______ _______ _______ _____ _____    ______ ____
ROOT
ATOM      1  N   UNL     1       0.628  -0.646  -1.216  0.00  0.00    -0.257 NA
ATOM      2  C   UNL     1       0.498  -2.112  -1.383  0.00  0.00    +0.175 C 
ATOM      3  N   UNL     1       1.754  -2.514  -2.070  0.00  0.00    -0.233 NA
ATOM      4  N   UNL     1       2.765  -1.646  -1.446  0.00  0.00    -0.229 NA
ATOM      5  C   UNL     1       2.075  -0.350  -1.257  0.00  0.00    +0.200 C 
ATOM      6  H   UNL     1       1.961  -3.487  -1.904  0.00  0.00    +0.143 HD
ATOM      7  H   UNL     1       3.071  -2.025  -0.563  0.00  0.00    +0.143 HD
ENDROOT
BRANCH   2   8
ATOM      8  C   UNL     1      -0.701  -2.441  -2.236  0.00  0.00    +0.027 A 
ATOM      9  C   UNL     1      -1.757  -1.554  -2.315  0.00  0.00    +0.010 A 
ATOM     10  C   UNL     1      -2.857  -1.855  -3.096  0.00  0.00    +0.001 A 
ATOM     11  C   UNL     1      -2.903  -3.045  -3.801  0.00  0.00    +0.004 A 
ATOM     12  C   UNL     1      -1.849  -3.934  -3.726  0.00  0.00    +0.046 A 
ATOM     13  C   UNL     1      -0.741  -3.632  -2.946  0.00  0.00    +0.126 A 
BRANCH  13  14
ATOM     14  O   UNL     1       0.299  -4.503  -2.875  0.00  0.00    -0.495 OA
ATOM     15  C   UNL     1       0.189  -5.709  -3.633  0.00  0.00    +0.277 C 
ENDBRANCH  13  14
ENDBRANCH   2   8
BRANCH   1  17
ATOM     16  C   UNL     1      -0.147   1.311   0.035  0.00  0.00    +0.020 C 
ATOM     17  C   UNL     1       0.037  -0.207   0.056  0.00  0.00    +0.085 C 
ENDBRANCH   1  17
BRANCH   5  18
ATOM     18  S   UNL     1       2.599   0.411   0.304  0.00  0.00    -0.121 S 
BRANCH  18  19
ATOM     19  C   UNL     1       4.225   1.119  -0.077  0.00  0.00    +0.118 C 
BRANCH  19  20
ATOM     20  C   UNL     1       4.756   1.865   1.149  0.00  0.00    +0.184 C 
ATOM     21  N   UNL     1       4.817   0.960   2.303  0.00  0.00    -0.363 N 
ATOM     22  C   UNL     1       4.036   1.447   3.223  0.00  0.00    +0.060 A 
ATOM     23  C   UNL     1       3.686   0.998   4.578  0.00  0.00    +0.027 A 
ATOM     24  C   UNL     1       2.827   1.726   5.319  0.00  0.00    +0.002 A 
ATOM     25  C   UNL     1       2.239   2.914   4.850  0.00  0.00    +0.002 A 
ATOM     26  C   UNL     1       2.491   3.414   3.623  0.00  0.00    +0.027 A 
ATOM     27  C   UNL     1       3.414   2.705   2.727  0.00  0.00    +0.060 A 
ATOM     28  N   UNL     1       3.835   2.947   1.519  0.00  0.00    -0.363 N 
ATOM     29  H   UNL     1       5.343   0.147   2.368  0.00  0.00    +0.162 HD
ATOM     30  H   UNL     1       3.585   3.703   0.965  0.00  0.00    +0.162 HD
ENDBRANCH  19  20
ENDBRANCH  18  19
ENDBRANCH   5  18
TORSDOF 6
