REMARK  Name = ZINC63374509
REMARK  8 active torsions:
REMARK  status: ('A' for Active; 'I' for Inactive)
REMARK    1  A    between atoms: C_1  and  C_2
REMARK    2  A    between atoms: C_2  and  C_3
REMARK    3  A    between atoms: C_6  and  C_9
REMARK    4  A    between atoms: N_15  and  C_30
REMARK    5  A    between atoms: C_18  and  C_29
REMARK    6  A    between atoms: C_35  and  O_36
REMARK    7  A    between atoms: O_36  and  C_37
REMARK    8  A    between atoms: C_37  and  C_38
REMARK                            x       y       z     vdW  Elec       q    Type
REMARK                         _______ _______ _______ _____ _____    ______ ____
ROOT
ATOM      1  C   UNL     1       2.707  -1.868  -4.752  0.00  0.00    +0.065 C 
ATOM      2  C   UNL     1       3.797  -0.860  -5.167  0.00  0.00    +0.123 C 
ATOM      3  N   UNL     1       4.730  -1.536  -6.073  0.00  0.00    -0.268 N 
ATOM      4  C   UNL     1       5.099  -1.171  -7.307  0.00  0.00    +0.317 C 
ATOM      5  O   UNL     1       4.784  -0.117  -7.824  0.00  0.00    -0.252 OA
ATOM      6  N   UNL     1       5.857  -2.099  -7.906  0.00  0.00    -0.189 N 
ATOM      7  C   UNL     1       6.107  -3.142  -7.088  0.00  0.00    +0.253 C 
ATOM      8  O   UNL     1       6.738  -4.143  -7.350  0.00  0.00    -0.272 OA
ATOM      9  C   UNL     1       5.435  -2.804  -5.774  0.00  0.00    +0.137 C 
ATOM     10  C   UNL     1       4.357  -3.844  -5.451  0.00  0.00    +0.139 C 
ATOM     11  C   UNL     1       3.397  -3.180  -4.469  0.00  0.00    -0.027 C 
ATOM     12  C   UNL     1       3.349  -3.971  -3.402  0.00  0.00    -0.000 A 
ATOM     13  C   UNL     1       2.545  -3.904  -2.171  0.00  0.00    +0.010 A 
ATOM     14  C   UNL     1       2.765  -4.886  -1.258  0.00  0.00    +0.001 A 
ATOM     15  C   UNL     1       3.693  -5.916  -1.444  0.00  0.00    +0.002 A 
ATOM     16  C   UNL     1       4.468  -6.059  -2.548  0.00  0.00    +0.026 A 
ATOM     17  C   UNL     1       4.322  -5.090  -3.583  0.00  0.00    +0.043 A 
ATOM     18  N   UNL     1       4.918  -5.001  -4.750  0.00  0.00    -0.375 N 
ATOM     19  C   UNL     1       6.448  -2.644  -4.639  0.00  0.00    +0.044 C 
ATOM     20  H   UNL     1       5.607  -5.593  -5.092  0.00  0.00    +0.160 HD
ENDROOT
BRANCH   1  24
ATOM     21  C   UNL     1       0.707  -0.490  -1.238  0.00  0.00    -0.048 A 
ATOM     22  C   UNL     1      -0.011  -0.719  -2.397  0.00  0.00    +0.004 A 
ATOM     23  C   UNL     1       0.636  -1.164  -3.534  0.00  0.00    +0.004 A 
ATOM     24  C   UNL     1       2.002  -1.381  -3.513  0.00  0.00    -0.039 A 
ATOM     25  C   UNL     1       2.720  -1.152  -2.354  0.00  0.00    +0.004 A 
ATOM     26  C   UNL     1       2.073  -0.702  -1.218  0.00  0.00    +0.004 A 
BRANCH  21  28
ATOM     27  C   UNL     1      -0.019   1.526   0.010  0.00  0.00    +0.009 C 
ATOM     28  C   UNL     1       0.002  -0.004   0.002  0.00  0.00    +0.032 C 
ENDBRANCH  21  28
ENDBRANCH   1  24
BRANCH   6  29
ATOM     29  C   UNL     1       6.333  -1.998  -9.223  0.00  0.00    +0.087 A 
ATOM     30  C   UNL     1       7.561  -1.404  -9.475  0.00  0.00    +0.028 A 
ATOM     31  C   UNL     1       8.027  -1.306 -10.772  0.00  0.00    +0.002 A 
ATOM     32  C   UNL     1       7.273  -1.799 -11.820  0.00  0.00    +0.004 A 
ATOM     33  C   UNL     1       6.049  -2.393 -11.577  0.00  0.00    +0.047 A 
ATOM     34  C   UNL     1       5.577  -2.500 -10.278  0.00  0.00    +0.142 A 
BRANCH  34  35
ATOM     35  O   UNL     1       4.375  -3.089 -10.037  0.00  0.00    -0.490 OA
BRANCH  35  36
ATOM     36  C   UNL     1       3.654  -3.581 -11.168  0.00  0.00    +0.226 C 
ATOM     37  C   UNL     1       2.337  -4.205 -10.702  0.00  0.00    +0.048 C 
ENDBRANCH  35  36
ENDBRANCH  34  35
ENDBRANCH   6  29
TORSDOF 5
