REMARK  Name = ZINC39911225
REMARK  5 active torsions:
REMARK  status: ('A' for Active; 'I' for Inactive)
REMARK    1  A    between atoms: C_1  and  C_2
REMARK    2  A    between atoms: C_4  and  C_33
REMARK    3  A    between atoms: N_15  and  C_25
REMARK    4  A    between atoms: C_16  and  C_18
REMARK    5  A    between atoms: C_25  and  C_26
REMARK                            x       y       z     vdW  Elec       q    Type
REMARK                         _______ _______ _______ _____ _____    ______ ____
ROOT
ATOM      1  C   UNL     1      -0.284   1.531  -0.048  0.00  0.00    +0.044 C 
ATOM      2  C   UNL     1      -0.233   0.025  -0.065  0.00  0.00    -0.049 A 
ATOM      3  C   UNL     1      -0.274  -0.655  -1.274  0.00  0.00    +0.010 A 
ATOM      4  C   UNL     1      -0.232  -2.030  -1.312  0.00  0.00    -0.007 A 
ATOM      5  C   UNL     1      -0.145  -2.760  -0.127  0.00  0.00    +0.142 A 
ATOM      6  C   UNL     1      -0.098  -2.061   1.091  0.00  0.00    +0.065 A 
ATOM      7  C   UNL     1      -0.141  -0.667   1.111  0.00  0.00    +0.018 A 
ATOM      8  C   UNL     1       0.011  -2.829   2.357  0.00  0.00    +0.199 A 
ATOM      9  O   UNL     1      -0.111  -2.320   3.458  0.00  0.00    -0.287 OA
ATOM     10  C   UNL     1       0.278  -4.257   2.157  0.00  0.00    +0.072 A 
ATOM     11  C   UNL     1       0.209  -4.819   0.914  0.00  0.00    +0.199 A 
ATOM     12  O   UNL     1      -0.112  -4.111  -0.187  0.00  0.00    -0.449 OA
ATOM     13  C   UNL     1       0.533  -6.251   1.035  0.00  0.00    +0.283 C 
ATOM     14  O   UNL     1       0.565  -7.038   0.111  0.00  0.00    -0.267 OA
ATOM     15  N   UNL     1       0.791  -6.560   2.322  0.00  0.00    -0.279 N 
ATOM     16  C   UNL     1       0.648  -5.334   3.124  0.00  0.00    +0.148 C 
ATOM     17  C   UNL     1      -0.280  -2.749  -2.636  0.00  0.00    +0.047 C 
ENDROOT
BRANCH  16  18
ATOM     18  C   UNL     1       1.953  -4.999   3.800  0.00  0.00    +0.013 A 
ATOM     19  C   UNL     1       3.144  -5.459   3.270  0.00  0.00    +0.008 A 
ATOM     20  C   UNL     1       4.341  -5.152   3.889  0.00  0.00    +0.001 A 
ATOM     21  C   UNL     1       4.348  -4.385   5.040  0.00  0.00    +0.003 A 
ATOM     22  C   UNL     1       3.159  -3.924   5.571  0.00  0.00    +0.039 A 
ATOM     23  C   UNL     1       1.960  -4.226   4.948  0.00  0.00    +0.129 A 
ATOM     24  F   UNL     1       0.797  -3.772   5.464  0.00  0.00    -0.205 F 
ENDBRANCH  16  18
BRANCH  15  25
ATOM     25  C   UNL     1       1.150  -7.885   2.834  0.00  0.00    +0.144 C 
BRANCH  25  26
ATOM     26  C   UNL     1      -0.100  -8.623   3.239  0.00  0.00    -0.030 A 
ATOM     27  C   UNL     1      -0.609  -8.471   4.515  0.00  0.00    +0.008 A 
ATOM     28  C   UNL     1      -1.756  -9.147   4.888  0.00  0.00    +0.038 A 
ATOM     29  C   UNL     1      -2.395  -9.976   3.982  0.00  0.00    +0.123 A 
ATOM     30  C   UNL     1      -1.885 -10.127   2.704  0.00  0.00    +0.038 A 
ATOM     31  C   UNL     1      -0.741  -9.446   2.332  0.00  0.00    +0.008 A 
ATOM     32  F   UNL     1      -3.516 -10.637   4.345  0.00  0.00    -0.205 F 
ENDBRANCH  25  26
ENDBRANCH  15  25
TORSDOF 3
