REMARK  Name = ZINC11462947
REMARK  9 active torsions:
REMARK  status: ('A' for Active; 'I' for Inactive)
REMARK    1  A    between atoms: C_1  and  C_2
REMARK    2  A    between atoms: C_2  and  C_4
REMARK    3  A    between atoms: C_2  and  O_21
REMARK    4  A    between atoms: C_9  and  C_12
REMARK    5  A    between atoms: C_16  and  N_18
REMARK    6  A    between atoms: O_21  and  C_22
REMARK    7  A    between atoms: C_22  and  C_24
REMARK    8  A    between atoms: C_29  and  S_30
REMARK    9  A    between atoms: S_30  and  C_31
REMARK                            x       y       z     vdW  Elec       q    Type
REMARK                         _______ _______ _______ _____ _____    ______ ____
ROOT
ATOM      1  C   UNL     1       3.184   7.772  -0.166  0.00  0.00    +0.259 C 
ATOM      2  O   UNL     1       2.058   8.210  -0.056  0.00  0.00    -0.271 OA
ATOM      3  N   UNL     1       3.389   6.440  -0.192  0.00  0.00    -0.262 N 
ATOM      4  C   UNL     1       2.311   5.569  -0.092  0.00  0.00    +0.165 A 
ATOM      5  N   UNL     1       2.302   4.249  -0.092  0.00  0.00    -0.225 NA
ATOM      6  C   UNL     1       1.169   3.569   0.010  0.00  0.00    +0.080 A 
ATOM      7  C   UNL     1      -0.012   4.248   0.127  0.00  0.00    +0.076 A 
ATOM      8  S   UNL     1       0.571   5.938   0.078  0.00  0.00    -0.060 S 
ATOM      9  H   UNL     1       4.289   6.090  -0.280  0.00  0.00    +0.157 HD
ENDROOT
BRANCH   6  10
ATOM     10  C   UNL     1       1.183   2.086   0.002  0.00  0.00    +0.003 A 
ATOM     11  C   UNL     1      -0.017   1.376   0.010  0.00  0.00    +0.010 A 
ATOM     12  C   UNL     1       0.002  -0.004   0.002  0.00  0.00    +0.003 A 
ATOM     13  C   UNL     1       1.208  -0.682  -0.014  0.00  0.00    +0.033 A 
ATOM     14  C   UNL     1       2.401   0.018  -0.021  0.00  0.00    +0.127 A 
ATOM     15  C   UNL     1       2.394   1.398  -0.013  0.00  0.00    +0.042 A 
BRANCH  14  16
ATOM     16  N   UNL     1       3.687  -0.715  -0.037  0.00  0.00    +0.056 N 
ATOM     17  O   UNL     1       3.694  -1.933  -0.044  0.00  0.00    -0.126 OA
ATOM     18  O   UNL     1       4.738  -0.100  -0.044  0.00  0.00    -0.126 OA
ENDBRANCH  14  16
ENDBRANCH   6  10
BRANCH   1  20
ATOM     19  C   UNL     1       5.003   8.567  -1.652  0.00  0.00    +0.062 C 
ATOM     20  C   UNL     1       4.353   8.717  -0.275  0.00  0.00    +0.259 C 
BRANCH  20  21
ATOM     21  O   UNL     1       3.889  10.082  -0.105  0.00  0.00    -0.449 OA
BRANCH  21  22
ATOM     22  C   UNL     1       4.756  10.960   0.436  0.00  0.00    +0.342 C 
ATOM     23  O   UNL     1       5.870  10.594   0.757  0.00  0.00    -0.245 OA
BRANCH  22  24
ATOM     24  C   UNL     1       4.355  12.362   0.639  0.00  0.00    +0.091 A 
ATOM     25  C   UNL     1       3.077  12.799   0.269  0.00  0.00    +0.019 A 
ATOM     26  C   UNL     1       2.747  14.124   0.486  0.00  0.00    +0.021 A 
ATOM     27  C   UNL     1       3.682  14.977   1.046  0.00  0.00    +0.112 A 
ATOM     28  N   UNL     1       4.883  14.550   1.383  0.00  0.00    -0.248 NA
ATOM     29  C   UNL     1       5.250  13.289   1.203  0.00  0.00    +0.111 A 
BRANCH  29  30
ATOM     30  S   UNL     1       6.868  12.772   1.671  0.00  0.00    -0.109 S 
ATOM     31  C   UNL     1       7.525  14.335   2.307  0.00  0.00    +0.091 C 
ENDBRANCH  29  30
ENDBRANCH  22  24
ENDBRANCH  21  22
ENDBRANCH  20  21
ENDBRANCH   1  20
TORSDOF 7
