REMARK  Name = ZINC14732994
REMARK  12 active torsions:
REMARK  status: ('A' for Active; 'I' for Inactive)
REMARK    1  A    between atoms: C_1  and  C_2
REMARK    2  A    between atoms: C_2  and  C_3
REMARK    3  A    between atoms: C_2  and  C_4
REMARK    4  A    between atoms: C_4  and  N_5
REMARK    5  A    between atoms: N_8  and  C_28
REMARK    6  A    between atoms: C_16  and  C_17
REMARK    7  A    between atoms: C_16  and  N_77
REMARK    8  A    between atoms: C_25  and  C_26
REMARK    9  A    between atoms: C_25  and  C_27
REMARK   10  A    between atoms: C_28  and  C_29
REMARK   11  A    between atoms: C_29  and  C_30
REMARK   12  A    between atoms: C_30  and  C_31
REMARK                            x       y       z     vdW  Elec       q    Type
REMARK                         _______ _______ _______ _____ _____    ______ ____
ROOT
ATOM      1  N   UNL     1      -6.677   4.440  -4.259  0.00  0.00    -0.271 N 
ATOM      2  C   UNL     1      -6.460   4.146  -2.963  0.00  0.00    +0.312 C 
ATOM      3  O   UNL     1      -5.671   4.743  -2.257  0.00  0.00    -0.252 OA
ATOM      4  N   UNL     1      -7.208   3.119  -2.540  0.00  0.00    -0.224 N 
ATOM      5  C   UNL     1      -8.001   2.644  -3.523  0.00  0.00    +0.247 C 
ATOM      6  O   UNL     1      -8.790   1.727  -3.451  0.00  0.00    -0.273 OA
ATOM      7  C   UNL     1      -7.696   3.495  -4.734  0.00  0.00    +0.112 C 
ATOM      8  C   UNL     1      -8.946   4.241  -5.191  0.00  0.00    +0.017 C 
ATOM      9  C   UNL     1      -8.614   5.073  -6.433  0.00  0.00    -0.076 C 
ATOM     10  C   UNL     1      -6.870   3.520  -7.086  0.00  0.00    -0.076 C 
ATOM     11  C   UNL     1      -7.143   2.635  -5.866  0.00  0.00    +0.017 C 
ATOM     12  N   UNL     1      -8.133   4.168  -7.499  0.00  0.00    +0.382 N 
ATOM     13  H   UNL     1      -8.841   3.443  -7.665  0.00  0.00    -0.081 HD
ENDROOT
BRANCH   1  14
ATOM     14  C   UNL     1      -6.029   5.496  -5.040  0.00  0.00    +0.113 C 
BRANCH  14  16
ATOM     15  C   UNL     1      -4.211   3.914  -5.702  0.00  0.00    +0.009 C 
ATOM     16  C   UNL     1      -4.516   5.266  -5.053  0.00  0.00    +0.000 C 
ATOM     17  C   UNL     1      -3.837   6.380  -5.852  0.00  0.00    +0.009 C 
ENDBRANCH  14  16
ENDBRANCH   1  14
BRANCH  12  18
ATOM     18  C   UNL     1      -7.924   4.929  -8.749  0.00  0.00    -0.047 C 
BRANCH  18  19
ATOM     19  C   UNL     1      -9.189   5.675  -9.086  0.00  0.00    -0.086 C 
ATOM     20  C   UNL     1     -10.089   5.162  -9.894  0.00  0.00    -0.029 C 
ATOM     21  C   UNL     1     -11.346   5.939 -10.200  0.00  0.00    +0.031 C 
ATOM     22  C   UNL     1     -11.288   7.310  -9.511  0.00  0.00    -0.000 C 
ATOM     23  C   UNL     1     -10.930   7.159  -8.019  0.00  0.00    +0.012 C 
ATOM     24  C   UNL     1      -9.476   7.046  -8.500  0.00  0.00    +0.019 C 
ATOM     25  C   UNL     1      -9.924   8.002  -9.676  0.00  0.00    -0.025 C 
ATOM     26  C   UNL     1      -9.250   7.731 -11.023  0.00  0.00    +0.012 C 
ATOM     27  C   UNL     1      -9.932   9.484  -9.296  0.00  0.00    +0.012 C 
ENDBRANCH  18  19
ENDBRANCH  12  18
BRANCH   4  28
ATOM     28  C   UNL     1      -7.176   2.583  -1.177  0.00  0.00    +0.118 C 
BRANCH  28  29
ATOM     29  C   UNL     1      -6.128   1.472  -1.091  0.00  0.00    +0.024 C 
BRANCH  29  30
ATOM     30  C   UNL     1      -6.094   0.912   0.333  0.00  0.00    +0.038 C 
BRANCH  30  31
ATOM     31  C   UNL     1      -5.061  -0.182   0.418  0.00  0.00    -0.029 A 
ATOM     32  C   UNL     1      -5.410  -1.498   0.154  0.00  0.00    +0.006 A 
ATOM     33  C   UNL     1      -4.428  -2.472   0.249  0.00  0.00    +0.020 A 
ATOM     34  C   UNL     1      -3.141  -2.101   0.591  0.00  0.00    +0.111 A 
ATOM     35  N   UNL     1      -2.845  -0.838   0.830  0.00  0.00    -0.263 NA
ATOM     36  C   UNL     1      -3.754   0.114   0.754  0.00  0.00    +0.114 A 
ENDBRANCH  30  31
ENDBRANCH  29  30
ENDBRANCH  28  29
ENDBRANCH   4  28
TORSDOF 8
