REMARK  Name = ZINC08739147
REMARK  12 active torsions:
REMARK  status: ('A' for Active; 'I' for Inactive)
REMARK    1  A    between atoms: C_1  and  C_2
REMARK    2  A    between atoms: C_4  and  C_35
REMARK    3  A    between atoms: C_5  and  C_9
REMARK    4  A    between atoms: C_6  and  C_8
REMARK    5  A    between atoms: C_10  and  C_20
REMARK    6  A    between atoms: N_12  and  C_14
REMARK    7  A    between atoms: C_22  and  C_29
REMARK    8  A    between atoms: C_23  and  C_28
REMARK    9  A    between atoms: C_29  and  O_31
REMARK   10  A    between atoms: O_31  and  C_32
REMARK   11  A    between atoms: C_32  and  C_33
REMARK   12  A    between atoms: C_32  and  C_34
REMARK                            x       y       z     vdW  Elec       q    Type
REMARK                         _______ _______ _______ _____ _____    ______ ____
ROOT
ATOM      1  C   UNL     1      -2.946  -2.445  -1.127  0.00  0.00    +0.099 A 
ATOM      2  C   UNL     1      -1.596  -2.050  -1.057  0.00  0.00    +0.023 A 
ATOM      3  C   UNL     1      -0.955  -2.569  -2.128  0.00  0.00    +0.121 A 
ATOM      4  N   UNL     1      -1.861  -3.278  -2.851  0.00  0.00    -0.239 N 
ATOM      5  N   UNL     1      -3.100  -3.183  -2.207  0.00  0.00    -0.166 NA
ENDROOT
BRANCH   2   6
ATOM      6  C   UNL     1      -0.976  -1.195   0.018  0.00  0.00    +0.147 C 
ATOM      7  C   UNL     1      -0.348   0.014  -0.645  0.00  0.00    +0.078 C 
ATOM      8  C   UNL     1       0.974   0.215  -0.461  0.00  0.00    +0.021 C 
ATOM      9  N   UNL     1       1.717  -0.636   0.305  0.00  0.00    -0.273 N 
ATOM     10  C   UNL     1       1.213  -1.715   0.918  0.00  0.00    +0.304 C 
ATOM     11  O   UNL     1       1.954  -2.415   1.580  0.00  0.00    -0.252 OA
ATOM     12  N   UNL     1      -0.089  -2.051   0.823  0.00  0.00    -0.288 N 
ATOM     13  C   UNL     1       1.640   1.403  -1.107  0.00  0.00    +0.061 C 
ATOM     14  H   UNL     1       2.792  -0.453   0.447  0.00  0.00    +0.156 HD
ATOM     15  H   UNL     1      -0.493  -2.939   1.330  0.00  0.00    +0.151 HD
BRANCH   7  16
ATOM     16  C   UNL     1      -1.120   0.898  -1.435  0.00  0.00    +0.339 C 
ATOM     17  O   UNL     1      -0.573   1.777  -2.074  0.00  0.00    -0.245 OA
BRANCH  16  18
ATOM     18  O   UNL     1      -2.462   0.768  -1.478  0.00  0.00    -0.459 OA
BRANCH  18  19
ATOM     19  C   UNL     1      -3.189   1.773  -2.187  0.00  0.00    +0.171 C 
ATOM     20  C   UNL     1      -4.420   1.144  -2.844  0.00  0.00    +0.052 C 
ATOM     21  C   UNL     1      -3.634   2.865  -1.211  0.00  0.00    +0.052 C 
ENDBRANCH  18  19
ENDBRANCH  16  18
ENDBRANCH   7  16
ENDBRANCH   2   6
BRANCH   1  26
ATOM     22  C   UNL     1      -7.072  -1.073   2.649  0.00  0.00    +0.044 C 
ATOM     23  C   UNL     1      -5.992  -1.432   1.661  0.00  0.00    -0.050 A 
ATOM     24  C   UNL     1      -6.219  -1.274   0.306  0.00  0.00    +0.007 A 
ATOM     25  C   UNL     1      -5.234  -1.602  -0.604  0.00  0.00    -0.041 A 
ATOM     26  C   UNL     1      -4.009  -2.092  -0.154  0.00  0.00    +0.008 A 
ATOM     27  C   UNL     1      -3.788  -2.253   1.212  0.00  0.00    -0.041 A 
ATOM     28  C   UNL     1      -4.779  -1.919   2.113  0.00  0.00    +0.007 A 
ATOM     29  C   UNL     1      -2.469  -2.788   1.706  0.00  0.00    +0.044 C 
ATOM     30  C   UNL     1      -5.482  -1.430  -2.080  0.00  0.00    +0.044 C 
ENDBRANCH   1  26
BRANCH   4  31
ATOM     31  C   UNL     1      -1.601  -3.977  -4.038  0.00  0.00    +0.065 A 
ATOM     32  C   UNL     1      -0.320  -3.984  -4.575  0.00  0.00    +0.028 A 
ATOM     33  C   UNL     1      -0.066  -4.678  -5.741  0.00  0.00    +0.002 A 
ATOM     34  C   UNL     1      -1.087  -5.356  -6.381  0.00  0.00    +0.000 A 
ATOM     35  C   UNL     1      -2.365  -5.347  -5.851  0.00  0.00    +0.002 A 
ATOM     36  C   UNL     1      -2.624  -4.659  -4.682  0.00  0.00    +0.028 A 
ENDBRANCH   4  31
TORSDOF 6
