REMARK  Name = ZINC12538230
REMARK  7 active torsions:
REMARK  status: ('A' for Active; 'I' for Inactive)
REMARK    1  A    between atoms: C_1  and  C_2
REMARK    2  A    between atoms: C_2  and  C_4
REMARK    3  A    between atoms: C_2  and  S_18
REMARK    4  A    between atoms: C_7  and  C_9
REMARK    5  A    between atoms: C_12  and  N_15
REMARK    6  A    between atoms: S_18  and  C_19
REMARK    7  A    between atoms: C_23  and  N_25
REMARK                            x       y       z     vdW  Elec       q    Type
REMARK                         _______ _______ _______ _____ _____    ______ ____
ROOT
ATOM      1  C   UNL     1       2.362   4.266  -1.305  0.00  0.00    +0.029 C 
ATOM      2  C   UNL     1       3.129   4.008  -0.006  0.00  0.00    +0.139 C 
ENDROOT
BRANCH   2   3
ATOM      3  C   UNL     1       4.262   4.995   0.112  0.00  0.00    +0.231 A 
ATOM      4  N   UNL     1       5.381   4.965  -0.556  0.00  0.00    -0.111 NA
ATOM      5  N   UNL     1       6.118   5.960  -0.204  0.00  0.00    -0.107 NA
ATOM      6  C   UNL     1       5.489   6.664   0.708  0.00  0.00    +0.248 A 
ATOM      7  O   UNL     1       4.298   6.068   0.921  0.00  0.00    -0.419 OA
BRANCH   6   8
ATOM      8  C   UNL     1       5.990   7.885   1.373  0.00  0.00    +0.039 A 
ATOM      9  C   UNL     1       5.205   8.537   2.326  0.00  0.00    +0.015 A 
ATOM     10  C   UNL     1       5.681   9.673   2.947  0.00  0.00    +0.033 A 
ATOM     11  C   UNL     1       6.928  10.173   2.619  0.00  0.00    +0.126 A 
ATOM     12  C   UNL     1       7.709   9.535   1.672  0.00  0.00    +0.033 A 
ATOM     13  C   UNL     1       7.247   8.395   1.047  0.00  0.00    +0.015 A 
BRANCH  11  14
ATOM     14  N   UNL     1       7.430  11.396   3.285  0.00  0.00    +0.056 N 
ATOM     15  O   UNL     1       8.527  11.839   2.998  0.00  0.00    -0.126 OA
ATOM     16  O   UNL     1       6.744  11.960   4.119  0.00  0.00    -0.126 OA
ENDBRANCH  11  14
ENDBRANCH   6   8
ENDBRANCH   2   3
BRANCH   2  17
ATOM     17  S   UNL     1       3.794   2.325  -0.022  0.00  0.00    -0.073 S 
BRANCH  17  18
ATOM     18  C   UNL     1       2.292   1.403  -0.012  0.00  0.00    +0.192 A 
ATOM     19  N   UNL     1       1.137   2.051   0.002  0.00  0.00    -0.207 NA
ATOM     20  C   UNL     1      -0.017   1.388   0.010  0.00  0.00    +0.122 A 
ATOM     21  C   UNL     1       0.002  -0.004   0.002  0.00  0.00    +0.086 A 
ATOM     22  C   UNL     1       1.235  -0.650  -0.013  0.00  0.00    +0.122 A 
ATOM     23  N   UNL     1       2.348   0.079  -0.020  0.00  0.00    -0.207 NA
ATOM     24  N   UNL     1      -1.221   2.074   0.019  0.00  0.00    -0.343 N 
ATOM     25  H   UNL     1      -2.058   1.584   0.020  0.00  0.00    +0.144 HD
ATOM     26  H   UNL     1      -1.227   3.043   0.024  0.00  0.00    +0.144 HD
BRANCH  22  27
ATOM     27  N   UNL     1       1.302  -2.035  -0.022  0.00  0.00    -0.343 N 
ATOM     28  H   UNL     1       0.487  -2.560  -0.017  0.00  0.00    +0.144 HD
ATOM     29  H   UNL     1       2.165  -2.478  -0.032  0.00  0.00    +0.144 HD
ENDBRANCH  22  27
ENDBRANCH  17  18
ENDBRANCH   2  17
TORSDOF 6
