REMARK  Name = ZINC22754557
REMARK  12 active torsions:
REMARK  status: ('A' for Active; 'I' for Inactive)
REMARK    1  A    between atoms: C_1  and  C_2
REMARK    2  A    between atoms: C_2  and  C_3
REMARK    3  A    between atoms: C_2  and  C_4
REMARK    4  A    between atoms: C_4  and  C_6
REMARK    5  A    between atoms: C_4  and  N_29
REMARK    6  A    between atoms: C_6  and  N_7
REMARK    7  A    between atoms: C_8  and  C_10
REMARK    8  A    between atoms: N_13  and  C_16
REMARK    9  A    between atoms: C_19  and  C_25
REMARK   10  A    between atoms: C_21  and  N_22
REMARK   11  A    between atoms: N_29  and  C_30
REMARK   12  A    between atoms: N_29  and  C_31
REMARK                            x       y       z     vdW  Elec       q    Type
REMARK                         _______ _______ _______ _____ _____    ______ ____
ROOT
ATOM      1  C   UNL     1       3.410  -0.092  -3.848  0.00  0.00    +0.078 C 
ATOM      2  C   UNL     1       2.733   1.125  -3.210  0.00  0.00    +0.031 C 
ATOM      3  C   UNL     1       1.485   1.490  -4.017  0.00  0.00    +0.106 C 
ATOM      4  N   UNL     1       1.867   1.789  -5.403  0.00  0.00    -0.328 N 
ATOM      5  C   UNL     1       2.475   0.621  -6.051  0.00  0.00    +0.106 C 
ATOM      6  C   UNL     1       3.753   0.230  -5.305  0.00  0.00    +0.031 C 
ENDROOT
BRANCH   4   7
ATOM      7  C   UNL     1       0.771   2.253  -6.135  0.00  0.00    +0.060 A 
ATOM      8  C   UNL     1      -0.354   1.452  -6.287  0.00  0.00    +0.026 A 
ATOM      9  C   UNL     1      -1.433   1.912  -7.015  0.00  0.00    +0.014 A 
ATOM     10  C   UNL     1      -1.400   3.172  -7.583  0.00  0.00    +0.057 A 
ATOM     11  C   UNL     1      -0.282   3.972  -7.434  0.00  0.00    +0.047 A 
ATOM     12  C   UNL     1       0.803   3.516  -6.711  0.00  0.00    +0.148 A 
BRANCH  10  13
ATOM     13  C   UNL     1      -2.582   3.673  -8.373  0.00  0.00    +0.417 C 
ATOM     14  F   UNL     1      -2.432   3.313  -9.716  0.00  0.00    -0.166 F 
ATOM     15  F   UNL     1      -3.756   3.104  -7.866  0.00  0.00    -0.166 F 
ATOM     16  F   UNL     1      -2.656   5.066  -8.268  0.00  0.00    -0.166 F 
ENDBRANCH  10  13
BRANCH  12  17
ATOM     17  N   UNL     1       1.999   4.373  -6.551  0.00  0.00    +0.058 N 
ATOM     18  O   UNL     1       2.027   5.481  -7.056  0.00  0.00    -0.126 OA
ATOM     19  O   UNL     1       2.956   3.971  -5.913  0.00  0.00    -0.126 OA
ENDBRANCH  12  17
ENDBRANCH   4   7
BRANCH   1  21
ATOM     20  N   UNL     1       5.437  -1.460  -3.478  0.00  0.00    -0.317 N 
ATOM     21  C   UNL     1       4.673  -0.419  -3.093  0.00  0.00    +0.216 C 
ATOM     22  O   UNL     1       5.000   0.254  -2.139  0.00  0.00    -0.276 OA
ATOM     23  H   UNL     1       5.140  -2.070  -4.344  0.00  0.00    +0.149 HD
BRANCH  20  24
ATOM     24  C   UNL     1       6.665  -1.778  -2.745  0.00  0.00    +0.089 C 
BRANCH  24  25
ATOM     25  C   UNL     1       7.340  -2.994  -3.383  0.00  0.00    -0.049 C 
BRANCH  25  26
ATOM     26  N   UNL     1       6.386  -4.109  -3.440  0.00  0.00    +0.379 N 
ATOM     27  C   UNL     1       6.815  -5.120  -4.416  0.00  0.00    -0.096 C 
ATOM     28  C   UNL     1       6.196  -4.708  -2.112  0.00  0.00    -0.096 C 
ATOM     29  H   UNL     1       5.417  -3.709  -3.772  0.00  0.00    -0.082 HD
ENDBRANCH  25  26
BRANCH  25  31
ATOM     30  C   UNL     1       9.274  -4.568  -3.224  0.00  0.00    +0.005 C 
ATOM     31  C   UNL     1       8.553  -3.402  -2.544  0.00  0.00    -0.029 C 
ATOM     32  C   UNL     1       9.509  -2.215  -2.418  0.00  0.00    +0.005 C 
ENDBRANCH  25  31
ENDBRANCH  24  25
ENDBRANCH  20  24
ENDBRANCH   1  21
TORSDOF 8
