REMARK  Name = ZINC15678187
REMARK  8 active torsions:
REMARK  status: ('A' for Active; 'I' for Inactive)
REMARK    1  A    between atoms: C_1  and  C_2
REMARK    2  A    between atoms: C_5  and  N_8
REMARK    3  A    between atoms: C_9  and  C_11
REMARK    4  A    between atoms: C_11  and  C_34
REMARK    5  A    between atoms: C_14  and  C_29
REMARK    6  A    between atoms: N_20  and  C_21
REMARK    7  A    between atoms: C_21  and  C_22
REMARK    8  A    between atoms: C_22  and  N_75
REMARK                            x       y       z     vdW  Elec       q    Type
REMARK                         _______ _______ _______ _____ _____    ______ ____
ROOT
ATOM      1  C   UNL     1      -0.246  -1.241   5.723  0.00  0.00    +0.128 C 
ATOM      2  C   UNL     1       0.089  -2.730   5.850  0.00  0.00    +0.157 C 
ATOM      3  N   UNL     1       1.537  -2.908   5.709  0.00  0.00    -0.331 N 
ATOM      4  C   UNL     1       2.356  -3.852   6.234  0.00  0.00    +0.085 A 
ATOM      5  C   UNL     1       3.643  -3.610   5.779  0.00  0.00    +0.032 A 
ATOM      6  C   UNL     1       3.601  -2.481   4.960  0.00  0.00    +0.033 A 
ATOM      7  C   UNL     1       2.306  -2.045   4.934  0.00  0.00    +0.105 A 
ATOM      8  C   UNL     1       1.689  -0.908   4.242  0.00  0.00    +0.264 C 
ATOM      9  O   UNL     1       2.296  -0.258   3.411  0.00  0.00    -0.268 OA
ATOM     10  N   UNL     1       0.409  -0.620   4.578  0.00  0.00    -0.282 N 
ATOM     11  C   UNL     1      -1.760  -1.085   5.571  0.00  0.00    +0.043 C 
ENDROOT
BRANCH   4  12
ATOM     12  C   UNL     1       1.950  -4.942   7.131  0.00  0.00    +0.151 A 
ATOM     13  C   UNL     1       2.784  -5.839   7.732  0.00  0.00    +0.051 A 
ATOM     14  C   UNL     1       1.973  -6.696   8.498  0.00  0.00    +0.042 A 
ATOM     15  C   UNL     1       0.697  -6.295   8.324  0.00  0.00    +0.196 A 
ATOM     16  O   UNL     1       0.686  -5.236   7.498  0.00  0.00    -0.461 OA
ENDBRANCH   4  12
BRANCH   1  18
ATOM     17  N   UNL     1       1.447  -0.053   7.081  0.00  0.00    -0.311 N 
ATOM     18  C   UNL     1       0.190  -0.530   6.979  0.00  0.00    +0.238 C 
ATOM     19  O   UNL     1      -0.589  -0.386   7.896  0.00  0.00    -0.273 OA
ATOM     20  H   UNL     1       2.071  -0.168   6.347  0.00  0.00    +0.149 HD
BRANCH  17  25
ATOM     21  C   UNL     1       3.880   3.444  10.912  0.00  0.00    +0.007 C 
ATOM     22  C   UNL     1       3.437   2.722   9.638  0.00  0.00    -0.014 C 
ATOM     23  C   UNL     1       3.833   1.246   9.724  0.00  0.00    +0.005 C 
ATOM     24  C   UNL     1       3.390   0.525   8.450  0.00  0.00    +0.022 C 
ATOM     25  C   UNL     1       1.871   0.638   8.301  0.00  0.00    +0.073 C 
ATOM     26  C   UNL     1       1.476   2.113   8.215  0.00  0.00    +0.022 C 
ATOM     27  C   UNL     1       1.919   2.835   9.489  0.00  0.00    +0.005 C 
ENDBRANCH  17  25
ENDBRANCH   1  18
BRANCH  10  28
ATOM     28  C   UNL     1      -0.337   0.347   3.770  0.00  0.00    +0.091 C 
BRANCH  28  29
ATOM     29  C   UNL     1      -1.060  -0.384   2.637  0.00  0.00    -0.060 C 
BRANCH  29  36
ATOM     30  C   UNL     1      -1.902   0.033   0.397  0.00  0.00    -0.079 C 
ATOM     31  C   UNL     1      -3.174  -0.762   0.279  0.00  0.00    -0.019 C 
ATOM     32  C   UNL     1      -4.291   0.167  -0.241  0.00  0.00    -0.002 C 
ATOM     33  C   UNL     1      -4.832   1.021   0.810  0.00  0.00    -0.002 C 
ATOM     34  C   UNL     1      -3.760   1.952   1.414  0.00  0.00    -0.019 C 
ATOM     35  C   UNL     1      -2.923   1.155   2.377  0.00  0.00    -0.079 C 
ATOM     36  N   UNL     1      -1.659   0.630   1.756  0.00  0.00    +0.381 N 
ATOM     37  H   UNL     1      -1.000   1.411   1.653  0.00  0.00    -0.082 HD
ENDBRANCH  29  36
ENDBRANCH  28  29
ENDBRANCH  10  28
TORSDOF 6
