REMARK  Name = ZINC06300913
REMARK  9 active torsions:
REMARK  status: ('A' for Active; 'I' for Inactive)
REMARK    1  A    between atoms: C_1  and  C_2
REMARK    2  A    between atoms: C_4  and  C_35
REMARK    3  A    between atoms: C_9  and  C_14
REMARK    4  A    between atoms: C_14  and  C_16
REMARK    5  A    between atoms: C_14  and  N_72
REMARK    6  A    between atoms: N_20  and  C_21
REMARK    7  A    between atoms: C_21  and  C_22
REMARK    8  A    between atoms: C_21  and  C_23
REMARK    9  A    between atoms: C_21  and  C_24
REMARK                            x       y       z     vdW  Elec       q    Type
REMARK                         _______ _______ _______ _____ _____    ______ ____
ROOT
ATOM      1  C   UNL     1       1.075   7.176  -0.139  0.00  0.00    +0.039 C 
ENDROOT
BRANCH   1  10
ATOM      2  C   UNL     1      -2.182   0.635  -1.631  0.00  0.00    +0.044 C 
ATOM      3  C   UNL     1      -0.953   1.453  -1.330  0.00  0.00    -0.050 A 
ATOM      4  C   UNL     1       0.287   0.831  -1.260  0.00  0.00    +0.008 A 
ATOM      5  C   UNL     1       1.425   1.560  -0.993  0.00  0.00    -0.026 A 
ATOM      6  C   UNL     1       1.334   2.932  -0.785  0.00  0.00    +0.052 A 
ATOM      7  C   UNL     1       0.075   3.558  -0.851  0.00  0.00    -0.001 A 
ATOM      8  C   UNL     1      -1.068   2.798  -1.124  0.00  0.00    +0.013 A 
ATOM      9  C   UNL     1      -0.012   5.003  -0.631  0.00  0.00    +0.017 A 
ATOM     10  C   UNL     1       1.129   5.688  -0.371  0.00  0.00    +0.011 A 
ATOM     11  C   UNL     1       2.367   5.012  -0.315  0.00  0.00    +0.251 A 
ATOM     12  O   UNL     1       3.380   5.647  -0.079  0.00  0.00    -0.268 OA
ATOM     13  N   UNL     1       2.456   3.686  -0.515  0.00  0.00    -0.322 N 
ATOM     14  H   UNL     1       3.323   3.253  -0.470  0.00  0.00    +0.169 HD
ATOM     15  C   UNL     1       2.765   0.872  -0.925  0.00  0.00    +0.046 C 
ENDBRANCH   1  10
BRANCH   1  26
ATOM     16  C   UNL     1       0.982   6.847   2.258  0.00  0.00    -0.077 C 
ATOM     17  C   UNL     1       1.741   7.079   3.566  0.00  0.00    -0.018 C 
ATOM     18  C   UNL     1       1.861   8.584   3.821  0.00  0.00    +0.003 C 
ATOM     19  C   UNL     1       2.570   9.240   2.633  0.00  0.00    -0.044 C 
ATOM     20  C   UNL     1       1.787   8.946   1.352  0.00  0.00    -0.071 C 
ATOM     21  C   UNL     1       3.985   8.672   2.508  0.00  0.00    +0.005 C 
ATOM     22  C   UNL     1       4.765   8.963   3.792  0.00  0.00    +0.000 C 
ATOM     23  C   UNL     1       4.839  10.475   4.012  0.00  0.00    +0.000 C 
ATOM     24  C   UNL     1       3.424  11.042   4.137  0.00  0.00    +0.000 C 
ATOM     25  C   UNL     1       2.643  10.751   2.853  0.00  0.00    +0.005 C 
ATOM     26  N   UNL     1       1.728   7.482   1.151  0.00  0.00    +0.390 N 
ATOM     27  H   UNL     1       2.685   7.110   1.137  0.00  0.00    -0.080 HD
ENDBRANCH   1  26
BRANCH   1  28
ATOM     28  C   UNL     1       1.816   7.884  -1.244  0.00  0.00    +0.143 A 
ATOM     29  N   UNL     1       3.110   7.868  -1.454  0.00  0.00    -0.115 NA
ATOM     30  N   UNL     1       3.353   8.591  -2.492  0.00  0.00    -0.023 NA
ATOM     31  N   UNL     1       2.249   9.068  -2.949  0.00  0.00    -0.043 NA
ATOM     32  N   UNL     1       1.277   8.650  -2.210  0.00  0.00    -0.225 N 
BRANCH  32  33
ATOM     33  C   UNL     1      -0.144   8.956  -2.387  0.00  0.00    +0.059 C 
ATOM     34  C   UNL     1      -0.655   9.731  -1.171  0.00  0.00    +0.036 C 
ATOM     35  C   UNL     1      -0.331   9.805  -3.647  0.00  0.00    +0.036 C 
ATOM     36  C   UNL     1      -0.932   7.652  -2.529  0.00  0.00    +0.036 C 
ENDBRANCH  32  33
ENDBRANCH   1  28
TORSDOF 4
