REMARK  Name = ZINC39838931
REMARK  13 active torsions:
REMARK  status: ('A' for Active; 'I' for Inactive)
REMARK    1  A    between atoms: C_1  and  C_2
REMARK    2  A    between atoms: C_2  and  O_3
REMARK    3  A    between atoms: O_3  and  C_4
REMARK    4  A    between atoms: C_6  and  C_16
REMARK    5  A    between atoms: C_9  and  O_10
REMARK    6  A    between atoms: O_10  and  C_11
REMARK    7  A    between atoms: C_11  and  C_12
REMARK    8  A    between atoms: C_12  and  C_13
REMARK    9  A    between atoms: C_13  and  C_14
REMARK   10  A    between atoms: C_13  and  C_15
REMARK   11  A    between atoms: C_23  and  C_40
REMARK   12  A    between atoms: C_24  and  C_39
REMARK   13  A    between atoms: C_34  and  C_38
REMARK                            x       y       z     vdW  Elec       q    Type
REMARK                         _______ _______ _______ _____ _____    ______ ____
ROOT
ATOM      1  C   UNL     1      -0.229  -4.969   0.477  0.00  0.00    +0.151 C 
ATOM      2  C   UNL     1       0.851  -5.487   1.369  0.00  0.00    +0.072 A 
ATOM      3  C   UNL     1       1.784  -4.793   2.262  0.00  0.00    +0.199 A 
ATOM      4  O   UNL     1       1.687  -3.610   2.539  0.00  0.00    -0.287 OA
ATOM      5  C   UNL     1       2.858  -5.667   2.796  0.00  0.00    +0.065 A 
ATOM      6  C   UNL     1       3.933  -5.119   3.495  0.00  0.00    +0.019 A 
ATOM      7  C   UNL     1       4.917  -5.937   3.977  0.00  0.00    -0.047 A 
ATOM      8  C   UNL     1       4.849  -7.308   3.770  0.00  0.00    -0.044 A 
ATOM      9  C   UNL     1       3.794  -7.866   3.084  0.00  0.00    +0.050 A 
ATOM     10  C   UNL     1       2.776  -7.053   2.585  0.00  0.00    +0.140 A 
ATOM     11  O   UNL     1       1.745  -7.624   1.922  0.00  0.00    -0.450 OA
ATOM     12  C   UNL     1       0.880  -6.847   1.240  0.00  0.00    +0.199 A 
ATOM     13  C   UNL     1      -0.159  -7.242   0.274  0.00  0.00    +0.288 C 
ATOM     14  O   UNL     1      -0.393  -8.384  -0.068  0.00  0.00    -0.266 OA
ATOM     15  N   UNL     1      -0.814  -6.151  -0.177  0.00  0.00    -0.238 N 
ATOM     16  C   UNL     1      -1.859  -6.143  -1.097  0.00  0.00    +0.129 A 
ATOM     17  C   UNL     1      -2.368  -4.931  -1.552  0.00  0.00    +0.047 A 
ATOM     18  C   UNL     1      -3.406  -4.939  -2.466  0.00  0.00    -0.046 A 
ATOM     19  C   UNL     1      -3.902  -6.162  -2.896  0.00  0.00    +0.023 A 
ATOM     20  C   UNL     1      -3.349  -7.327  -2.402  0.00  0.00    +0.113 A 
ATOM     21  N   UNL     1      -2.355  -7.290  -1.535  0.00  0.00    -0.240 NA
ATOM     22  C   UNL     1      -3.986  -3.647  -2.983  0.00  0.00    +0.044 C 
ATOM     23  C   UNL     1       5.943  -8.196   4.304  0.00  0.00    +0.044 C 
ATOM     24  C   UNL     1       6.080  -5.349   4.733  0.00  0.00    +0.044 C 
ENDROOT
BRANCH   1  27
ATOM     25  C   UNL     1       0.777  -1.811  -1.336  0.00  0.00    +0.162 A 
ATOM     26  C   UNL     1       0.243  -2.669  -0.388  0.00  0.00    +0.055 A 
ATOM     27  C   UNL     1       0.352  -4.037  -0.555  0.00  0.00    -0.018 A 
ATOM     28  C   UNL     1       0.992  -4.552  -1.667  0.00  0.00    +0.009 A 
ATOM     29  C   UNL     1       1.526  -3.702  -2.616  0.00  0.00    +0.050 A 
ATOM     30  C   UNL     1       1.416  -2.330  -2.458  0.00  0.00    +0.162 A 
BRANCH  25  31
ATOM     31  O   UNL     1       0.671  -0.465  -1.174  0.00  0.00    -0.489 OA
BRANCH  31  33
ATOM     32  C   UNL     1      -0.019   1.526   0.010  0.00  0.00    +0.048 C 
ATOM     33  C   UNL     1       0.002  -0.004   0.002  0.00  0.00    +0.226 C 
ENDBRANCH  31  33
ENDBRANCH  25  31
BRANCH  30  34
ATOM     34  O   UNL     1       1.936  -1.492  -3.394  0.00  0.00    -0.488 OA
BRANCH  34  35
ATOM     35  C   UNL     1       2.578  -2.095  -4.520  0.00  0.00    +0.229 C 
BRANCH  35  36
ATOM     36  C   UNL     1       3.096  -1.002  -5.457  0.00  0.00    +0.044 C 
BRANCH  36  37
ATOM     37  C   UNL     1       3.783  -1.648  -6.662  0.00  0.00    -0.014 C 
ATOM     38  C   UNL     1       4.191  -0.561  -7.660  0.00  0.00    +0.007 C 
ATOM     39  C   UNL     1       5.029  -2.404  -6.194  0.00  0.00    +0.007 C 
ENDBRANCH  36  37
ENDBRANCH  35  36
ENDBRANCH  34  35
ENDBRANCH  30  34
ENDBRANCH   1  27
TORSDOF 7
