REMARK  Name = ZINC22240718
REMARK  10 active torsions:
REMARK  status: ('A' for Active; 'I' for Inactive)
REMARK    1  A    between atoms: C_1  and  C_2
REMARK    2  A    between atoms: C_2  and  O_3
REMARK    3  A    between atoms: O_3  and  C_4
REMARK    4  A    between atoms: C_4  and  C_6
REMARK    5  A    between atoms: N_11  and  C_13
REMARK    6  A    between atoms: C_13  and  C_14
REMARK    7  A    between atoms: C_19  and  C_22
REMARK    8  A    between atoms: C_23  and  C_30
REMARK    9  A    between atoms: C_25  and  C_29
REMARK   10  A    between atoms: C_27  and  C_28
REMARK                            x       y       z     vdW  Elec       q    Type
REMARK                         _______ _______ _______ _____ _____    ______ ____
ROOT
ATOM      1  C   UNL     1       3.451   1.934   3.624  0.00  0.00    +0.202 C 
ATOM      2  O   UNL     1       2.887   1.473   4.593  0.00  0.00    -0.277 OA
ATOM      3  N   UNL     1       4.758   2.259   3.695  0.00  0.00    -0.266 N 
ATOM      4  C   UNL     1       5.458   2.064   4.879  0.00  0.00    +0.165 A 
ATOM      5  N   UNL     1       6.727   2.309   5.149  0.00  0.00    -0.225 NA
ATOM      6  C   UNL     1       7.235   2.064   6.347  0.00  0.00    +0.081 A 
ATOM      7  C   UNL     1       6.432   1.537   7.321  0.00  0.00    +0.076 A 
ATOM      8  S   UNL     1       4.882   1.409   6.439  0.00  0.00    -0.060 S 
ATOM      9  H   UNL     1       5.269   2.678   2.816  0.00  0.00    +0.157 HD
ENDROOT
BRANCH   6  10
ATOM     10  C   UNL     1       8.662   2.353   6.629  0.00  0.00    +0.007 A 
ATOM     11  C   UNL     1       9.014   3.131   7.731  0.00  0.00    -0.041 A 
ATOM     12  C   UNL     1      10.344   3.392   7.992  0.00  0.00    +0.007 A 
ATOM     13  C   UNL     1      11.326   2.894   7.154  0.00  0.00    -0.050 A 
ATOM     14  C   UNL     1      10.982   2.127   6.056  0.00  0.00    +0.007 A 
ATOM     15  C   UNL     1       9.656   1.854   5.789  0.00  0.00    -0.041 A 
ATOM     16  C   UNL     1       9.283   1.019   4.591  0.00  0.00    +0.044 C 
ATOM     17  C   UNL     1      12.776   3.189   7.440  0.00  0.00    +0.044 C 
ATOM     18  C   UNL     1       7.944   3.679   8.641  0.00  0.00    +0.044 C 
ENDBRANCH   6  10
BRANCH   1  19
ATOM     19  C   UNL     1       2.692   2.146   2.339  0.00  0.00    +0.019 C 
BRANCH  19  24
ATOM     20  C   UNL     1      -0.996   1.796   1.664  0.00  0.00    +0.081 C 
ATOM     21  C   UNL     1      -1.136   0.290   1.903  0.00  0.00    +0.011 C 
ATOM     22  C   UNL     1      -0.227  -0.121   3.065  0.00  0.00    -0.018 C 
ATOM     23  C   UNL     1       1.217   0.267   2.738  0.00  0.00    -0.078 C 
ATOM     24  N   UNL     1       1.298   1.717   2.519  0.00  0.00    +0.386 N 
ATOM     25  C   UNL     1       0.470   2.128   1.378  0.00  0.00    -0.064 C 
ATOM     26  H   UNL     1       0.902   2.215   3.417  0.00  0.00    -0.081 HD
BRANCH  20  27
ATOM     27  C   UNL     1      -1.843   2.198   0.484  0.00  0.00    +0.308 C 
ATOM     28  O   UNL     1      -1.327   2.703  -0.485  0.00  0.00    -0.251 OA
BRANCH  27  29
ATOM     29  O   UNL     1      -3.169   1.996   0.509  0.00  0.00    -0.465 OA
BRANCH  29  31
ATOM     30  C   UNL     1      -5.405   2.100  -0.450  0.00  0.00    +0.048 C 
ATOM     31  C   UNL     1      -3.922   2.408  -0.662  0.00  0.00    +0.229 C 
ENDBRANCH  29  31
ENDBRANCH  27  29
ENDBRANCH  20  27
ENDBRANCH  19  24
ENDBRANCH   1  19
TORSDOF 6
