REMARK  Name = ZINC02788611
REMARK  16 active torsions:
REMARK  status: ('A' for Active; 'I' for Inactive)
REMARK    1  A    between atoms: C_1  and  C_2
REMARK    2  A    between atoms: C_2  and  C_3
REMARK    3  A    between atoms: C_3  and  O_4
REMARK    4  A    between atoms: O_4  and  C_5
REMARK    5  A    between atoms: C_5  and  C_7
REMARK    6  A    between atoms: C_8  and  C_40
REMARK    7  A    between atoms: C_12  and  C_14
REMARK    8  A    between atoms: C_17  and  O_24
REMARK    9  A    between atoms: C_18  and  O_22
REMARK   10  A    between atoms: C_19  and  O_20
REMARK   11  A    between atoms: O_20  and  C_21
REMARK   12  A    between atoms: O_22  and  C_23
REMARK   13  A    between atoms: O_24  and  C_25
REMARK   14  A    between atoms: C_29  and  C_32
REMARK   15  A    between atoms: C_37  and  O_38
REMARK   16  A    between atoms: O_38  and  C_39
REMARK                            x       y       z     vdW  Elec       q    Type
REMARK                         _______ _______ _______ _____ _____    ______ ____
ROOT
ATOM      1  C   UNL     1       1.682   4.033   1.048  0.00  0.00    +0.065 C 
ATOM      2  C   UNL     1       2.786   4.749   0.775  0.00  0.00    +0.016 C 
ATOM      3  N   UNL     1       3.237   4.863  -0.510  0.00  0.00    -0.321 N 
ATOM      4  C   UNL     1       2.405   4.609  -1.568  0.00  0.00    +0.016 C 
ATOM      5  C   UNL     1       1.278   3.889  -1.395  0.00  0.00    +0.024 C 
ATOM      6  C   UNL     1       0.918   3.334  -0.039  0.00  0.00    +0.096 C 
ATOM      7  C   UNL     1       0.407   3.634  -2.469  0.00  0.00    +0.162 C 
ATOM      8  O   UNL     1      -0.597   2.976  -2.280  0.00  0.00    -0.292 OA
ATOM      9  C   UNL     1       0.694   4.163  -3.847  0.00  0.00    +0.088 C 
ATOM     10  C   UNL     1       1.512   5.453  -3.726  0.00  0.00    +0.035 C 
ATOM     11  C   UNL     1       2.781   5.150  -2.925  0.00  0.00    +0.060 C 
ATOM     12  C   UNL     1       3.531   5.431   1.893  0.00  0.00    +0.061 C 
ATOM     13  H   UNL     1       4.279   5.162  -0.703  0.00  0.00    +0.152 HD
ENDROOT
BRANCH   6  14
ATOM     14  C   UNL     1       1.243   1.863  -0.004  0.00  0.00    +0.010 A 
ATOM     15  C   UNL     1       2.555   1.442  -0.117  0.00  0.00    +0.012 A 
ATOM     16  C   UNL     1       2.857   0.094  -0.086  0.00  0.00    +0.050 A 
ATOM     17  C   UNL     1       1.845  -0.843   0.058  0.00  0.00    +0.165 A 
ATOM     18  C   UNL     1       0.524  -0.424   0.172  0.00  0.00    +0.204 A 
ATOM     19  C   UNL     1       0.225   0.933   0.141  0.00  0.00    +0.169 A 
BRANCH  19  20
ATOM     20  O   UNL     1      -1.067   1.348   0.246  0.00  0.00    -0.491 OA
ATOM     21  C   UNL     1      -1.597   1.488   1.565  0.00  0.00    +0.277 C 
ENDBRANCH  19  20
BRANCH  18  22
ATOM     22  O   UNL     1      -0.472  -1.340   0.314  0.00  0.00    -0.488 OA
ATOM     23  C   UNL     1      -1.075  -1.834  -0.883  0.00  0.00    +0.277 C 
ENDBRANCH  18  22
BRANCH  17  24
ATOM     24  O   UNL     1       2.143  -2.169   0.088  0.00  0.00    -0.491 OA
ATOM     25  C   UNL     1       3.521  -2.527  -0.035  0.00  0.00    +0.277 C 
ENDBRANCH  17  24
ENDBRANCH   6  14
BRANCH  10  26
ATOM     26  C   UNL     1       1.882   5.949  -5.100  0.00  0.00    -0.002 A 
ATOM     27  C   UNL     1       2.639   5.155  -5.941  0.00  0.00    +0.007 A 
ATOM     28  C   UNL     1       2.978   5.609  -7.202  0.00  0.00    +0.001 A 
ATOM     29  C   UNL     1       2.561   6.858  -7.625  0.00  0.00    +0.004 A 
ATOM     30  C   UNL     1       1.805   7.655  -6.788  0.00  0.00    +0.046 A 
ATOM     31  C   UNL     1       1.459   7.200  -5.524  0.00  0.00    +0.124 A 
BRANCH  31  32
ATOM     32  O   UNL     1       0.710   7.981  -4.701  0.00  0.00    -0.495 OA
ATOM     33  C   UNL     1       0.310   9.257  -5.204  0.00  0.00    +0.277 C 
ENDBRANCH  31  32
ENDBRANCH  10  26
BRANCH   1  34
ATOM     34  C   UNL     1       1.232   3.935   2.385  0.00  0.00    +0.338 C 
ATOM     35  O   UNL     1       0.311   4.631   2.769  0.00  0.00    -0.245 OA
BRANCH  34  36
ATOM     36  O   UNL     1       1.824   3.070   3.235  0.00  0.00    -0.461 OA
BRANCH  36  37
ATOM     37  C   UNL     1       1.381   3.089   4.593  0.00  0.00    +0.232 C 
BRANCH  37  39
ATOM     38  C   UNL     1       1.692   2.062   6.850  0.00  0.00    +0.007 C 
ATOM     39  C   UNL     1       2.241   2.134   5.424  0.00  0.00    +0.038 C 
ENDBRANCH  37  39
ENDBRANCH  36  37
ENDBRANCH  34  36
ENDBRANCH   1  34
TORSDOF 10
