REMARK  Name = ZINC16647850
REMARK  12 active torsions:
REMARK  status: ('A' for Active; 'I' for Inactive)
REMARK    1  A    between atoms: C_1  and  C_2
REMARK    2  A    between atoms: C_2  and  C_3
REMARK    3  A    between atoms: C_2  and  C_4
REMARK    4  A    between atoms: C_4  and  N_5
REMARK    5  A    between atoms: N_5  and  C_6
REMARK    6  A    between atoms: C_6  and  C_7
REMARK    7  A    between atoms: N_9  and  C_10
REMARK    8  A    between atoms: N_9  and  C_22
REMARK    9  A    between atoms: C_10  and  C_11
REMARK   10  A    between atoms: C_11  and  C_12
REMARK   11  A    between atoms: C_22  and  C_23
REMARK   12  A    between atoms: C_29  and  C_31
REMARK                            x       y       z     vdW  Elec       q    Type
REMARK                         _______ _______ _______ _____ _____    ______ ____
ROOT
ATOM      1  C   UNL     1       6.766  -1.268   4.667  0.00  0.00    +0.233 C 
ATOM      2  O   UNL     1       5.708  -1.102   5.236  0.00  0.00    -0.274 OA
ATOM      3  N   UNL     1       7.916  -0.886   5.256  0.00  0.00    -0.296 N 
ENDROOT
BRANCH   1   4
ATOM      4  C   UNL     1       6.794  -1.902   3.300  0.00  0.00    +0.204 C 
BRANCH   4   5
ATOM      5  N   UNL     1       5.422  -2.128   2.838  0.00  0.00    -0.288 N 
ATOM      6  C   UNL     1       4.782  -1.174   2.134  0.00  0.00    +0.247 C 
ATOM      7  O   UNL     1       5.381  -0.178   1.777  0.00  0.00    -0.270 OA
BRANCH   6   8
ATOM      8  C   UNL     1       3.354  -1.337   1.797  0.00  0.00    +0.041 A 
ATOM      9  C   UNL     1       2.885  -2.561   1.313  0.00  0.00    +0.017 A 
ATOM     10  C   UNL     1       1.552  -2.712   1.000  0.00  0.00    +0.050 A 
ATOM     11  C   UNL     1       0.671  -1.651   1.163  0.00  0.00    +0.166 A 
ATOM     12  C   UNL     1       1.133  -0.426   1.647  0.00  0.00    +0.167 A 
ATOM     13  C   UNL     1       2.469  -0.269   1.962  0.00  0.00    +0.062 A 
ATOM     14  O   UNL     1       0.081   0.441   1.715  0.00  0.00    -0.453 OA
ATOM     15  C   UNL     1      -1.099  -0.383   1.658  0.00  0.00    +0.466 C 
ATOM     16  O   UNL     1      -0.669  -1.548   0.930  0.00  0.00    -0.453 OA
ENDBRANCH   6   8
BRANCH   5  17
ATOM     17  C   UNL     1       4.746  -3.392   3.141  0.00  0.00    +0.111 C 
BRANCH  17  19
ATOM     18  C   UNL     1       6.646  -4.785   2.310  0.00  0.00    +0.009 C 
ATOM     19  C   UNL     1       5.165  -4.452   2.121  0.00  0.00    +0.000 C 
ATOM     20  C   UNL     1       4.328  -5.717   2.327  0.00  0.00    +0.009 C 
ENDBRANCH  17  19
ENDBRANCH   5  17
ENDBRANCH   4   5
ENDBRANCH   1   4
BRANCH   3  21
ATOM     21  C   UNL     1       7.901  -0.374   6.629  0.00  0.00    +0.113 C 
BRANCH  21  22
ATOM     22  C   UNL     1       8.084  -1.536   7.608  0.00  0.00    +0.056 C 
BRANCH  22  23
ATOM     23  C   UNL     1       8.069  -1.010   9.020  0.00  0.00    -0.021 A 
ATOM     24  C   UNL     1       9.139  -0.689   9.764  0.00  0.00    +0.087 A 
ATOM     25  N   UNL     1       8.735  -0.244  10.994  0.00  0.00    -0.360 N 
ATOM     26  H   UNL     1       9.329   0.048  11.703  0.00  0.00    +0.165 HD
ATOM     27  C   UNL     1       7.361  -0.278  11.076  0.00  0.00    +0.047 A 
ATOM     28  C   UNL     1       6.883  -0.759   9.843  0.00  0.00    +0.003 A 
ATOM     29  C   UNL     1       5.510  -0.899   9.635  0.00  0.00    +0.010 A 
ATOM     30  C   UNL     1       4.636  -0.569  10.632  0.00  0.00    +0.001 A 
ATOM     31  C   UNL     1       5.102  -0.094  11.850  0.00  0.00    +0.002 A 
ATOM     32  C   UNL     1       6.454   0.053  12.076  0.00  0.00    +0.026 A 
ENDBRANCH  22  23
ENDBRANCH  21  22
ENDBRANCH   3  21
BRANCH   3  33
ATOM     33  C   UNL     1       9.181  -0.981   4.524  0.00  0.00    +0.143 C 
BRANCH  33  34
ATOM     34  C   UNL     1       9.508   0.356   3.910  0.00  0.00    -0.030 A 
ATOM     35  C   UNL     1       9.015   0.681   2.660  0.00  0.00    +0.005 A 
ATOM     36  C   UNL     1       9.311   1.909   2.098  0.00  0.00    +0.000 A 
ATOM     37  C   UNL     1      10.108   2.808   2.783  0.00  0.00    +0.000 A 
ATOM     38  C   UNL     1      10.605   2.480   4.030  0.00  0.00    +0.000 A 
ATOM     39  C   UNL     1      10.305   1.254   4.594  0.00  0.00    +0.005 A 
ENDBRANCH  33  34
ENDBRANCH   3  33
TORSDOF 10
