REMARK  Name = ZINC09293353
REMARK  7 active torsions:
REMARK  status: ('A' for Active; 'I' for Inactive)
REMARK    1  A    between atoms: C_1  and  C_2
REMARK    2  A    between atoms: C_2  and  O_3
REMARK    3  A    between atoms: O_3  and  C_4
REMARK    4  A    between atoms: C_7  and  C_12
REMARK    5  A    between atoms: C_9  and  O_10
REMARK    6  A    between atoms: O_10  and  C_11
REMARK    7  A    between atoms: C_30  and  C_32
REMARK                            x       y       z     vdW  Elec       q    Type
REMARK                         _______ _______ _______ _____ _____    ______ ____
ROOT
ATOM      1  C   UNL     1       0.606  -5.886   1.534  0.00  0.00    +0.234 C 
ATOM      2  C   UNL     1       1.820  -6.657   1.106  0.00  0.00    +0.027 C 
ATOM      3  C   UNL     1       1.896  -7.189  -0.131  0.00  0.00    +0.083 C 
ATOM      4  C   UNL     1       0.735  -6.989  -1.034  0.00  0.00    +0.044 A 
ATOM      5  C   UNL     1       0.835  -7.202  -2.402  0.00  0.00    +0.033 A 
ATOM      6  C   UNL     1      -0.272  -7.002  -3.207  0.00  0.00    +0.042 A 
ATOM      7  C   UNL     1      -1.473  -6.592  -2.651  0.00  0.00    +0.023 A 
ATOM      8  C   UNL     1      -1.579  -6.378  -1.289  0.00  0.00    +0.048 A 
ATOM      9  C   UNL     1      -0.480  -6.575  -0.472  0.00  0.00    +0.131 A 
ATOM     10  O   UNL     1      -0.556  -6.380   0.865  0.00  0.00    -0.479 OA
ATOM     11 CL   UNL     1      -0.157  -7.267  -4.919  0.00  0.00    -0.084 Cl
ATOM     12  N   UNL     1       2.987  -7.883  -0.539  0.00  0.00    -0.213 NA
ATOM     13  C   UNL     1       4.043  -8.107   0.208  0.00  0.00    +0.237 C 
ATOM     14  N   UNL     1       5.196  -8.770  -0.035  0.00  0.00    -0.205 NA
ATOM     15  C   UNL     1       5.968  -8.737   1.016  0.00  0.00    +0.203 C 
ATOM     16  N   UNL     1       5.352  -8.042   2.012  0.00  0.00    -0.251 N 
ATOM     17  N   UNL     1       4.118  -7.633   1.502  0.00  0.00    -0.208 N 
ATOM     18  C   UNL     1       2.991  -6.862   2.042  0.00  0.00    +0.160 C 
ATOM     19  H   UNL     1       5.701  -7.867   2.899  0.00  0.00    +0.171 HD
ENDROOT
BRANCH   1  23
ATOM     20  C   UNL     1       1.144  -1.753   0.574  0.00  0.00    +0.162 A 
ATOM     21  C   UNL     1       1.204  -2.175   1.893  0.00  0.00    +0.050 A 
ATOM     22  C   UNL     1       1.029  -3.511   2.200  0.00  0.00    +0.011 A 
ATOM     23  C   UNL     1       0.795  -4.430   1.194  0.00  0.00    +0.001 A 
ATOM     24  C   UNL     1       0.735  -4.016  -0.124  0.00  0.00    +0.057 A 
ATOM     25  C   UNL     1       0.902  -2.677  -0.438  0.00  0.00    +0.162 A 
BRANCH  25  26
ATOM     26  O   UNL     1       0.837  -2.267  -1.733  0.00  0.00    -0.491 OA
ATOM     27  C   UNL     1       0.478  -3.250  -2.707  0.00  0.00    +0.277 C 
ENDBRANCH  25  26
BRANCH  20  28
ATOM     28  O   UNL     1       1.315  -0.439   0.270  0.00  0.00    -0.489 OA
BRANCH  28  30
ATOM     29  C   UNL     1       1.724   1.877   0.827  0.00  0.00    +0.048 C 
ATOM     30  C   UNL     1       1.559   0.453   1.360  0.00  0.00    +0.226 C 
ENDBRANCH  28  30
ENDBRANCH  20  28
ENDBRANCH   1  23
BRANCH  18  31
ATOM     31  C   UNL     1       3.503  -5.508   2.458  0.00  0.00    -0.003 A 
ATOM     32  C   UNL     1       3.284  -5.038   3.744  0.00  0.00    +0.009 A 
ATOM     33  C   UNL     1       3.774  -3.786   4.082  0.00  0.00    +0.020 A 
ATOM     34  C   UNL     1       4.460  -3.053   3.133  0.00  0.00    +0.111 A 
ATOM     35  N   UNL     1       4.650  -3.530   1.919  0.00  0.00    -0.263 NA
ATOM     36  C   UNL     1       4.203  -4.720   1.564  0.00  0.00    +0.116 A 
ENDBRANCH  18  31
TORSDOF 5
