REMARK  Name = ZINC03355849
REMARK  7 active torsions:
REMARK  status: ('A' for Active; 'I' for Inactive)
REMARK    1  A    between atoms: C_3  and  C_25
REMARK    2  A    between atoms: C_5  and  C_11
REMARK    3  A    between atoms: C_15  and  O_17
REMARK    4  A    between atoms: O_17  and  C_18
REMARK    5  A    between atoms: C_18  and  C_19
REMARK    6  A    between atoms: N_27  and  C_28
REMARK    7  A    between atoms: C_32  and  N_34
REMARK                            x       y       z     vdW  Elec       q    Type
REMARK                         _______ _______ _______ _____ _____    ______ ____
ROOT
ATOM      1  C   UNL     1       0.006   1.306   0.015  0.00  0.00    +0.029 C 
ATOM      2  C   UNL     1       0.015  -0.013   0.007  0.00  0.00    +0.019 C 
ATOM      3  C   UNL     1      -1.273  -0.812   0.004  0.00  0.00    +0.143 C 
ATOM      4  C   UNL     1      -1.156  -1.875  -1.096  0.00  0.00    +0.122 C 
ATOM      5  N   UNL     1       0.115  -2.584  -0.954  0.00  0.00    -0.291 N 
ATOM      6  C   UNL     1       1.216  -1.997  -0.466  0.00  0.00    +0.304 C 
ATOM      7  O   UNL     1       2.255  -2.628  -0.443  0.00  0.00    -0.253 OA
ATOM      8  N   UNL     1       1.213  -0.735  -0.005  0.00  0.00    -0.273 N 
ATOM      9  H   UNL     1       0.163  -3.515  -1.224  0.00  0.00    +0.151 HD
ATOM     10  H   UNL     1       2.034  -0.331   0.318  0.00  0.00    +0.156 HD
ENDROOT
BRANCH   4  11
ATOM     11  C   UNL     1      -1.212  -1.209  -2.446  0.00  0.00    -0.023 A 
ATOM     12  C   UNL     1      -0.082  -0.604  -2.965  0.00  0.00    +0.006 A 
ATOM     13  C   UNL     1      -0.130   0.008  -4.204  0.00  0.00    +0.004 A 
ATOM     14  C   UNL     1      -1.308   0.017  -4.926  0.00  0.00    +0.045 A 
ATOM     15  C   UNL     1      -2.442  -0.589  -4.408  0.00  0.00    +0.121 A 
ATOM     16  C   UNL     1      -2.390  -1.208  -3.167  0.00  0.00    +0.051 A 
BRANCH  15  17
ATOM     17  O   UNL     1      -3.602  -0.581  -5.116  0.00  0.00    -0.487 OA
BRANCH  17  18
ATOM     18  C   UNL     1      -3.581   0.069  -6.388  0.00  0.00    +0.264 C 
BRANCH  18  19
ATOM     19  C   UNL     1      -4.945  -0.023  -7.022  0.00  0.00    -0.010 A 
ATOM     20  C   UNL     1      -5.260  -1.099  -7.830  0.00  0.00    +0.007 A 
ATOM     21  C   UNL     1      -6.512  -1.184  -8.412  0.00  0.00    +0.000 A 
ATOM     22  C   UNL     1      -7.448  -0.192  -8.185  0.00  0.00    +0.000 A 
ATOM     23  C   UNL     1      -7.133   0.884  -7.376  0.00  0.00    +0.000 A 
ATOM     24  C   UNL     1      -5.883   0.966  -6.791  0.00  0.00    +0.007 A 
ENDBRANCH  18  19
ENDBRANCH  17  18
ENDBRANCH  15  17
ENDBRANCH   4  11
BRANCH   3  25
ATOM     25  C   UNL     1      -1.465  -1.478   1.343  0.00  0.00    +0.228 C 
ATOM     26  O   UNL     1      -1.539  -2.687   1.414  0.00  0.00    -0.275 OA
ATOM     27  N   UNL     1      -1.555  -0.731   2.461  0.00  0.00    -0.285 N 
ATOM     28  H   UNL     1      -1.429   0.230   2.413  0.00  0.00    +0.155 HD
BRANCH  27  29
ATOM     29  C   UNL     1      -1.829  -1.340   3.690  0.00  0.00    +0.036 A 
ATOM     30  C   UNL     1      -2.611  -0.685   4.632  0.00  0.00    +0.023 A 
ATOM     31  C   UNL     1      -2.881  -1.290   5.844  0.00  0.00    +0.004 A 
ATOM     32  C   UNL     1      -2.372  -2.546   6.120  0.00  0.00    +0.033 A 
ATOM     33  C   UNL     1      -1.592  -3.200   5.184  0.00  0.00    +0.128 A 
ATOM     34  C   UNL     1      -1.325  -2.604   3.968  0.00  0.00    +0.056 A 
BRANCH  33  35
ATOM     35  N   UNL     1      -1.049  -4.544   5.484  0.00  0.00    +0.056 N 
ATOM     36  O   UNL     1      -1.287  -5.069   6.547  0.00  0.00    -0.126 OA
ATOM     37  O   UNL     1      -0.367  -5.117   4.667  0.00  0.00    -0.126 OA
ENDBRANCH  33  35
ENDBRANCH  27  29
ENDBRANCH   3  25
TORSDOF 7
