REMARK  Name = ZINC31468877
REMARK  8 active torsions:
REMARK  status: ('A' for Active; 'I' for Inactive)
REMARK    1  A    between atoms: C_1  and  C_2
REMARK    2  A    between atoms: C_8  and  N_10
REMARK    3  A    between atoms: N_10  and  C_11
REMARK    4  A    between atoms: N_10  and  C_19
REMARK    5  A    between atoms: C_11  and  C_12
REMARK    6  A    between atoms: N_17  and  C_18
REMARK    7  A    between atoms: C_19  and  C_20
REMARK    8  A    between atoms: N_25  and  C_26
REMARK                            x       y       z     vdW  Elec       q    Type
REMARK                         _______ _______ _______ _____ _____    ______ ____
ROOT
ATOM      1  N   UNL     1      -2.317   6.634   3.928  0.00  0.00    +0.393 N 
ATOM      2  H   UNL     1      -2.694   7.160   3.038  0.00  0.00    -0.080 HD
ENDROOT
BRANCH   1   9
ATOM      3  C   UNL     1      -0.888   8.105   1.879  0.00  0.00    +0.006 C 
ATOM      4  C   UNL     1      -0.192   7.106   2.806  0.00  0.00    -0.028 C 
ATOM      5  C   UNL     1       1.256   7.546   3.035  0.00  0.00    +0.002 C 
ATOM      6  C   UNL     1       1.952   6.548   3.962  0.00  0.00    +0.000 C 
ATOM      7  C   UNL     1       1.216   6.498   5.302  0.00  0.00    -0.002 C 
ATOM      8  C   UNL     1      -0.231   6.058   5.074  0.00  0.00    -0.015 C 
ATOM      9  C   UNL     1      -0.927   7.057   4.147  0.00  0.00    -0.064 C 
ENDBRANCH   1   9
BRANCH   1  10
ATOM     10  C   UNL     1      -2.394   5.191   3.666  0.00  0.00    +0.020 C 
BRANCH  10  11
ATOM     11  C   UNL     1      -2.113   4.929   2.208  0.00  0.00    +0.204 C 
ATOM     12  O   UNL     1      -2.017   5.857   1.433  0.00  0.00    -0.277 OA
ATOM     13  N   UNL     1      -1.968   3.664   1.766  0.00  0.00    -0.242 N 
ATOM     14  C   UNL     1      -1.716   3.430   0.463  0.00  0.00    +0.306 C 
ATOM     15  O   UNL     1      -1.620   4.360  -0.314  0.00  0.00    -0.252 OA
ATOM     16  N   UNL     1      -1.572   2.166   0.021  0.00  0.00    -0.302 N 
ATOM     17  C   UNL     1      -1.298   1.911  -1.395  0.00  0.00    +0.129 C 
ATOM     18  H   UNL     1      -2.055   2.823   2.469  0.00  0.00    +0.159 HD
ATOM     19  H   UNL     1      -1.659   1.324   0.724  0.00  0.00    +0.150 HD
ENDBRANCH  10  11
ENDBRANCH   1  10
BRANCH   1  20
ATOM     20  C   UNL     1      -3.167   7.008   5.066  0.00  0.00    +0.020 C 
BRANCH  20  21
ATOM     21  C   UNL     1      -3.389   8.499   5.059  0.00  0.00    +0.204 C 
ATOM     22  O   UNL     1      -2.977   9.169   4.136  0.00  0.00    -0.277 OA
ATOM     23  N   UNL     1      -4.046   9.087   6.078  0.00  0.00    -0.242 N 
ATOM     24  C   UNL     1      -4.244  10.421   6.072  0.00  0.00    +0.306 C 
ATOM     25  O   UNL     1      -3.831  11.092   5.147  0.00  0.00    -0.252 OA
ATOM     26  N   UNL     1      -4.901  11.009   7.091  0.00  0.00    -0.302 N 
ATOM     27  C   UNL     1      -5.116  12.458   7.084  0.00  0.00    +0.129 C 
ATOM     28  H   UNL     1      -4.419   8.480   6.915  0.00  0.00    +0.159 HD
ATOM     29  H   UNL     1      -5.275  10.401   7.928  0.00  0.00    +0.150 HD
ENDBRANCH  20  21
ENDBRANCH   1  20
TORSDOF 5
