REMARK  Name = ZINC02312716
REMARK  10 active torsions:
REMARK  status: ('A' for Active; 'I' for Inactive)
REMARK    1  A    between atoms: C_1  and  C_2
REMARK    2  A    between atoms: C_6  and  N_8
REMARK    3  A    between atoms: C_17  and  S_18
REMARK    4  A    between atoms: S_18  and  C_19
REMARK    5  A    between atoms: C_19  and  C_21
REMARK    6  A    between atoms: C_19  and  C_22
REMARK    7  A    between atoms: N_24  and  C_25
REMARK    8  A    between atoms: C_33  and  C_36
REMARK    9  A    between atoms: C_36  and  C_37
REMARK   10  A    between atoms: C_36  and  C_38
REMARK                            x       y       z     vdW  Elec       q    Type
REMARK                         _______ _______ _______ _____ _____    ______ ____
ROOT
ATOM      1  N   UNL     1       9.861  -0.285  -1.673  0.00  0.00    -0.255 N 
ATOM      2  C   UNL     1      10.461  -1.239  -2.407  0.00  0.00    +0.268 A 
ATOM      3  O   UNL     1      11.113  -0.941  -3.393  0.00  0.00    -0.267 OA
ATOM      4  C   UNL     1      10.325  -2.608  -2.015  0.00  0.00    +0.076 A 
ATOM      5  C   UNL     1      10.885  -3.796  -2.655  0.00  0.00    -0.018 A 
ATOM      6  C   UNL     1      10.609  -4.990  -2.086  0.00  0.00    +0.021 A 
ATOM      7  S   UNL     1       9.601  -4.607  -0.682  0.00  0.00    -0.071 S 
ATOM      8  C   UNL     1       9.552  -2.841  -0.863  0.00  0.00    +0.117 A 
ATOM      9  N   UNL     1       8.988  -1.853  -0.179  0.00  0.00    -0.215 NA
ATOM     10  C   UNL     1       9.126  -0.601  -0.565  0.00  0.00    +0.178 A 
ATOM     11  C   UNL     1      11.073  -6.329  -2.568  0.00  0.00    +0.203 C 
ATOM     12  O   UNL     1      11.587  -6.166  -3.900  0.00  0.00    -0.371 OA
ATOM     13  C   UNL     1      12.500  -5.073  -4.028  0.00  0.00    +0.126 C 
ATOM     14  C   UNL     1      11.750  -3.743  -3.912  0.00  0.00    +0.068 C 
ENDROOT
BRANCH   1  20
ATOM     15  C   UNL     1       8.253   3.546  -4.304  0.00  0.00    +0.044 C 
ATOM     16  C   UNL     1       9.225   2.940  -3.326  0.00  0.00    -0.048 A 
ATOM     17  C   UNL     1      10.248   3.709  -2.802  0.00  0.00    +0.003 A 
ATOM     18  C   UNL     1      11.142   3.156  -1.903  0.00  0.00    +0.002 A 
ATOM     19  C   UNL     1      11.016   1.833  -1.528  0.00  0.00    +0.026 A 
ATOM     20  C   UNL     1       9.991   1.058  -2.052  0.00  0.00    +0.052 A 
ATOM     21  C   UNL     1       9.097   1.615  -2.958  0.00  0.00    +0.029 A 
ENDBRANCH   1  20
BRANCH  13  22
ATOM     22  C   UNL     1      13.192  -5.148  -5.391  0.00  0.00    +0.012 C 
ATOM     23  C   UNL     1      13.956  -6.469  -5.503  0.00  0.00    +0.010 C 
ATOM     24  C   UNL     1      12.142  -5.070  -6.501  0.00  0.00    +0.010 C 
ENDBRANCH  13  22
BRANCH  10  25
ATOM     25  S   UNL     1       8.357   0.684   0.365  0.00  0.00    -0.075 S 
BRANCH  25  26
ATOM     26  C   UNL     1       7.559  -0.298   1.659  0.00  0.00    +0.137 C 
ATOM     27  C   UNL     1       8.629  -0.979   2.514  0.00  0.00    +0.029 C 
BRANCH  26  28
ATOM     28  C   UNL     1       6.720   0.603   2.527  0.00  0.00    +0.230 C 
ATOM     29  O   UNL     1       6.931   1.798   2.545  0.00  0.00    -0.274 OA
ATOM     30  N   UNL     1       5.734   0.082   3.284  0.00  0.00    -0.285 N 
ATOM     31  H   UNL     1       5.612  -0.879   3.327  0.00  0.00    +0.155 HD
BRANCH  30  32
ATOM     32  C   UNL     1       4.886   0.928   4.008  0.00  0.00    +0.033 A 
ATOM     33  C   UNL     1       4.545   2.174   3.498  0.00  0.00    +0.023 A 
ATOM     34  C   UNL     1       3.707   3.006   4.215  0.00  0.00    +0.002 A 
ATOM     35  C   UNL     1       3.209   2.600   5.439  0.00  0.00    +0.000 A 
ATOM     36  C   UNL     1       3.548   1.360   5.950  0.00  0.00    +0.002 A 
ATOM     37  C   UNL     1       4.384   0.523   5.238  0.00  0.00    +0.023 A 
ENDBRANCH  30  32
ENDBRANCH  26  28
ENDBRANCH  25  26
ENDBRANCH  10  25
TORSDOF 6
