REMARK  Name = ZINC00707481
REMARK  12 active torsions:
REMARK  status: ('A' for Active; 'I' for Inactive)
REMARK    1  A    between atoms: C_1  and  C_2
REMARK    2  A    between atoms: C_2  and  O_3
REMARK    3  A    between atoms: O_3  and  C_4
REMARK    4  A    between atoms: C_4  and  C_6
REMARK    5  A    between atoms: C_7  and  C_36
REMARK    6  A    between atoms: C_14  and  C_15
REMARK    7  A    between atoms: C_20  and  O_21
REMARK    8  A    between atoms: C_24  and  C_26
REMARK    9  A    between atoms: C_29  and  O_34
REMARK   10  A    between atoms: C_30  and  O_32
REMARK   11  A    between atoms: O_32  and  C_33
REMARK   12  A    between atoms: O_34  and  C_35
REMARK                            x       y       z     vdW  Elec       q    Type
REMARK                         _______ _______ _______ _____ _____    ______ ____
ROOT
ATOM      1  C   UNL     1      -3.119   4.546   1.256  0.00  0.00    +0.085 C 
ATOM      2  C   UNL     1      -4.322   4.037   1.657  0.00  0.00    +0.053 C 
ATOM      3  N   UNL     1      -5.066   3.324   0.821  0.00  0.00    -0.228 NA
ATOM      4  C   UNL     1      -4.741   3.047  -0.417  0.00  0.00    +0.178 A 
ATOM      5  N   UNL     1      -3.575   3.462  -1.019  0.00  0.00    -0.275 N 
ATOM      6  C   UNL     1      -3.352   3.116  -2.293  0.00  0.00    +0.268 A 
ATOM      7  O   UNL     1      -2.335   3.460  -2.867  0.00  0.00    -0.266 OA
ATOM      8  C   UNL     1      -4.371   2.309  -2.977  0.00  0.00    +0.081 A 
ATOM      9  C   UNL     1      -4.385   1.835  -4.250  0.00  0.00    +0.032 C 
ATOM     10  S   UNL     1      -5.587   2.121  -1.683  0.00  0.00    -0.046 S 
ATOM     11  C   UNL     1      -2.667   4.273  -0.160  0.00  0.00    +0.162 C 
ATOM     12  C   UNL     1      -4.809   4.288   3.062  0.00  0.00    +0.066 C 
ENDROOT
BRANCH   9  13
ATOM     13  C   UNL     1      -5.591   1.187  -4.779  0.00  0.00    +0.019 A 
ATOM     14  C   UNL     1      -6.829   1.385  -4.154  0.00  0.00    +0.031 A 
ATOM     15  C   UNL     1      -7.958   0.776  -4.659  0.00  0.00    +0.042 A 
ATOM     16  C   UNL     1      -7.872  -0.039  -5.778  0.00  0.00    +0.023 A 
ATOM     17  C   UNL     1      -6.657  -0.246  -6.401  0.00  0.00    +0.047 A 
ATOM     18  C   UNL     1      -5.511   0.360  -5.912  0.00  0.00    +0.124 A 
ATOM     19 CL   UNL     1      -9.492   1.026  -3.887  0.00  0.00    -0.084 Cl
BRANCH  18  20
ATOM     20  O   UNL     1      -4.317   0.156  -6.524  0.00  0.00    -0.506 OA
ATOM     21  H   UNL     1      -3.824  -0.602  -6.181  0.00  0.00    +0.292 HD
ENDBRANCH  18  20
ENDBRANCH   9  13
BRANCH  11  22
ATOM     22  C   UNL     1      -1.338   3.566  -0.094  0.00  0.00    -0.016 A 
ATOM     23  C   UNL     1      -0.173   4.260  -0.364  0.00  0.00    +0.010 A 
ATOM     24  C   UNL     1       1.048   3.615  -0.311  0.00  0.00    +0.050 A 
ATOM     25  C   UNL     1       1.108   2.272   0.025  0.00  0.00    +0.162 A 
ATOM     26  C   UNL     1      -0.064   1.574   0.302  0.00  0.00    +0.162 A 
ATOM     27  C   UNL     1      -1.285   2.226   0.242  0.00  0.00    +0.055 A 
BRANCH  26  28
ATOM     28  O   UNL     1      -0.011   0.256   0.632  0.00  0.00    -0.491 OA
ATOM     29  C   UNL     1      -1.238  -0.366   1.018  0.00  0.00    +0.277 C 
ENDBRANCH  26  28
BRANCH  25  30
ATOM     30  O   UNL     1       2.309   1.637   0.083  0.00  0.00    -0.491 OA
ATOM     31  C   UNL     1       3.470   2.415  -0.214  0.00  0.00    +0.277 C 
ENDBRANCH  25  30
ENDBRANCH  11  22
BRANCH   1  32
ATOM     32  C   UNL     1      -2.325   5.300   2.135  0.00  0.00    +0.339 C 
ATOM     33  O   UNL     1      -2.674   5.453   3.292  0.00  0.00    -0.245 OA
BRANCH  32  34
ATOM     34  O   UNL     1      -1.175   5.857   1.698  0.00  0.00    -0.462 OA
BRANCH  34  36
ATOM     35  C   UNL     1       0.823   7.188   1.974  0.00  0.00    +0.048 C 
ATOM     36  C   UNL     1      -0.364   6.519   2.670  0.00  0.00    +0.229 C 
ENDBRANCH  34  36
ENDBRANCH  32  34
ENDBRANCH   1  32
TORSDOF 8
