REMARK  Name = ZINC58819131
REMARK  5 active torsions:
REMARK  status: ('A' for Active; 'I' for Inactive)
REMARK    1  A    between atoms: C_3  and  N_13
REMARK    2  A    between atoms: C_6  and  C_7
REMARK    3  A    between atoms: C_7  and  N_8
REMARK    4  A    between atoms: C_14  and  C_16
REMARK    5  A    between atoms: C_18  and  N_23
REMARK                            x       y       z     vdW  Elec       q    Type
REMARK                         _______ _______ _______ _____ _____    ______ ____
ROOT
ATOM      1  N   UNL     1       3.583   2.123  -0.021  0.00  0.00    -0.281 N 
ATOM      2  C   UNL     1       3.627   3.374   0.478  0.00  0.00    +0.249 C 
ATOM      3  O   UNL     1       2.647   3.848   1.017  0.00  0.00    -0.270 OA
ATOM      4  H   UNL     1       4.387   1.716  -0.382  0.00  0.00    +0.155 HD
ENDROOT
BRANCH   2   5
ATOM      5  C   UNL     1       4.868   4.170   0.370  0.00  0.00    +0.052 A 
ATOM      6  C   UNL     1       5.995   3.630  -0.254  0.00  0.00    +0.046 A 
ATOM      7  C   UNL     1       7.150   4.378  -0.351  0.00  0.00    +0.127 A 
ATOM      8  C   UNL     1       7.194   5.660   0.168  0.00  0.00    +0.034 A 
ATOM      9  C   UNL     1       6.082   6.201   0.787  0.00  0.00    +0.017 A 
ATOM     10  C   UNL     1       4.917   5.466   0.886  0.00  0.00    +0.026 A 
ATOM     11  I   UNL     1       3.231   6.291   1.817  0.00  0.00    -0.043 I 
BRANCH   7  12
ATOM     12  N   UNL     1       8.345   3.807  -1.012  0.00  0.00    +0.056 N 
ATOM     13  O   UNL     1       8.308   2.687  -1.466  0.00  0.00    -0.126 OA
ATOM     14  O   UNL     1       9.358   4.461  -1.099  0.00  0.00    -0.126 OA
ENDBRANCH   7  12
ENDBRANCH   2   5
BRANCH   1  17
ATOM     15  C   UNL     1      -0.013   1.375  -0.180  0.00  0.00    +0.003 A 
ATOM     16  C   UNL     1       1.174   2.081  -0.183  0.00  0.00    +0.023 A 
ATOM     17  C   UNL     1       2.380   1.411  -0.019  0.00  0.00    +0.034 A 
ATOM     18  C   UNL     1       2.387   0.032   0.148  0.00  0.00    +0.023 A 
ATOM     19  C   UNL     1       1.196  -0.668   0.150  0.00  0.00    +0.003 A 
ATOM     20  C   UNL     1      -0.002   0.003  -0.014  0.00  0.00    -0.064 A 
BRANCH  20  21
ATOM     21  C   UNL     1      -1.299  -0.765  -0.011  0.00  0.00    -0.043 C 
BRANCH  21  22
ATOM     22  N   UNL     1      -1.626  -1.179  -1.382  0.00  0.00    +0.382 N 
ATOM     23  C   UNL     1      -0.661  -2.207  -1.850  0.00  0.00    -0.078 C 
ATOM     24  C   UNL     1      -1.428  -2.919  -2.992  0.00  0.00    -0.020 C 
ATOM     25  C   UNL     1      -2.880  -2.954  -2.464  0.00  0.00    -0.020 C 
ATOM     26  C   UNL     1      -2.954  -1.829  -1.416  0.00  0.00    -0.078 C 
ATOM     27  H   UNL     1      -1.613  -0.382  -2.000  0.00  0.00    -0.081 HD
ENDBRANCH  21  22
ENDBRANCH  20  21
ENDBRANCH   1  17
TORSDOF 5
