REMARK  Name = ZINC10049879
REMARK  11 active torsions:
REMARK  status: ('A' for Active; 'I' for Inactive)
REMARK    1  A    between atoms: C_1  and  C_2
REMARK    2  A    between atoms: C_2  and  O_3
REMARK    3  A    between atoms: O_3  and  C_4
REMARK    4  A    between atoms: C_4  and  C_6
REMARK    5  A    between atoms: C_7  and  C_28
REMARK    6  A    between atoms: C_9  and  N_11
REMARK    7  A    between atoms: C_12  and  C_14
REMARK    8  A    between atoms: C_14  and  N_52
REMARK    9  A    between atoms: C_15  and  N_52
REMARK   10  A    between atoms: C_16  and  C_17
REMARK   11  A    between atoms: C_16  and  N_52
REMARK                            x       y       z     vdW  Elec       q    Type
REMARK                         _______ _______ _______ _____ _____    ______ ____
ROOT
ATOM      1  N   UNL     1       0.958  11.296  -1.747  0.00  0.00    -0.282 N 
ATOM      2  C   UNL     1       0.757   9.964  -1.695  0.00  0.00    +0.201 C 
ATOM      3  O   UNL     1       1.284   9.239  -2.513  0.00  0.00    -0.278 OA
ATOM      4  H   UNL     1       0.536  11.876  -1.093  0.00  0.00    +0.155 HD
ENDROOT
BRANCH   1   8
ATOM      5  C   UNL     1       3.381  12.431  -4.778  0.00  0.00    +0.101 A 
ATOM      6  C   UNL     1       2.917  13.479  -3.993  0.00  0.00    -0.028 A 
ATOM      7  C   UNL     1       2.091  13.162  -2.949  0.00  0.00    +0.035 A 
ATOM      8  C   UNL     1       1.769  11.838  -2.735  0.00  0.00    +0.073 A 
ATOM      9  S   UNL     1       2.628  11.015  -3.996  0.00  0.00    -0.067 S 
ATOM     10  C   UNL     1       3.307  14.906  -4.279  0.00  0.00    +0.045 C 
BRANCH   5  11
ATOM     11  C   UNL     1       4.236  12.475  -5.907  0.00  0.00    +0.346 C 
ATOM     12  O   UNL     1       4.665  13.542  -6.303  0.00  0.00    -0.244 OA
BRANCH  11  13
ATOM     13  O   UNL     1       4.575  11.333  -6.541  0.00  0.00    -0.461 OA
BRANCH  13  15
ATOM     14  C   UNL     1       5.711  10.063  -8.255  0.00  0.00    +0.048 C 
ATOM     15  C   UNL     1       5.441  11.451  -7.671  0.00  0.00    +0.229 C 
ENDBRANCH  13  15
ENDBRANCH  11  13
ENDBRANCH   5  11
ENDBRANCH   1   8
BRANCH   2  16
ATOM     16  C   UNL     1      -0.123   9.376  -0.623  0.00  0.00    +0.019 C 
BRANCH  16  18
ATOM     17  C   UNL     1       1.132   7.307  -0.531  0.00  0.00    -0.095 C 
ATOM     18  N   UNL     1      -0.188   7.911  -0.810  0.00  0.00    +0.386 N 
ATOM     19  H   UNL     1      -0.448   7.710  -1.783  0.00  0.00    -0.081 HD
BRANCH  18  20
ATOM     20  C   UNL     1      -1.208   7.332   0.089  0.00  0.00    -0.030 C 
BRANCH  20  21
ATOM     21  C   UNL     1      -2.593   7.598  -0.505  0.00  0.00    +0.194 C 
ATOM     22  C   UNL     1      -3.672   6.998   0.407  0.00  0.00    +0.271 C 
ATOM     23  O   UNL     1      -4.951   7.253  -0.184  0.00  0.00    -0.485 OA
ATOM     24  C   UNL     1      -5.071   6.997  -1.516  0.00  0.00    +0.162 A 
ATOM     25  C   UNL     1      -6.335   6.875  -2.074  0.00  0.00    +0.049 A 
ATOM     26  C   UNL     1      -6.473   6.613  -3.424  0.00  0.00    +0.004 A 
ATOM     27  C   UNL     1      -5.352   6.482  -4.223  0.00  0.00    +0.004 A 
ATOM     28  C   UNL     1      -4.090   6.606  -3.674  0.00  0.00    +0.049 A 
ATOM     29  C   UNL     1      -3.944   6.863  -2.318  0.00  0.00    +0.162 A 
ATOM     30  O   UNL     1      -2.695   6.975  -1.790  0.00  0.00    -0.484 OA
ENDBRANCH  20  21
ENDBRANCH  18  20
ENDBRANCH  16  18
ENDBRANCH   2  16
TORSDOF 8
