REMARK  Name = ZINC02771962
REMARK  11 active torsions:
REMARK  status: ('A' for Active; 'I' for Inactive)
REMARK    1  A    between atoms: C_1  and  C_2
REMARK    2  A    between atoms: C_2  and  C_3
REMARK    3  A    between atoms: C_3  and  O_4
REMARK    4  A    between atoms: O_4  and  C_5
REMARK    5  A    between atoms: C_7  and  C_30
REMARK    6  A    between atoms: C_12  and  C_17
REMARK    7  A    between atoms: C_20  and  O_25
REMARK    8  A    between atoms: C_21  and  O_23
REMARK    9  A    between atoms: O_23  and  C_24
REMARK   10  A    between atoms: O_25  and  C_26
REMARK   11  A    between atoms: C_28  and  C_29
REMARK                            x       y       z     vdW  Elec       q    Type
REMARK                         _______ _______ _______ _____ _____    ______ ____
ROOT
ATOM      1  C   UNL     1      -2.597  -2.592   0.094  0.00  0.00    +0.338 C 
ATOM      2  C   UNL     1      -2.655  -3.970   0.047  0.00  0.00    +0.069 C 
ATOM      3  C   UNL     1      -3.984  -4.654   0.166  0.00  0.00    +0.093 C 
ATOM      4  C   UNL     1      -3.831  -6.152   0.095  0.00  0.00    +0.028 C 
ATOM      5  C   UNL     1      -2.597  -6.736  -0.067  0.00  0.00    +0.050 C 
ATOM      6  C   UNL     1      -2.464  -8.239  -0.145  0.00  0.00    +0.064 C 
ATOM      7  C   UNL     1      -3.566  -8.896   0.687  0.00  0.00    +0.032 C 
ATOM      8  C   UNL     1      -4.924  -8.434   0.148  0.00  0.00    +0.088 C 
ATOM      9  C   UNL     1      -4.986  -6.932   0.201  0.00  0.00    +0.162 C 
ATOM     10  O   UNL     1      -6.064  -6.385   0.338  0.00  0.00    -0.292 OA
ATOM     11  N   UNL     1      -1.488  -6.007  -0.160  0.00  0.00    -0.256 NA
ATOM     12  C   UNL     1      -1.485  -4.693  -0.114  0.00  0.00    +0.049 C 
ATOM     13  C   UNL     1      -0.176  -3.956  -0.233  0.00  0.00    +0.066 C 
ATOM     14  O   UNL     1      -3.735  -1.871   0.125  0.00  0.00    -0.245 OA
ENDROOT
BRANCH   3  15
ATOM     15  C   UNL     1      -4.615  -4.284   1.484  0.00  0.00    -0.034 A 
ATOM     16  C   UNL     1      -3.967  -4.584   2.668  0.00  0.00    +0.004 A 
ATOM     17  C   UNL     1      -4.545  -4.245   3.877  0.00  0.00    +0.002 A 
ATOM     18  C   UNL     1      -5.771  -3.607   3.902  0.00  0.00    +0.020 A 
ATOM     19  C   UNL     1      -6.420  -3.307   2.718  0.00  0.00    +0.041 A 
ATOM     20  C   UNL     1      -5.838  -3.641   1.508  0.00  0.00    +0.024 A 
ATOM     21 CL   UNL     1      -7.959  -2.506   2.749  0.00  0.00    -0.084 Cl
ENDBRANCH   3  15
BRANCH   7  22
ATOM     22  C   UNL     1      -3.458 -10.395   0.578  0.00  0.00    -0.040 A 
ATOM     23  C   UNL     1      -3.559 -11.006  -0.658  0.00  0.00    +0.008 A 
ATOM     24  C   UNL     1      -3.461 -12.381  -0.763  0.00  0.00    +0.049 A 
ATOM     25  C   UNL     1      -3.259 -13.150   0.372  0.00  0.00    +0.161 A 
ATOM     26  C   UNL     1      -3.156 -12.535   1.616  0.00  0.00    +0.162 A 
ATOM     27  C   UNL     1      -3.251 -11.156   1.714  0.00  0.00    +0.053 A 
BRANCH  26  28
ATOM     28  O   UNL     1      -2.958 -13.285   2.733  0.00  0.00    -0.491 OA
ATOM     29  C   UNL     1      -2.863 -12.586   3.975  0.00  0.00    +0.277 C 
ENDBRANCH  26  28
BRANCH  25  30
ATOM     30  O   UNL     1      -3.162 -14.502   0.270  0.00  0.00    -0.491 OA
ATOM     31  C   UNL     1      -3.277 -15.065  -1.038  0.00  0.00    +0.277 C 
ENDBRANCH  25  30
ENDBRANCH   7  22
BRANCH   1  32
ATOM     32  O   UNL     1      -1.403  -1.968   0.108  0.00  0.00    -0.461 OA
BRANCH  32  33
ATOM     33  C   UNL     1      -1.419  -0.540   0.157  0.00  0.00    +0.232 C 
BRANCH  33  35
ATOM     34  C   UNL     1       0.002   1.514   0.219  0.00  0.00    +0.007 C 
ATOM     35  C   UNL     1       0.018  -0.015   0.167  0.00  0.00    +0.038 C 
ENDBRANCH  33  35
ENDBRANCH  32  33
ENDBRANCH   1  32
TORSDOF 7
