REMARK  Name = ZINC08586279
REMARK  13 active torsions:
REMARK  status: ('A' for Active; 'I' for Inactive)
REMARK    1  A    between atoms: C_1  and  C_2
REMARK    2  A    between atoms: C_2  and  C_3
REMARK    3  A    between atoms: C_3  and  C_5
REMARK    4  A    between atoms: C_3  and  N_66
REMARK    5  A    between atoms: N_9  and  C_10
REMARK    6  A    between atoms: C_10  and  C_11
REMARK    7  A    between atoms: C_11  and  C_12
REMARK    8  A    between atoms: C_18  and  C_19
REMARK    9  A    between atoms: C_18  and  N_66
REMARK   10  A    between atoms: C_24  and  C_25
REMARK   11  A    between atoms: C_24  and  N_66
REMARK   12  A    between atoms: C_31  and  C_36
REMARK   13  A    between atoms: C_34  and  O_35
REMARK                            x       y       z     vdW  Elec       q    Type
REMARK                         _______ _______ _______ _____ _____    ______ ____
ROOT
ATOM      1  N   UNL     1       3.588   1.810  -1.247  0.00  0.00    +0.394 N 
ATOM      2  H   UNL     1       3.267   1.849  -2.222  0.00  0.00    -0.080 HD
ENDROOT
BRANCH   1   3
ATOM      3  C   UNL     1       3.062   0.581  -0.617  0.00  0.00    +0.003 C 
BRANCH   3   4
ATOM      4  C   UNL     1       3.650   0.399   0.759  0.00  0.00    +0.138 A 
ATOM      5  N   UNL     1       4.908   0.543   1.097  0.00  0.00    -0.115 NA
ATOM      6  N   UNL     1       5.011   0.301   2.358  0.00  0.00    -0.023 NA
ATOM      7  N   UNL     1       3.852   0.008   2.834  0.00  0.00    -0.044 NA
ATOM      8  N   UNL     1       2.986   0.057   1.878  0.00  0.00    -0.231 N 
BRANCH   8   9
ATOM      9  C   UNL     1       1.550  -0.209   1.991  0.00  0.00    +0.152 C 
BRANCH   9  10
ATOM     10  C   UNL     1       0.813   1.092   2.316  0.00  0.00    +0.058 C 
BRANCH  10  11
ATOM     11  C   UNL     1      -0.664   0.818   2.431  0.00  0.00    -0.046 A 
ATOM     12  C   UNL     1      -1.474   0.915   1.316  0.00  0.00    +0.004 A 
ATOM     13  C   UNL     1      -2.829   0.659   1.421  0.00  0.00    +0.000 A 
ATOM     14  C   UNL     1      -3.374   0.316   2.644  0.00  0.00    +0.000 A 
ATOM     15  C   UNL     1      -2.565   0.224   3.760  0.00  0.00    +0.000 A 
ATOM     16  C   UNL     1      -1.210   0.475   3.654  0.00  0.00    +0.004 A 
ENDBRANCH  10  11
ENDBRANCH   9  10
ENDBRANCH   8   9
ENDBRANCH   3   4
BRANCH   3  18
ATOM     17  C   UNL     1       2.671  -0.535  -2.818  0.00  0.00    +0.002 C 
ATOM     18  C   UNL     1       3.429  -0.619  -1.492  0.00  0.00    -0.011 C 
ENDBRANCH   3  18
ENDBRANCH   1   3
BRANCH   1  19
ATOM     19  C   UNL     1       3.087   3.001  -0.529  0.00  0.00    -0.002 C 
BRANCH  19  20
ATOM     20  C   UNL     1       3.257   4.207  -1.416  0.00  0.00    +0.089 A 
ATOM     21  C   UNL     1       2.433   4.572  -2.414  0.00  0.00    +0.042 A 
ATOM     22  C   UNL     1       2.968   5.754  -2.976  0.00  0.00    +0.041 A 
ATOM     23  C   UNL     1       4.088   6.040  -2.288  0.00  0.00    +0.195 A 
ATOM     24  O   UNL     1       4.255   5.103  -1.341  0.00  0.00    -0.470 OA
ENDBRANCH  19  20
ENDBRANCH   1  19
BRANCH   1  25
ATOM     25  C   UNL     1       5.066   1.794  -1.229  0.00  0.00    -0.036 C 
BRANCH  25  26
ATOM     26  C   UNL     1       5.574   2.853  -2.173  0.00  0.00    -0.002 A 
ATOM     27  C   UNL     1       6.409   3.830  -1.717  0.00  0.00    +0.017 A 
ATOM     28  C   UNL     1       6.865   4.798  -2.633  0.00  0.00    +0.001 A 
ATOM     29  C   UNL     1       7.730   5.829  -2.234  0.00  0.00    +0.010 A 
ATOM     30  C   UNL     1       8.145   6.751  -3.147  0.00  0.00    +0.001 A 
ATOM     31  C   UNL     1       7.722   6.685  -4.472  0.00  0.00    +0.005 A 
ATOM     32  C   UNL     1       6.883   5.699  -4.893  0.00  0.00    -0.024 A 
ATOM     33  C   UNL     1       6.434   4.729  -3.981  0.00  0.00    +0.078 A 
ATOM     34  N   UNL     1       5.609   3.749  -4.367  0.00  0.00    -0.213 NA
ATOM     35  C   UNL     1       5.184   2.839  -3.517  0.00  0.00    +0.214 A 
ATOM     36  C   UNL     1       6.439   5.647  -6.332  0.00  0.00    +0.046 C 
BRANCH  35  37
ATOM     37  O   UNL     1       4.349   1.865  -3.954  0.00  0.00    -0.492 OA
ATOM     38  H   UNL     1       3.412   2.090  -3.885  0.00  0.00    +0.294 HD
ENDBRANCH  35  37
ENDBRANCH  25  26
ENDBRANCH   1  25
TORSDOF 11
