REMARK  Name = ZINC09579445
REMARK  7 active torsions:
REMARK  status: ('A' for Active; 'I' for Inactive)
REMARK    1  A    between atoms: C_6  and  C_7
REMARK    2  A    between atoms: C_7  and  C_8
REMARK    3  A    between atoms: C_7  and  N_59
REMARK    4  A    between atoms: C_20  and  C_22
REMARK    5  A    between atoms: C_22  and  C_23
REMARK    6  A    between atoms: C_23  and  C_24
REMARK    7  A    between atoms: C_26  and  C_29
REMARK                            x       y       z     vdW  Elec       q    Type
REMARK                         _______ _______ _______ _____ _____    ______ ____
ROOT
ATOM      1  C   UNL     1       2.053   1.225  -1.247  0.00  0.00    -0.058 C 
ATOM      2  C   UNL     1       3.417   1.923  -1.299  0.00  0.00    +0.089 C 
ATOM      3  N   UNL     1       4.151   1.605  -0.065  0.00  0.00    -0.305 N 
ATOM      4  C   UNL     1       3.474   1.820   1.223  0.00  0.00    +0.089 C 
ATOM      5  C   UNL     1       2.108   1.127   1.176  0.00  0.00    -0.058 C 
ATOM      6  C   UNL     1       5.412   1.131  -0.113  0.00  0.00    +0.216 C 
ATOM      7  O   UNL     1       6.002   0.874   0.915  0.00  0.00    -0.276 OA
ATOM      8  N   UNL     1       1.363   1.625  -0.001  0.00  0.00    +0.389 N 
ATOM      9  H   UNL     1       1.320   2.650   0.042  0.00  0.00    -0.080 HD
ENDROOT
BRANCH   8  10
ATOM     10  C   UNL     1      -0.013   1.086   0.008  0.00  0.00    -0.007 C 
BRANCH  10  16
ATOM     11  C   UNL     1      -0.551   2.883  -1.648  0.00  0.00    +0.005 A 
ATOM     12  C   UNL     1      -1.215   3.341  -2.771  0.00  0.00    +0.038 A 
ATOM     13  C   UNL     1      -2.080   2.501  -3.453  0.00  0.00    +0.123 A 
ATOM     14  C   UNL     1      -2.274   1.203  -3.013  0.00  0.00    +0.038 A 
ATOM     15  C   UNL     1      -1.605   0.746  -1.893  0.00  0.00    +0.005 A 
ATOM     16  C   UNL     1      -0.742   1.585  -1.213  0.00  0.00    -0.057 A 
ATOM     17  F   UNL     1      -2.733   2.949  -4.547  0.00  0.00    -0.205 F 
ENDBRANCH  10  16
BRANCH  10  18
ATOM     18  C   UNL     1      -0.718   1.572   1.248  0.00  0.00    -0.057 A 
ATOM     19  C   UNL     1      -0.510   2.862   1.700  0.00  0.00    +0.005 A 
ATOM     20  C   UNL     1      -1.160   3.310   2.834  0.00  0.00    +0.038 A 
ATOM     21  C   UNL     1      -2.012   2.463   3.524  0.00  0.00    +0.123 A 
ATOM     22  C   UNL     1      -2.215   1.170   3.073  0.00  0.00    +0.038 A 
ATOM     23  C   UNL     1      -1.568   0.726   1.935  0.00  0.00    +0.005 A 
ATOM     24  F   UNL     1      -2.644   2.899   4.635  0.00  0.00    -0.205 F 
ENDBRANCH  10  18
ENDBRANCH   8  10
BRANCH   6  25
ATOM     25  C   UNL     1       6.087   0.918  -1.443  0.00  0.00    +0.105 C 
BRANCH  25  26
ATOM     26  C   UNL     1       7.500   0.377  -1.217  0.00  0.00    +0.108 C 
BRANCH  26  27
ATOM     27  C   UNL     1       8.175   0.164  -2.547  0.00  0.00    +0.228 A 
ATOM     28  N   UNL     1       8.896   1.040  -3.202  0.00  0.00    -0.191 NA
ATOM     29  C   UNL     1       9.293   0.411  -4.332  0.00  0.00    +0.203 A 
ATOM     30  N   UNL     1       8.794  -0.798  -4.297  0.00  0.00    -0.056 NA
ATOM     31  O   UNL     1       8.156  -0.955  -3.278  0.00  0.00    -0.338 OA
BRANCH  29  32
ATOM     32  C   UNL     1      10.136   0.985  -5.408  0.00  0.00    +0.029 A 
ATOM     33  C   UNL     1      10.480   0.227  -6.526  0.00  0.00    +0.019 A 
ATOM     34  C   UNL     1      11.247   0.814  -7.471  0.00  0.00    +0.046 A 
ATOM     35  S   UNL     1      11.507   2.442  -6.793  0.00  0.00    -0.104 S 
ATOM     36  C   UNL     1      10.599   2.266  -5.327  0.00  0.00    +0.057 A 
ENDBRANCH  29  32
ENDBRANCH  26  27
ENDBRANCH  25  26
ENDBRANCH   6  25
TORSDOF 7
