REMARK  Name = ZINC09116072
REMARK  9 active torsions:
REMARK  status: ('A' for Active; 'I' for Inactive)
REMARK    1  A    between atoms: C_1  and  C_2
REMARK    2  A    between atoms: C_5  and  C_8
REMARK    3  A    between atoms: C_8  and  N_9
REMARK    4  A    between atoms: C_11  and  C_18
REMARK    5  A    between atoms: C_18  and  C_19
REMARK    6  A    between atoms: C_19  and  C_20
REMARK    7  A    between atoms: N_22  and  C_23
REMARK    8  A    between atoms: C_28  and  C_29
REMARK    9  A    between atoms: C_28  and  N_70
REMARK                            x       y       z     vdW  Elec       q    Type
REMARK                         _______ _______ _______ _____ _____    ______ ____
ROOT
ATOM      1  C   UNL     1       5.468  -0.417   1.384  0.00  0.00    +0.100 C 
ENDROOT
BRANCH   1   2
ATOM      2  C   UNL     1       6.946  -0.124   1.371  0.00  0.00    +0.214 C 
ATOM      3  O   UNL     1       7.548  -0.091   0.319  0.00  0.00    -0.276 OA
ATOM      4  N   UNL     1       7.599   0.101   2.529  0.00  0.00    -0.313 N 
ATOM      5  H   UNL     1       7.117   0.074   3.370  0.00  0.00    +0.149 HD
BRANCH   4   6
ATOM      6  C   UNL     1       9.036   0.385   2.516  0.00  0.00    +0.069 C 
ATOM      7  C   UNL     1       9.818  -0.931   2.510  0.00  0.00    +0.003 C 
ATOM      8  C   UNL     1      11.317  -0.628   2.558  0.00  0.00    -0.077 C 
ATOM      9  C   UNL     1      10.921   1.428   3.778  0.00  0.00    -0.077 C 
ATOM     10  C   UNL     1       9.410   1.186   3.766  0.00  0.00    +0.003 C 
ATOM     11  N   UNL     1      11.615   0.123   3.796  0.00  0.00    +0.382 N 
ATOM     12  H   UNL     1      11.284  -0.419   4.602  0.00  0.00    -0.081 HD
BRANCH  11  13
ATOM     13  C   UNL     1      13.073   0.329   3.922  0.00  0.00    -0.043 C 
BRANCH  13  14
ATOM     14  C   UNL     1      13.733  -1.005   4.158  0.00  0.00    -0.064 A 
ATOM     15  C   UNL     1      13.900  -1.475   5.447  0.00  0.00    +0.002 A 
ATOM     16  C   UNL     1      14.500  -2.702   5.663  0.00  0.00    +0.000 A 
ATOM     17  C   UNL     1      14.944  -3.453   4.590  0.00  0.00    +0.000 A 
ATOM     18  C   UNL     1      14.782  -2.979   3.302  0.00  0.00    +0.000 A 
ATOM     19  C   UNL     1      14.176  -1.756   3.086  0.00  0.00    +0.002 A 
ENDBRANCH  13  14
ENDBRANCH  11  13
ENDBRANCH   4   6
ENDBRANCH   1   2
BRANCH   1  20
ATOM     20  C   UNL     1       4.978  -0.632  -0.049  0.00  0.00    +0.046 C 
BRANCH  20  23
ATOM     21  N   UNL     1       1.564  -2.011  -0.023  0.00  0.00    -0.342 N 
ATOM     22  C   UNL     1       2.926  -2.139  -0.037  0.00  0.00    +0.090 A 
ATOM     23  C   UNL     1       3.499  -0.925  -0.036  0.00  0.00    -0.022 A 
ATOM     24  C   UNL     1       2.416   0.060  -0.021  0.00  0.00    +0.003 A 
ATOM     25  C   UNL     1       1.218  -0.678  -0.013  0.00  0.00    +0.050 A 
ATOM     26  C   UNL     1       0.002  -0.004   0.002  0.00  0.00    +0.026 A 
ATOM     27  C   UNL     1      -0.017   1.374   0.010  0.00  0.00    +0.002 A 
ATOM     28  C   UNL     1       1.167   2.098   0.002  0.00  0.00    +0.001 A 
ATOM     29  C   UNL     1       2.374   1.456  -0.013  0.00  0.00    +0.010 A 
BRANCH  21  30
ATOM     30  C   UNL     1       0.614  -3.127  -0.020  0.00  0.00    +0.157 C 
BRANCH  30  35
ATOM     31  C   UNL     1      -1.047  -4.257  -5.438  0.00  0.00    +0.044 C 
ATOM     32  C   UNL     1      -0.615  -3.963  -4.025  0.00  0.00    -0.050 A 
ATOM     33  C   UNL     1       0.491  -4.600  -3.494  0.00  0.00    +0.004 A 
ATOM     34  C   UNL     1       0.889  -4.330  -2.198  0.00  0.00    +0.005 A 
ATOM     35  C   UNL     1       0.180  -3.421  -1.433  0.00  0.00    -0.028 A 
ATOM     36  C   UNL     1      -0.928  -2.788  -1.962  0.00  0.00    +0.005 A 
ATOM     37  C   UNL     1      -1.323  -3.055  -3.260  0.00  0.00    +0.004 A 
ENDBRANCH  30  35
ENDBRANCH  21  30
ENDBRANCH  20  23
ENDBRANCH   1  20
TORSDOF 8
