REMARK  Name = ZINC40323039
REMARK  10 active torsions:
REMARK  status: ('A' for Active; 'I' for Inactive)
REMARK    1  A    between atoms: C_1  and  C_2
REMARK    2  A    between atoms: C_5  and  C_8
REMARK    3  A    between atoms: C_8  and  C_10
REMARK    4  A    between atoms: C_8  and  N_29
REMARK    5  A    between atoms: C_10  and  N_11
REMARK    6  A    between atoms: C_12  and  C_14
REMARK    7  A    between atoms: C_17  and  S_19
REMARK    8  A    between atoms: S_19  and  C_22
REMARK    9  A    between atoms: N_29  and  C_30
REMARK   10  A    between atoms: N_29  and  C_31
REMARK                            x       y       z     vdW  Elec       q    Type
REMARK                         _______ _______ _______ _____ _____    ______ ____
ROOT
ATOM      1  N   UNL     1      -1.115  -6.359   0.374  0.00  0.00    -0.310 N 
ATOM      2  C   UNL     1      -2.197  -7.131   0.595  0.00  0.00    +0.279 C 
ATOM      3  O   UNL     1      -3.281  -6.617   0.801  0.00  0.00    -0.267 OA
ATOM      4  H   UNL     1      -0.252  -6.769   0.210  0.00  0.00    +0.149 HD
ENDROOT
BRANCH   2   5
ATOM      5  C   UNL     1      -2.069  -8.592   0.587  0.00  0.00    +0.192 A 
ATOM      6  C   UNL     1      -3.080  -9.488   0.789  0.00  0.00    +0.056 A 
ATOM      7  C   UNL     1      -2.510 -10.767   0.695  0.00  0.00    +0.070 A 
ATOM      8  C   UNL     1      -1.194 -10.599   0.441  0.00  0.00    +0.246 A 
ATOM      9  O   UNL     1      -0.932  -9.287   0.372  0.00  0.00    -0.433 OA
BRANCH   8  10
ATOM     10  S   UNL     1      -0.015 -11.892   0.231  0.00  0.00    +0.058 S 
ATOM     11  O   UNL     1       1.255 -11.338   0.543  0.00  0.00    -0.161 OA
ATOM     12  O   UNL     1      -0.537 -13.030   0.904  0.00  0.00    -0.161 OA
BRANCH  10  13
ATOM     13  C   UNL     1       0.017 -12.293  -1.484  0.00  0.00    +0.097 A 
ATOM     14  C   UNL     1      -0.835 -13.260  -1.984  0.00  0.00    +0.028 A 
ATOM     15  C   UNL     1      -0.810 -13.575  -3.330  0.00  0.00    +0.017 A 
ATOM     16  C   UNL     1       0.068 -12.922  -4.176  0.00  0.00    +0.018 A 
ATOM     17  C   UNL     1       0.921 -11.955  -3.675  0.00  0.00    +0.017 A 
ATOM     18  C   UNL     1       0.892 -11.638  -2.331  0.00  0.00    +0.028 A 
ATOM     19 BR   UNL     1       0.103 -13.353  -6.017  0.00  0.00    -0.050 Br
ENDBRANCH  10  13
ENDBRANCH   8  10
ENDBRANCH   2   5
BRANCH   1  20
ATOM     20  C   UNL     1      -1.244  -4.899   0.382  0.00  0.00    +0.094 C 
BRANCH  20  21
ATOM     21  C   UNL     1       0.090  -4.268  -0.022  0.00  0.00    -0.021 C 
BRANCH  21  26
ATOM     22  C   UNL     1       1.299  -5.664  -5.498  0.00  0.00    +0.044 C 
ATOM     23  C   UNL     1       0.984  -5.300  -4.070  0.00  0.00    -0.050 A 
ATOM     24  C   UNL     1       1.585  -5.987  -3.032  0.00  0.00    +0.003 A 
ATOM     25  C   UNL     1       1.296  -5.653  -1.722  0.00  0.00    +0.002 A 
ATOM     26  C   UNL     1       0.406  -4.631  -1.450  0.00  0.00    -0.059 A 
ATOM     27  C   UNL     1      -0.195  -3.943  -2.487  0.00  0.00    +0.002 A 
ATOM     28  C   UNL     1       0.097  -4.274  -3.797  0.00  0.00    +0.003 A 
ENDBRANCH  21  26
BRANCH  21  29
ATOM     29  N   UNL     1      -0.002  -2.807   0.103  0.00  0.00    +0.382 N 
ATOM     30  C   UNL     1      -0.293  -2.452   1.498  0.00  0.00    -0.096 C 
ATOM     31  C   UNL     1       1.273  -2.200  -0.302  0.00  0.00    -0.096 C 
ATOM     32  H   UNL     1      -0.742  -2.465  -0.492  0.00  0.00    -0.082 HD
ENDBRANCH  21  29
ENDBRANCH  20  21
ENDBRANCH   1  20
TORSDOF 7
