REMARK  Name = ZINC36704511
REMARK  10 active torsions:
REMARK  status: ('A' for Active; 'I' for Inactive)
REMARK    1  A    between atoms: C_1  and  C_2
REMARK    2  A    between atoms: C_2  and  C_3
REMARK    3  A    between atoms: C_3  and  C_4
REMARK    4  A    between atoms: C_4  and  C_5
REMARK    5  A    between atoms: N_13  and  C_14
REMARK    6  A    between atoms: C_14  and  C_16
REMARK    7  A    between atoms: N_21  and  S_22
REMARK    8  A    between atoms: S_22  and  C_25
REMARK    9  A    between atoms: N_31  and  C_32
REMARK   10  A    between atoms: C_32  and  C_33
REMARK                            x       y       z     vdW  Elec       q    Type
REMARK                         _______ _______ _______ _____ _____    ______ ____
ROOT
ATOM      1  C   UNL     1       1.028  -1.992  -3.288  0.00  0.00    -0.046 A 
ATOM      2  C   UNL     1       0.497  -2.554  -4.437  0.00  0.00    +0.006 A 
ATOM      3  C   UNL     1       1.286  -3.259  -5.316  0.00  0.00    +0.027 A 
ATOM      4  C   UNL     1       2.656  -3.427  -5.067  0.00  0.00    +0.058 A 
ATOM      5  C   UNL     1       3.167  -2.847  -3.897  0.00  0.00    +0.039 A 
ATOM      6  C   UNL     1       2.378  -2.138  -3.023  0.00  0.00    +0.020 A 
ATOM      7  S   UNL     1       4.887  -3.277  -3.953  0.00  0.00    -0.052 S 
ATOM      8  C   UNL     1       4.893  -4.138  -5.396  0.00  0.00    +0.167 A 
ATOM      9  N   UNL     1       5.927  -4.730  -5.990  0.00  0.00    -0.155 NA
ATOM     10  N   UNL     1       3.604  -4.093  -5.820  0.00  0.00    -0.310 N 
ENDROOT
BRANCH   9  11
ATOM     11  C   UNL     1       5.796  -5.223  -7.217  0.00  0.00    +0.257 C 
ATOM     12  O   UNL     1       5.468  -4.494  -8.133  0.00  0.00    -0.272 OA
BRANCH  11  13
ATOM     13  C   UNL     1       6.055  -6.685  -7.473  0.00  0.00    +0.168 C 
ATOM     14  C   UNL     1       5.062  -7.544  -6.662  0.00  0.00    +0.031 C 
ATOM     15  C   UNL     1       3.952  -7.864  -7.698  0.00  0.00    +0.019 C 
ATOM     16  C   UNL     1       4.777  -8.011  -9.001  0.00  0.00    +0.110 C 
ATOM     17  N   UNL     1       5.839  -6.989  -8.895  0.00  0.00    -0.164 NA
BRANCH  17  18
ATOM     18  S   UNL     1       6.650  -6.300 -10.164  0.00  0.00    +0.068 S 
ATOM     19  O   UNL     1       5.806  -6.422 -11.300  0.00  0.00    -0.152 OA
ATOM     20  O   UNL     1       7.131  -5.044  -9.704  0.00  0.00    -0.152 OA
BRANCH  18  21
ATOM     21  C   UNL     1       8.068  -7.297 -10.479  0.00  0.00    +0.144 A 
ATOM     22  C   UNL     1       8.196  -8.359 -11.311  0.00  0.00    +0.038 A 
ATOM     23  C   UNL     1       9.419  -8.998 -11.400  0.00  0.00    +0.030 A 
ATOM     24  C   UNL     1      10.454  -8.542 -10.652  0.00  0.00    +0.080 A 
ATOM     25  S   UNL     1       9.710  -7.166  -9.792  0.00  0.00    -0.057 S 
ATOM     26 CL   UNL     1      12.082  -9.138 -10.559  0.00  0.00    -0.076 Cl
ENDBRANCH  18  21
ENDBRANCH  17  18
ENDBRANCH  11  13
ENDBRANCH   9  11
BRANCH   1  27
ATOM     27  C   UNL     1       0.145  -1.223  -2.339  0.00  0.00    +0.035 C 
BRANCH  27  28
ATOM     28  C   UNL     1       0.121   0.252  -2.746  0.00  0.00    +0.004 C 
BRANCH  28  30
ATOM     29  C   UNL     1      -0.800   2.507  -2.189  0.00  0.00    +0.004 C 
ATOM     30  C   UNL     1      -0.776   1.032  -1.782  0.00  0.00    -0.003 C 
ENDBRANCH  28  30
ENDBRANCH  27  28
ENDBRANCH   1  27
BRANCH  10  31
ATOM     31  C   UNL     1       3.219  -4.750  -7.072  0.00  0.00    +0.212 C 
BRANCH  31  32
ATOM     32  C   UNL     1       3.215  -3.762  -8.163  0.00  0.00    -0.084 C 
ATOM     33  C   UNL     1       3.212  -2.974  -9.033  0.00  0.00    +0.005 C 
ENDBRANCH  31  32
ENDBRANCH  10  31
TORSDOF 9
