REMARK  Name = ZINC40192889
REMARK  7 active torsions:
REMARK  status: ('A' for Active; 'I' for Inactive)
REMARK    1  A    between atoms: C_4  and  C_7
REMARK    2  A    between atoms: C_10  and  C_13
REMARK    3  A    between atoms: C_13  and  C_14
REMARK    4  A    between atoms: N_16  and  C_17
REMARK    5  A    between atoms: C_17  and  C_18
REMARK    6  A    between atoms: N_26  and  C_27
REMARK    7  A    between atoms: C_27  and  C_28
REMARK                            x       y       z     vdW  Elec       q    Type
REMARK                         _______ _______ _______ _____ _____    ______ ____
ROOT
ATOM      1  C   UNL     1      10.776  -4.654   2.941  0.00  0.00    +0.128 A 
ATOM      2  N   UNL     1      10.913  -5.948   2.911  0.00  0.00    -0.231 NA
ATOM      3  C   UNL     1      12.232  -6.266   2.869  0.00  0.00    +0.089 A 
ATOM      4  C   UNL     1      12.931  -7.475   2.826  0.00  0.00    +0.030 A 
ATOM      5  C   UNL     1      14.296  -7.472   2.790  0.00  0.00    +0.002 A 
ATOM      6  C   UNL     1      15.002  -6.276   2.795  0.00  0.00    +0.002 A 
ATOM      7  C   UNL     1      14.333  -5.071   2.837  0.00  0.00    +0.028 A 
ATOM      8  C   UNL     1      12.946  -5.055   2.874  0.00  0.00    +0.069 A 
ATOM      9  N   UNL     1      11.996  -4.054   2.914  0.00  0.00    -0.317 N 
ENDROOT
BRANCH   1  10
ATOM     10  C   UNL     1       9.457  -3.927   2.991  0.00  0.00    +0.178 C 
BRANCH  10  13
ATOM     11  C   UNL     1       7.822  -3.026   1.425  0.00  0.00    +0.218 C 
ATOM     12  O   UNL     1       7.159  -2.660   2.373  0.00  0.00    -0.275 OA
ATOM     13  N   UNL     1       8.989  -3.670   1.627  0.00  0.00    -0.308 N 
ATOM     14  H   UNL     1       9.518  -3.963   0.869  0.00  0.00    +0.149 HD
BRANCH  11  15
ATOM     15  C   UNL     1       7.340  -2.762   0.022  0.00  0.00    +0.130 C 
BRANCH  15  19
ATOM     16  C   UNL     1       3.598  -0.698   0.165  0.00  0.00    -0.018 A 
ATOM     17  C   UNL     1       4.792   0.020   0.140  0.00  0.00    +0.009 A 
ATOM     18  C   UNL     1       5.997  -0.652   0.094  0.00  0.00    +0.005 A 
ATOM     19  C   UNL     1       6.021  -2.035   0.072  0.00  0.00    -0.039 A 
ATOM     20  C   UNL     1       4.839  -2.752   0.096  0.00  0.00    +0.005 A 
ATOM     21  C   UNL     1       3.628  -2.091   0.148  0.00  0.00    +0.009 A 
BRANCH  16  25
ATOM     22  C   UNL     1      -0.123   1.354   0.306  0.00  0.00    +0.000 A 
ATOM     23  C   UNL     1       1.059   2.072   0.276  0.00  0.00    +0.001 A 
ATOM     24  C   UNL     1       2.269   1.411   0.231  0.00  0.00    +0.008 A 
ATOM     25  C   UNL     1       2.300   0.018   0.214  0.00  0.00    -0.018 A 
ATOM     26  C   UNL     1       1.106  -0.700   0.244  0.00  0.00    +0.008 A 
ATOM     27  C   UNL     1      -0.099  -0.029   0.290  0.00  0.00    +0.001 A 
ENDBRANCH  16  25
ENDBRANCH  15  19
ENDBRANCH  11  15
ENDBRANCH  10  13
ENDBRANCH   1  10
BRANCH   9  28
ATOM     28  C   UNL     1      12.255  -2.612   2.928  0.00  0.00    +0.219 C 
BRANCH  28  29
ATOM     29  C   UNL     1      12.387  -2.139   4.353  0.00  0.00    +0.240 C 
ATOM     30  O   UNL     1      12.186  -2.909   5.268  0.00  0.00    -0.273 OA
ATOM     31  N   UNL     1      12.727  -0.861   4.610  0.00  0.00    -0.270 N 
ATOM     32  C   UNL     1      12.889   0.104   3.513  0.00  0.00    +0.114 C 
ATOM     33  C   UNL     1      14.171   0.905   3.779  0.00  0.00    +0.024 C 
ATOM     34  C   UNL     1      14.000   1.694   5.076  0.00  0.00    +0.038 C 
ATOM     35  C   UNL     1      13.542   0.788   6.189  0.00  0.00    -0.026 A 
ATOM     36  C   UNL     1      12.927  -0.427   5.928  0.00  0.00    +0.039 A 
ATOM     37  C   UNL     1      12.507  -1.236   6.977  0.00  0.00    +0.024 A 
ATOM     38  C   UNL     1      12.697  -0.829   8.283  0.00  0.00    +0.002 A 
ATOM     39  C   UNL     1      13.307   0.384   8.544  0.00  0.00    +0.000 A 
ATOM     40  C   UNL     1      13.736   1.187   7.500  0.00  0.00    +0.005 A 
ENDBRANCH  28  29
ENDBRANCH   9  28
TORSDOF 7
