REMARK  Name = ZINC59350896
REMARK  9 active torsions:
REMARK  status: ('A' for Active; 'I' for Inactive)
REMARK    1  A    between atoms: C_1  and  C_2
REMARK    2  A    between atoms: C_7  and  N_8
REMARK    3  A    between atoms: N_8  and  C_9
REMARK    4  A    between atoms: N_8  and  S_28
REMARK    5  A    between atoms: C_9  and  C_10
REMARK    6  A    between atoms: N_12  and  C_13
REMARK    7  A    between atoms: N_16  and  C_19
REMARK    8  A    between atoms: C_19  and  C_20
REMARK    9  A    between atoms: S_28  and  C_31
REMARK                            x       y       z     vdW  Elec       q    Type
REMARK                         _______ _______ _______ _____ _____    ______ ____
ROOT
ATOM      1  C   UNL     1       1.395   2.019   3.333  0.00  0.00    +0.232 C 
ATOM      2  O   UNL     1       0.744   2.655   2.532  0.00  0.00    -0.274 OA
ATOM      3  N   UNL     1       2.412   2.607   3.994  0.00  0.00    -0.311 N 
ATOM      4  H   UNL     1       2.932   2.098   4.635  0.00  0.00    +0.149 HD
ENDROOT
BRANCH   3   5
ATOM      5  C   UNL     1       2.730   4.015   3.745  0.00  0.00    +0.069 C 
ATOM      6  C   UNL     1       3.662   4.122   2.534  0.00  0.00    +0.003 C 
ATOM      7  C   UNL     1       4.054   5.587   2.327  0.00  0.00    -0.077 C 
ATOM      8  N   UNL     1       4.744   6.085   3.523  0.00  0.00    +0.382 N 
ATOM      9  C   UNL     1       3.834   6.052   4.674  0.00  0.00    -0.077 C 
ATOM     10  C   UNL     1       3.433   4.606   4.971  0.00  0.00    +0.003 C 
ATOM     11  H   UNL     1       5.547   5.504   3.714  0.00  0.00    -0.081 HD
BRANCH   8  12
ATOM     12  C   UNL     1       5.188   7.466   3.291  0.00  0.00    -0.043 C 
BRANCH  12  13
ATOM     13  C   UNL     1       6.002   7.937   4.468  0.00  0.00    -0.061 A 
ATOM     14  C   UNL     1       5.378   8.556   5.536  0.00  0.00    +0.005 A 
ATOM     15  C   UNL     1       6.123   8.989   6.617  0.00  0.00    +0.041 A 
ATOM     16  C   UNL     1       7.494   8.803   6.631  0.00  0.00    +0.158 A 
ATOM     17  C   UNL     1       8.120   8.182   5.561  0.00  0.00    +0.159 A 
ATOM     18  C   UNL     1       7.370   7.745   4.482  0.00  0.00    +0.043 A 
ATOM     19  F   UNL     1       9.458   8.000   5.572  0.00  0.00    -0.202 F 
ATOM     20  F   UNL     1       8.223   9.226   7.687  0.00  0.00    -0.202 F 
ENDBRANCH  12  13
ENDBRANCH   8  12
ENDBRANCH   3   5
BRANCH   1  21
ATOM     21  C   UNL     1       1.067   0.570   3.590  0.00  0.00    +0.226 C 
BRANCH  21  22
ATOM     22  N   UNL     1       0.018   0.136   2.664  0.00  0.00    -0.199 N 
BRANCH  22  29
ATOM     23  C   UNL     1       0.359  -2.662   2.281  0.00  0.00    +0.046 C 
ATOM     24  C   UNL     1       0.534  -1.676   1.155  0.00  0.00    -0.028 A 
ATOM     25  C   UNL     1       0.864  -2.121  -0.110  0.00  0.00    +0.005 A 
ATOM     26  C   UNL     1       1.025  -1.217  -1.143  0.00  0.00    +0.000 A 
ATOM     27  C   UNL     1       0.855   0.137  -0.914  0.00  0.00    +0.002 A 
ATOM     28  C   UNL     1       0.525   0.589   0.348  0.00  0.00    +0.025 A 
ATOM     29  C   UNL     1       0.357  -0.318   1.387  0.00  0.00    +0.054 A 
ENDBRANCH  22  29
BRANCH  22  30
ATOM     30  S   UNL     1      -1.570   0.182   3.131  0.00  0.00    +0.043 S 
ATOM     31  O   UNL     1      -1.659   1.301   4.002  0.00  0.00    -0.155 OA
ATOM     32  O   UNL     1      -2.307   0.149   1.916  0.00  0.00    -0.155 OA
ATOM     33  C   UNL     1      -1.828  -1.355   4.060  0.00  0.00    +0.218 C 
ENDBRANCH  22  30
ENDBRANCH  21  22
ENDBRANCH   1  21
TORSDOF 7
