REMARK  Name = ZINC00921186
REMARK  12 active torsions:
REMARK  status: ('A' for Active; 'I' for Inactive)
REMARK    1  A    between atoms: C_1  and  O_2
REMARK    2  A    between atoms: O_2  and  C_3
REMARK    3  A    between atoms: C_6  and  N_11
REMARK    4  A    between atoms: C_8  and  O_9
REMARK    5  A    between atoms: O_9  and  C_10
REMARK    6  A    between atoms: N_11  and  C_12
REMARK    7  A    between atoms: C_12  and  C_14
REMARK    8  A    between atoms: C_12  and  C_21
REMARK    9  A    between atoms: C_17  and  O_20
REMARK   10  A    between atoms: N_23  and  C_24
REMARK   11  A    between atoms: C_30  and  C_32
REMARK   12  A    between atoms: C_32  and  N_33
REMARK                            x       y       z     vdW  Elec       q    Type
REMARK                         _______ _______ _______ _____ _____    ______ ____
ROOT
ATOM      1  N   UNL     1      -5.490   3.051  -1.716  0.00  0.00    -0.254 N 
ATOM      2  C   UNL     1      -4.191   2.860  -1.410  0.00  0.00    +0.242 C 
ATOM      3  O   UNL     1      -3.328   3.184  -2.198  0.00  0.00    -0.273 OA
ENDROOT
BRANCH   1   7
ATOM      4  C   UNL     1      -8.446   2.233   1.113  0.00  0.00    +0.162 A 
ATOM      5  C   UNL     1      -8.319   1.432  -0.010  0.00  0.00    +0.051 A 
ATOM      6  C   UNL     1      -7.340   1.703  -0.947  0.00  0.00    +0.027 A 
ATOM      7  C   UNL     1      -6.482   2.779  -0.765  0.00  0.00    +0.041 A 
ATOM      8  C   UNL     1      -6.602   3.580   0.361  0.00  0.00    +0.073 A 
ATOM      9  C   UNL     1      -7.586   3.312   1.298  0.00  0.00    +0.163 A 
BRANCH   4  11
ATOM     10  C   UNL     1     -10.256   0.842   1.781  0.00  0.00    +0.277 C 
ATOM     11  O   UNL     1      -9.409   1.965   2.035  0.00  0.00    -0.491 OA
ENDBRANCH   4  11
BRANCH   9  12
ATOM     12  O   UNL     1      -7.709   4.099   2.401  0.00  0.00    -0.491 OA
ATOM     13  C   UNL     1      -6.793   5.188   2.526  0.00  0.00    +0.277 C 
ENDBRANCH   9  12
ENDBRANCH   1   7
BRANCH   1  14
ATOM     14  C   UNL     1      -5.864   3.545  -3.044  0.00  0.00    +0.197 C 
BRANCH  14  15
ATOM     15  C   UNL     1      -7.365   3.537  -3.178  0.00  0.00    -0.018 A 
ATOM     16  C   UNL     1      -8.139   4.296  -2.320  0.00  0.00    +0.009 A 
ATOM     17  C   UNL     1      -9.514   4.295  -2.445  0.00  0.00    +0.046 A 
ATOM     18  C   UNL     1     -10.120   3.521  -3.425  0.00  0.00    +0.117 A 
ATOM     19  C   UNL     1      -9.342   2.756  -4.281  0.00  0.00    +0.046 A 
ATOM     20  C   UNL     1      -7.966   2.765  -4.156  0.00  0.00    +0.009 A 
BRANCH  18  21
ATOM     21  O   UNL     1     -11.474   3.513  -3.545  0.00  0.00    -0.507 OA
ATOM     22  H   UNL     1     -11.912   2.833  -3.016  0.00  0.00    +0.292 HD
ENDBRANCH  18  21
ENDBRANCH  14  15
BRANCH  14  23
ATOM     23  C   UNL     1      -5.351   4.951  -3.220  0.00  0.00    +0.239 C 
ATOM     24  O   UNL     1      -4.734   5.488  -2.325  0.00  0.00    -0.273 OA
ATOM     25  N   UNL     1      -5.579   5.611  -4.373  0.00  0.00    -0.311 N 
ATOM     26  H   UNL     1      -6.072   5.182  -5.089  0.00  0.00    +0.149 HD
BRANCH  25  27
ATOM     27  C   UNL     1      -5.080   6.978  -4.544  0.00  0.00    +0.073 C 
ATOM     28  C   UNL     1      -6.087   7.966  -3.951  0.00  0.00    +0.022 C 
ATOM     29  C   UNL     1      -5.566   9.394  -4.130  0.00  0.00    +0.002 C 
ATOM     30  C   UNL     1      -5.383   9.687  -5.620  0.00  0.00    +0.000 C 
ATOM     31  C   UNL     1      -4.377   8.699  -6.214  0.00  0.00    +0.002 C 
ATOM     32  C   UNL     1      -4.897   7.271  -6.035  0.00  0.00    +0.022 C 
ENDBRANCH  25  27
ENDBRANCH  14  23
ENDBRANCH   1  14
BRANCH   2  33
ATOM     33  C   UNL     1      -3.812   2.244  -0.087  0.00  0.00    +0.242 C 
BRANCH  33  34
ATOM     34  N   UNL     1      -2.365   2.019  -0.051  0.00  0.00    -0.235 N 
ATOM     35  C   UNL     1      -1.698   0.888  -0.457  0.00  0.00    +0.090 A 
ATOM     36  C   UNL     1      -2.099  -0.328  -1.000  0.00  0.00    +0.029 A 
ATOM     37  C   UNL     1      -1.164  -1.278  -1.302  0.00  0.00    +0.002 A 
ATOM     38  C   UNL     1       0.186  -1.036  -1.081  0.00  0.00    +0.002 A 
ATOM     39  C   UNL     1       0.606   0.150  -0.555  0.00  0.00    +0.032 A 
ATOM     40  C   UNL     1      -0.333   1.139  -0.232  0.00  0.00    +0.113 A 
ATOM     41  N   UNL     1      -0.225   2.378   0.288  0.00  0.00    -0.129 NA
ATOM     42  N   UNL     1      -1.388   2.916   0.406  0.00  0.00    -0.064 NA
ENDBRANCH  33  34
ENDBRANCH   2  33
TORSDOF 10
