REMARK  Name = ZINC20759666
REMARK  3 active torsions:
REMARK  status: ('A' for Active; 'I' for Inactive)
REMARK    1  A    between atoms: C_3  and  C_8
REMARK    2  A    between atoms: N_10  and  C_11
REMARK    3  A    between atoms: C_11  and  C_12
REMARK                            x       y       z     vdW  Elec       q    Type
REMARK                         _______ _______ _______ _____ _____    ______ ____
ROOT
ATOM      1  C   UNL     1       7.248   1.283  -0.061  0.00  0.00    +0.233 C 
ATOM      2  O   UNL     1       7.041   0.088  -0.065  0.00  0.00    -0.274 OA
ATOM      3  N   UNL     1       8.514   1.747  -0.071  0.00  0.00    -0.300 N 
ATOM      4  C   UNL     1       8.781   3.192  -0.060  0.00  0.00    +0.110 C 
ATOM      5  C   UNL     1       9.702   3.531  -1.237  0.00  0.00    +0.047 C 
ATOM      6  C   UNL     1      10.955   2.657  -1.167  0.00  0.00    +0.064 C 
ATOM      7  C   UNL     1      10.564   1.183  -1.268  0.00  0.00    +0.047 C 
ATOM      8  C   UNL     1       9.652   0.818  -0.087  0.00  0.00    +0.110 C 
ATOM      9  C   UNL     1      11.887   3.015  -2.294  0.00  0.00    +0.057 A 
ATOM     10  C   UNL     1      13.005   3.760  -2.134  0.00  0.00    +0.039 A 
ATOM     11  N   UNL     1      13.593   3.884  -3.324  0.00  0.00    -0.349 N 
ATOM     12  C   UNL     1      12.884   3.246  -4.220  0.00  0.00    +0.171 A 
ATOM     13  N   UNL     1      11.810   2.691  -3.611  0.00  0.00    -0.348 N 
ATOM     14  H   UNL     1      11.116   2.162  -4.035  0.00  0.00    +0.166 HD
ATOM     15  C   UNL     1      13.437   4.319  -0.800  0.00  0.00    +0.070 C 
ATOM     16  C   UNL     1      12.238   4.243   0.155  0.00  0.00    +0.088 C 
ATOM     17  N   UNL     1      11.651   2.896   0.107  0.00  0.00    -0.305 NA
ATOM     18  H   UNL     1      11.034   2.743   0.891  0.00  0.00    +0.123 HD
ATOM     19  H   UNL     1      14.415   4.369  -3.498  0.00  0.00    +0.166 HD
ENDROOT
BRANCH   1  20
ATOM     20  C   UNL     1       6.092   2.249  -0.045  0.00  0.00    +0.200 C 
BRANCH  20  23
ATOM     21  C   UNL     1       3.657   2.162  -0.022  0.00  0.00    +0.244 C 
ATOM     22  O   UNL     1       3.643   3.377  -0.015  0.00  0.00    -0.270 OA
ATOM     23  N   UNL     1       4.832   1.502  -0.036  0.00  0.00    -0.303 N 
ATOM     24  H   UNL     1       4.843   0.532  -0.041  0.00  0.00    +0.150 HD
BRANCH  21  27
ATOM     25  C   UNL     1      -0.017   1.379   0.010  0.00  0.00    +0.002 A 
ATOM     26  C   UNL     1       1.167   2.088   0.002  0.00  0.00    +0.013 A 
ATOM     27  C   UNL     1       2.385   1.408  -0.013  0.00  0.00    +0.038 A 
ATOM     28  C   UNL     1       2.398   0.012  -0.021  0.00  0.00    +0.028 A 
ATOM     29  C   UNL     1       1.207  -0.686  -0.013  0.00  0.00    +0.019 A 
ATOM     30  C   UNL     1       0.002  -0.004   0.002  0.00  0.00    +0.015 A 
ATOM     31 BR   UNL     1       1.221  -2.577  -0.023  0.00  0.00    -0.050 Br
ENDBRANCH  21  27
ENDBRANCH  20  23
ENDBRANCH   1  20
TORSDOF 3
