REMARK  Name = ZINC45599186
REMARK  7 active torsions:
REMARK  status: ('A' for Active; 'I' for Inactive)
REMARK    1  A    between atoms: C_1  and  C_2
REMARK    2  A    between atoms: C_6  and  N_8
REMARK    3  A    between atoms: C_9  and  C_31
REMARK    4  A    between atoms: C_12  and  S_13
REMARK    5  A    between atoms: S_13  and  C_14
REMARK    6  A    between atoms: C_14  and  C_15
REMARK    7  A    between atoms: C_25  and  C_29
REMARK                            x       y       z     vdW  Elec       q    Type
REMARK                         _______ _______ _______ _____ _____    ______ ____
ROOT
ATOM      1  C   UNL     1       4.716  -1.575   4.709  0.00  0.00    +0.143 A 
ATOM      2  N   UNL     1       5.783  -2.170   4.207  0.00  0.00    -0.216 NA
ATOM      3  C   UNL     1       7.006  -1.698   4.390  0.00  0.00    +0.128 A 
ATOM      4  C   UNL     1       7.181  -0.510   5.153  0.00  0.00    +0.051 A 
ATOM      5  C   UNL     1       8.423   0.191   5.486  0.00  0.00    -0.025 A 
ATOM      6  C   UNL     1       8.313   1.309   6.231  0.00  0.00    -0.004 A 
ATOM      7  S   UNL     1       6.576   1.497   6.531  0.00  0.00    -0.073 S 
ATOM      8  C   UNL     1       5.998   0.068   5.654  0.00  0.00    +0.114 A 
ATOM      9  N   UNL     1       4.816  -0.468   5.419  0.00  0.00    -0.224 NA
ATOM     10  C   UNL     1       9.424   2.198   6.703  0.00  0.00    +0.046 C 
ATOM     11  C   UNL     1      10.752   1.448   6.528  0.00  0.00    -0.009 C 
ATOM     12  C   UNL     1      10.793   0.843   5.122  0.00  0.00    +0.008 C 
ATOM     13  C   UNL     1       9.790  -0.306   5.021  0.00  0.00    +0.037 C 
ATOM     14  C   UNL     1      11.919   2.422   6.706  0.00  0.00    +0.008 C 
ATOM     15  N   UNL     1       8.098  -2.351   3.848  0.00  0.00    -0.343 N 
ATOM     16  H   UNL     1       7.970  -3.013   3.151  0.00  0.00    +0.144 HD
ATOM     17  H   UNL     1       8.992  -2.146   4.165  0.00  0.00    +0.144 HD
ENDROOT
BRANCH   1  18
ATOM     18  C   UNL     1       3.354  -2.171   4.460  0.00  0.00    +0.153 C 
BRANCH  18  19
ATOM     19  S   UNL     1       2.663  -1.480   2.931  0.00  0.00    -0.078 S 
BRANCH  19  24
ATOM     20  N   UNL     1       0.179  -2.074   1.781  0.00  0.00    -0.274 N 
ATOM     21  C   UNL     1      -0.875  -2.894   2.082  0.00  0.00    +0.135 A 
ATOM     22  N   UNL     1      -0.582  -3.511   3.192  0.00  0.00    -0.133 NA
ATOM     23  N   UNL     1       0.575  -3.142   3.611  0.00  0.00    -0.122 NA
ATOM     24  C   UNL     1       1.092  -2.265   2.781  0.00  0.00    +0.197 A 
ATOM     25  C   UNL     1      -2.141  -3.054   1.278  0.00  0.00    +0.088 C 
BRANCH  20  31
ATOM     26  C   UNL     1       0.547   2.484  -0.033  0.00  0.00    +0.044 C 
ATOM     27  C   UNL     1       0.481   0.992  -0.232  0.00  0.00    -0.048 A 
ATOM     28  C   UNL     1       0.540   0.462  -1.509  0.00  0.00    +0.003 A 
ATOM     29  C   UNL     1       0.480  -0.906  -1.696  0.00  0.00    +0.002 A 
ATOM     30  C   UNL     1       0.361  -1.749  -0.608  0.00  0.00    +0.026 A 
ATOM     31  C   UNL     1       0.301  -1.221   0.674  0.00  0.00    +0.050 A 
ATOM     32  C   UNL     1       0.367   0.154   0.860  0.00  0.00    +0.029 A 
ENDBRANCH  20  31
ENDBRANCH  19  24
ENDBRANCH  18  19
ENDBRANCH   1  18
TORSDOF 4
