REMARK  Name = ZINC41000978
REMARK  10 active torsions:
REMARK  status: ('A' for Active; 'I' for Inactive)
REMARK    1  A    between atoms: C_1  and  C_2
REMARK    2  A    between atoms: C_5  and  C_8
REMARK    3  A    between atoms: C_10  and  C_13
REMARK    4  A    between atoms: C_14  and  C_34
REMARK    5  A    between atoms: C_15  and  C_33
REMARK    6  A    between atoms: C_17  and  N_18
REMARK    7  A    between atoms: C_19  and  C_21
REMARK    8  A    between atoms: C_21  and  C_23
REMARK    9  A    between atoms: C_21  and  O_24
REMARK   10  A    between atoms: O_24  and  C_25
REMARK                            x       y       z     vdW  Elec       q    Type
REMARK                         _______ _______ _______ _____ _____    ______ ____
ROOT
ATOM      1  C   UNL     1      -0.491  -7.500   1.665  0.00  0.00    +0.071 A 
ATOM      2  C   UNL     1      -0.723  -8.841   1.192  0.00  0.00    -0.026 A 
ATOM      3  C   UNL     1      -0.856  -9.827   2.098  0.00  0.00    -0.008 A 
ATOM      4  S   UNL     1      -0.672  -8.977   3.654  0.00  0.00    -0.078 S 
ATOM      5  C   UNL     1      -0.415  -7.322   3.042  0.00  0.00    +0.085 A 
ATOM      6  C   UNL     1      -1.102 -11.294   1.857  0.00  0.00    +0.052 C 
ATOM      7  C   UNL     1      -0.815  -9.133  -0.284  0.00  0.00    +0.045 C 
ENDROOT
BRANCH   1  10
ATOM      8  C   UNL     1      -0.028  -4.360  -0.032  0.00  0.00    +0.202 A 
ATOM      9  N   UNL     1      -0.117  -5.119   1.071  0.00  0.00    -0.187 NA
ATOM     10  C   UNL     1      -0.335  -6.373   0.735  0.00  0.00    +0.261 A 
ATOM     11  O   UNL     1      -0.391  -6.444  -0.608  0.00  0.00    -0.332 OA
ATOM     12  N   UNL     1      -0.194  -5.122  -1.086  0.00  0.00    -0.056 NA
BRANCH   8  17
ATOM     13  C   UNL     1       0.908   1.323  -0.121  0.00  0.00    +0.044 C 
ATOM     14  C   UNL     1       0.663  -0.164  -0.098  0.00  0.00    -0.050 A 
ATOM     15  C   UNL     1       0.505  -0.855  -1.286  0.00  0.00    +0.004 A 
ATOM     16  C   UNL     1       0.280  -2.217  -1.270  0.00  0.00    +0.012 A 
ATOM     17  C   UNL     1       0.214  -2.895  -0.055  0.00  0.00    +0.022 A 
ATOM     18  C   UNL     1       0.375  -2.195   1.138  0.00  0.00    +0.012 A 
ATOM     19  C   UNL     1       0.604  -0.834   1.111  0.00  0.00    +0.004 A 
ENDBRANCH   8  17
ENDBRANCH   1  10
BRANCH   5  20
ATOM     20  N   UNL     1      -0.197  -6.153   3.758  0.00  0.00    -0.276 N 
ATOM     21  C   UNL     1      -0.157  -6.185   5.105  0.00  0.00    +0.258 C 
ATOM     22  O   UNL     1      -0.311  -7.235   5.691  0.00  0.00    -0.271 OA
ATOM     23  H   UNL     1      -0.073  -5.313   3.289  0.00  0.00    +0.155 HD
BRANCH  21  24
ATOM     24  C   UNL     1       0.080  -4.916   5.882  0.00  0.00    +0.256 C 
ATOM     25  C   UNL     1      -1.095  -3.959   5.667  0.00  0.00    +0.062 C 
BRANCH  24  26
ATOM     26  O   UNL     1       0.195  -5.223   7.273  0.00  0.00    -0.478 OA
BRANCH  26  27
ATOM     27  C   UNL     1       0.898  -4.351   8.042  0.00  0.00    +0.140 A 
ATOM     28  C   UNL     1       1.370  -3.167   7.495  0.00  0.00    +0.048 A 
ATOM     29  C   UNL     1       2.085  -2.281   8.278  0.00  0.00    +0.023 A 
ATOM     30  C   UNL     1       2.331  -2.574   9.608  0.00  0.00    +0.043 A 
ATOM     31  C   UNL     1       1.861  -3.754  10.156  0.00  0.00    +0.043 A 
ATOM     32  C   UNL     1       1.141  -4.640   9.378  0.00  0.00    +0.084 A 
ATOM     33 CL   UNL     1       0.545  -6.118  10.068  0.00  0.00    -0.080 Cl
ATOM     34 CL   UNL     1       3.230  -1.459  10.589  0.00  0.00    -0.083 Cl
ENDBRANCH  26  27
ENDBRANCH  24  26
ENDBRANCH  21  24
ENDBRANCH   5  20
TORSDOF 6
