REMARK  Name = ZINC35031500
REMARK  13 active torsions:
REMARK  status: ('A' for Active; 'I' for Inactive)
REMARK    1  A    between atoms: C_1  and  C_2
REMARK    2  A    between atoms: C_6  and  C_36
REMARK    3  A    between atoms: C_8  and  O_11
REMARK    4  A    between atoms: O_11  and  C_12
REMARK    5  A    between atoms: C_12  and  C_13
REMARK    6  A    between atoms: C_13  and  C_15
REMARK    7  A    between atoms: C_13  and  O_35
REMARK    8  A    between atoms: C_15  and  N_16
REMARK    9  A    between atoms: N_19  and  C_22
REMARK   10  A    between atoms: C_22  and  C_23
REMARK   11  A    between atoms: C_22  and  C_29
REMARK   12  A    between atoms: C_36  and  C_37
REMARK   13  A    between atoms: C_36  and  C_38
REMARK                            x       y       z     vdW  Elec       q    Type
REMARK                         _______ _______ _______ _____ _____    ______ ____
ROOT
ATOM      1  N   UNL     1       2.298   5.623   3.759  0.00  0.00    -0.303 NA
ATOM      2  C   UNL     1       1.172   5.973   4.637  0.00  0.00    +0.066 C 
ATOM      3  C   UNL     1       0.978   7.491   4.631  0.00  0.00    -0.062 C 
ATOM      4  N   UNL     1       2.208   8.144   5.100  0.00  0.00    +0.389 N 
ATOM      5  C   UNL     1       3.318   7.804   4.199  0.00  0.00    -0.062 C 
ATOM      6  C   UNL     1       3.531   6.289   4.201  0.00  0.00    +0.066 C 
ATOM      7  H   UNL     1       2.423   7.826   6.033  0.00  0.00    -0.080 HD
ENDROOT
BRANCH   1   8
ATOM      8  C   UNL     1       2.481   4.167   3.693  0.00  0.00    +0.117 C 
BRANCH   8   9
ATOM      9  C   UNL     1       1.274   3.533   2.999  0.00  0.00    +0.154 C 
BRANCH   9  10
ATOM     10  O   UNL     1       1.223   3.969   1.639  0.00  0.00    -0.388 OA
ATOM     11  H   UNL     1       2.005   3.736   1.121  0.00  0.00    +0.210 HD
ENDBRANCH   9  10
BRANCH   9  12
ATOM     12  C   UNL     1       1.405   2.009   3.040  0.00  0.00    +0.192 C 
BRANCH  12  13
ATOM     13  O   UNL     1       0.224   1.414   2.497  0.00  0.00    -0.374 OA
BRANCH  13  19
ATOM     14  C   UNL     1      -0.019   1.526   0.010  0.00  0.00    +0.007 C 
ATOM     15  C   UNL     1       0.002  -0.004   0.002  0.00  0.00    -0.012 C 
ATOM     16  C   UNL     1      -1.427  -0.534   0.139  0.00  0.00    +0.004 C 
ATOM     17  C   UNL     1      -2.031  -0.040   1.454  0.00  0.00    +0.006 C 
ATOM     18  C   UNL     1      -1.185  -0.545   2.625  0.00  0.00    +0.020 C 
ATOM     19  C   UNL     1       0.244  -0.015   2.489  0.00  0.00    +0.122 C 
ATOM     20  C   UNL     1       0.848  -0.509   1.173  0.00  0.00    +0.035 C 
BRANCH  18  21
ATOM     21  C   UNL     1      -1.789  -0.050   3.941  0.00  0.00    -0.012 C 
ATOM     22  C   UNL     1      -3.218  -0.580   4.078  0.00  0.00    +0.007 C 
ATOM     23  C   UNL     1      -0.944  -0.555   5.112  0.00  0.00    +0.007 C 
ENDBRANCH  18  21
ENDBRANCH  13  19
ENDBRANCH  12  13
ENDBRANCH   9  12
ENDBRANCH   8   9
ENDBRANCH   1   8
BRANCH   4  24
ATOM     24  C   UNL     1       2.015   9.600   5.112  0.00  0.00    -0.007 C 
BRANCH  24  25
ATOM     25  C   UNL     1       0.878   9.949   6.037  0.00  0.00    -0.057 A 
ATOM     26  C   UNL     1       0.737   9.284   7.241  0.00  0.00    +0.002 A 
ATOM     27  C   UNL     1      -0.306   9.604   8.089  0.00  0.00    +0.000 A 
ATOM     28  C   UNL     1      -1.209  10.588   7.734  0.00  0.00    +0.000 A 
ATOM     29  C   UNL     1      -1.068  11.254   6.531  0.00  0.00    +0.000 A 
ATOM     30  C   UNL     1      -0.022  10.937   5.684  0.00  0.00    +0.002 A 
ENDBRANCH  24  25
BRANCH  24  31
ATOM     31  C   UNL     1       3.277  10.270   5.592  0.00  0.00    -0.057 A 
ATOM     32  C   UNL     1       4.002   9.714   6.629  0.00  0.00    +0.002 A 
ATOM     33  C   UNL     1       5.160  10.329   7.070  0.00  0.00    +0.000 A 
ATOM     34  C   UNL     1       5.591  11.499   6.473  0.00  0.00    +0.000 A 
ATOM     35  C   UNL     1       4.866  12.054   5.435  0.00  0.00    +0.000 A 
ATOM     36  C   UNL     1       3.711  11.437   4.992  0.00  0.00    +0.002 A 
ENDBRANCH  24  31
ENDBRANCH   4  24
TORSDOF 10
