REMARK  Name = ZINC49741064
REMARK  2 active torsions:
REMARK  status: ('A' for Active; 'I' for Inactive)
REMARK    1  A    between atoms: C_3  and  C_6
REMARK    2  A    between atoms: N_8  and  C_9
REMARK                            x       y       z     vdW  Elec       q    Type
REMARK                         _______ _______ _______ _____ _____    ______ ____
ROOT
ATOM      1  C   UNL     1       5.599  -0.652  -0.146  0.00  0.00    +0.034 A 
ATOM      2  C   UNL     1       6.374   0.501  -0.136  0.00  0.00    +0.025 A 
ATOM      3  C   UNL     1       7.746   0.416  -0.240  0.00  0.00    +0.025 A 
ATOM      4  C   UNL     1       8.367  -0.825  -0.355  0.00  0.00    +0.038 A 
ATOM      5  C   UNL     1       7.584  -1.975  -0.363  0.00  0.00    -0.009 A 
ATOM      6  C   UNL     1       6.214  -1.894  -0.254  0.00  0.00    +0.029 A 
ATOM      7  C   UNL     1       8.541  -3.128  -0.494  0.00  0.00    +0.074 C 
ATOM      8  C   UNL     1       8.253  -3.945  -1.761  0.00  0.00    +0.021 C 
ATOM      9  C   UNL     1       8.570  -5.405  -1.346  0.00  0.00    +0.001 C 
ATOM     10  C   UNL     1       8.068  -5.464   0.119  0.00  0.00    +0.001 C 
ATOM     11  C   UNL     1       8.432  -4.080   0.700  0.00  0.00    +0.021 C 
ATOM     12  C   UNL     1       9.905  -2.492  -0.560  0.00  0.00    +0.228 C 
ATOM     13  O   UNL     1      10.967  -3.068  -0.671  0.00  0.00    -0.274 OA
ATOM     14  N   UNL     1       9.719  -1.162  -0.474  0.00  0.00    -0.284 N 
ATOM     15  H   UNL     1      10.439  -0.512  -0.491  0.00  0.00    +0.155 HD
ENDROOT
BRANCH   1  18
ATOM     16  C   UNL     1       3.551   0.465  -0.614  0.00  0.00    +0.284 C 
ATOM     17  O   UNL     1       4.176   1.362  -1.150  0.00  0.00    -0.266 OA
ATOM     18  N   UNL     1       4.206  -0.564  -0.042  0.00  0.00    -0.279 N 
ATOM     19  H   UNL     1       3.712  -1.244   0.443  0.00  0.00    +0.155 HD
BRANCH  16  22
ATOM     20  C   UNL     1      -0.031   1.117  -0.882  0.00  0.00    +0.042 A 
ATOM     21  C   UNL     1       1.301   1.483  -1.133  0.00  0.00    +0.054 A 
ATOM     22  C   UNL     1       2.085   0.504  -0.593  0.00  0.00    +0.189 A 
ATOM     23  O   UNL     1       1.276  -0.420  -0.036  0.00  0.00    -0.458 OA
ATOM     24  C   UNL     1      -0.001  -0.054  -0.209  0.00  0.00    +0.196 A 
ENDBRANCH  16  22
ENDBRANCH   1  18
TORSDOF 2
