REMARK  Name = ZINC23858720
REMARK  7 active torsions:
REMARK  status: ('A' for Active; 'I' for Inactive)
REMARK    1  A    between atoms: C_1  and  N_2
REMARK    2  A    between atoms: C_10  and  C_12
REMARK    3  A    between atoms: C_12  and  C_14
REMARK    4  A    between atoms: C_12  and  N_28
REMARK    5  A    between atoms: C_14  and  N_15
REMARK    6  A    between atoms: C_16  and  C_18
REMARK    7  A    between atoms: C_22  and  N_24
REMARK                            x       y       z     vdW  Elec       q    Type
REMARK                         _______ _______ _______ _____ _____    ______ ____
ROOT
ATOM      1  C   UNL     1       2.809  -2.623   4.610  0.00  0.00    -0.020 C 
ENDROOT
BRANCH   1  11
ATOM      2  C   UNL     1       0.542  -4.202  -1.071  0.00  0.00    +0.129 C 
ATOM      3  N   UNL     1       1.192  -2.908  -0.823  0.00  0.00    -0.333 N 
ATOM      4  C   UNL     1       0.349  -1.802  -1.282  0.00  0.00    +0.105 C 
ATOM      5  C   UNL     1       1.063  -0.480  -0.972  0.00  0.00    +0.024 C 
ATOM      6  C   UNL     1       1.093  -0.305   0.548  0.00  0.00    +0.038 C 
ATOM      7  C   UNL     1       1.552  -1.586   1.197  0.00  0.00    -0.026 A 
ATOM      8  C   UNL     1       1.573  -2.789   0.513  0.00  0.00    +0.033 A 
ATOM      9  C   UNL     1       1.994  -3.945   1.172  0.00  0.00    +0.023 A 
ATOM     10  C   UNL     1       2.390  -3.891   2.491  0.00  0.00    +0.004 A 
ATOM     11  C   UNL     1       2.373  -2.685   3.168  0.00  0.00    -0.059 A 
ATOM     12  C   UNL     1       1.956  -1.539   2.522  0.00  0.00    +0.007 A 
ENDBRANCH   1  11
BRANCH   1  13
ATOM     13  N   UNL     1       2.186  -3.723   5.358  0.00  0.00    +0.385 N 
ATOM     14  C   UNL     1       2.492  -3.621   6.808  0.00  0.00    -0.078 C 
ATOM     15  C   UNL     1       1.381  -4.479   7.465  0.00  0.00    -0.020 C 
ATOM     16  C   UNL     1       0.144  -4.170   6.592  0.00  0.00    -0.020 C 
ATOM     17  C   UNL     1       0.712  -3.668   5.252  0.00  0.00    -0.078 C 
ATOM     18  H   UNL     1       2.587  -4.649   4.919  0.00  0.00    -0.081 HD
ENDBRANCH   1  13
BRANCH   1  19
ATOM     19  C   UNL     1       4.332  -2.751   4.688  0.00  0.00    +0.094 C 
BRANCH  19  20
ATOM     20  N   UNL     1       4.764  -2.592   6.079  0.00  0.00    -0.313 N 
ATOM     21  C   UNL     1       6.054  -2.800   6.411  0.00  0.00    +0.244 C 
ATOM     22  O   UNL     1       6.858  -3.119   5.557  0.00  0.00    -0.270 OA
ATOM     23  H   UNL     1       4.037  -2.303   6.851  0.00  0.00    +0.149 HD
BRANCH  21  24
ATOM     24  C   UNL     1       6.490  -2.639   7.814  0.00  0.00    +0.039 A 
ATOM     25  C   UNL     1       5.570  -2.266   8.796  0.00  0.00    +0.014 A 
ATOM     26  C   UNL     1       5.982  -2.123  10.104  0.00  0.00    +0.023 A 
ATOM     27  C   UNL     1       7.308  -2.337  10.443  0.00  0.00    +0.071 A 
ATOM     28  C   UNL     1       8.226  -2.702   9.472  0.00  0.00    +0.145 A 
ATOM     29  C   UNL     1       7.825  -2.854   8.162  0.00  0.00    +0.047 A 
ATOM     30 CL   UNL     1       7.821  -2.148  12.090  0.00  0.00    -0.081 Cl
BRANCH  28  31
ATOM     31  N   UNL     1       9.641  -2.930   9.843  0.00  0.00    +0.058 N 
ATOM     32  O   UNL     1      10.450  -3.251   8.990  0.00  0.00    -0.126 OA
ATOM     33  O   UNL     1       9.997  -2.796  11.000  0.00  0.00    -0.126 OA
ENDBRANCH  28  31
ENDBRANCH  21  24
ENDBRANCH  19  20
ENDBRANCH   1  19
TORSDOF 6
