REMARK  Name = ZINC06754884
REMARK  6 active torsions:
REMARK  status: ('A' for Active; 'I' for Inactive)
REMARK    1  A    between atoms: C_1  and  C_2
REMARK    2  A    between atoms: C_5  and  C_8
REMARK    3  A    between atoms: C_18  and  N_19
REMARK    4  A    between atoms: C_20  and  C_22
REMARK    5  A    between atoms: C_22  and  N_55
REMARK    6  A    between atoms: C_26  and  C_29
REMARK                            x       y       z     vdW  Elec       q    Type
REMARK                         _______ _______ _______ _____ _____    ______ ____
ROOT
ATOM      1  C   UNL     1       1.787  -2.192  -0.242  0.00  0.00    +0.087 A 
ATOM      2  C   UNL     1       1.522  -2.908  -1.440  0.00  0.00    +0.202 A 
ATOM      3  O   UNL     1       1.069  -2.351  -2.425  0.00  0.00    -0.286 OA
ATOM      4  C   UNL     1       1.816  -4.355  -1.443  0.00  0.00    +0.066 A 
ATOM      5  C   UNL     1       1.585  -5.134  -2.576  0.00  0.00    +0.035 A 
ATOM      6  C   UNL     1       1.872  -6.483  -2.545  0.00  0.00    +0.042 A 
ATOM      7  C   UNL     1       2.387  -7.061  -1.393  0.00  0.00    +0.023 A 
ATOM      8  C   UNL     1       2.619  -6.300  -0.267  0.00  0.00    +0.048 A 
ATOM      9  C   UNL     1       2.337  -4.939  -0.279  0.00  0.00    +0.141 A 
ATOM     10  O   UNL     1       2.558  -4.182   0.817  0.00  0.00    -0.440 OA
ATOM     11  C   UNL     1       2.306  -2.868   0.847  0.00  0.00    +0.204 A 
ATOM     12 CL   UNL     1       1.587  -7.460  -3.951  0.00  0.00    -0.084 Cl
ENDROOT
BRANCH   1  17
ATOM     13  C   UNL     1       0.738   3.461   0.067  0.00  0.00    +0.044 C 
ATOM     14  C   UNL     1       1.013   1.982  -0.014  0.00  0.00    -0.050 A 
ATOM     15  C   UNL     1      -0.035   1.095  -0.184  0.00  0.00    +0.004 A 
ATOM     16  C   UNL     1       0.210  -0.261  -0.259  0.00  0.00    +0.009 A 
ATOM     17  C   UNL     1       1.517  -0.737  -0.163  0.00  0.00    -0.009 A 
ATOM     18  C   UNL     1       2.570   0.162   0.008  0.00  0.00    +0.009 A 
ATOM     19  C   UNL     1       2.312   1.516   0.082  0.00  0.00    +0.004 A 
ENDBRANCH   1  17
BRANCH  11  20
ATOM     20  N   UNL     1       2.566  -2.167   2.002  0.00  0.00    -0.257 N 
ATOM     21  C   UNL     1       3.072  -2.804   3.076  0.00  0.00    +0.203 C 
ATOM     22  O   UNL     1       3.298  -3.994   3.025  0.00  0.00    -0.277 OA
ATOM     23  H   UNL     1       2.386  -1.215   2.042  0.00  0.00    +0.158 HD
BRANCH  21  24
ATOM     24  C   UNL     1       3.357  -2.037   4.342  0.00  0.00    +0.019 C 
BRANCH  24  31
ATOM     25  C   UNL     1       4.282  -2.251   6.569  0.00  0.00    -0.078 C 
ATOM     26  C   UNL     1       4.820  -3.255   7.590  0.00  0.00    -0.018 C 
ATOM     27  C   UNL     1       3.691  -4.199   8.015  0.00  0.00    -0.001 C 
ATOM     28  C   UNL     1       3.129  -4.900   6.776  0.00  0.00    -0.031 C 
ATOM     29  C   UNL     1       2.640  -3.848   5.778  0.00  0.00    -0.075 C 
ATOM     30  C   UNL     1       1.960  -5.800   7.184  0.00  0.00    +0.005 C 
ATOM     31  N   UNL     1       3.778  -2.988   5.391  0.00  0.00    +0.386 N 
ATOM     32  H   UNL     1       4.532  -3.580   5.021  0.00  0.00    -0.081 HD
ENDBRANCH  24  31
ENDBRANCH  21  24
ENDBRANCH  11  20
TORSDOF 4
