REMARK  Name = ZINC49601444
REMARK  14 active torsions:
REMARK  status: ('A' for Active; 'I' for Inactive)
REMARK    1  A    between atoms: C_1  and  C_2
REMARK    2  A    between atoms: C_2  and  O_4
REMARK    3  A    between atoms: O_4  and  C_5
REMARK    4  A    between atoms: C_9  and  C_43
REMARK    5  A    between atoms: C_9  and  C_44
REMARK    6  A    between atoms: C_12  and  C_42
REMARK    7  A    between atoms: C_16  and  C_41
REMARK    8  A    between atoms: C_18  and  O_40
REMARK    9  A    between atoms: C_23  and  O_36
REMARK   10  A    between atoms: C_25  and  O_27
REMARK   11  A    between atoms: O_27  and  C_28
REMARK   12  A    between atoms: C_28  and  C_30
REMARK   13  A    between atoms: O_36  and  C_37
REMARK   14  A    between atoms: C_37  and  C_39
REMARK                            x       y       z     vdW  Elec       q    Type
REMARK                         _______ _______ _______ _____ _____    ______ ____
ROOT
ATOM      1  C   UNL     1      -0.942  -2.124   0.387  0.00  0.00    +0.183 C 
ATOM      2  C   UNL     1      -0.637  -2.583  -1.043  0.00  0.00    +0.046 C 
ATOM      3  C   UNL     1      -1.688  -1.997  -1.980  0.00  0.00    +0.010 C 
ATOM      4  C   UNL     1      -3.102  -2.419  -1.580  0.00  0.00    -0.028 C 
ATOM      5  C   UNL     1      -3.374  -2.244  -0.100  0.00  0.00    +0.049 C 
ATOM      6  C   UNL     1      -2.277  -2.730   0.843  0.00  0.00    +0.018 C 
ATOM      7  C   UNL     1      -2.586  -2.301   2.270  0.00  0.00    -0.013 C 
ATOM      8  C   UNL     1      -2.562  -3.439   3.297  0.00  0.00    +0.008 C 
ATOM      9  C   UNL     1      -2.132  -2.798   4.643  0.00  0.00    +0.010 C 
ATOM     10  C   UNL     1      -1.812  -1.320   4.328  0.00  0.00    -0.006 C 
ATOM     11  C   UNL     1      -1.478  -1.347   2.806  0.00  0.00    +0.017 C 
ATOM     12  C   UNL     1      -3.097  -0.500   4.498  0.00  0.00    +0.121 C 
ATOM     13  C   UNL     1      -4.249  -1.244   3.825  0.00  0.00    +0.039 C 
ATOM     14  C   UNL     1      -3.903  -1.530   2.357  0.00  0.00    +0.043 C 
ATOM     15  C   UNL     1      -5.072  -2.278   1.731  0.00  0.00    +0.221 C 
ATOM     16  C   UNL     1      -4.748  -2.747   0.313  0.00  0.00    +0.222 C 
ATOM     17  C   UNL     1      -0.652  -0.779   5.168  0.00  0.00    +0.014 C 
ATOM     18  C   UNL     1      -2.149  -4.255   0.781  0.00  0.00    +0.016 C 
ATOM     19  C   UNL     1      -3.362  -3.836  -2.090  0.00  0.00    +0.011 C 
ATOM     20  C   UNL     1      -4.063  -1.481  -2.355  0.00  0.00    +0.011 C 
ENDROOT
BRANCH  12  21
ATOM     21  O   UNL     1      -3.383  -0.336   5.888  0.00  0.00    -0.391 OA
ATOM     22  H   UNL     1      -4.185   0.175   6.066  0.00  0.00    +0.210 HD
ENDBRANCH  12  21
BRANCH   1  23
ATOM     23  O   UNL     1      -1.036  -0.696   0.368  0.00  0.00    -0.461 OA
BRANCH  23  25
ATOM     24  C   UNL     1       0.078   1.498   0.563  0.00  0.00    +0.136 C 
ATOM     25  C   UNL     1       0.099  -0.009   0.570  0.00  0.00    +0.304 C 
ATOM     26  O   UNL     1       1.137  -0.598   0.756  0.00  0.00    -0.251 OA
ENDBRANCH  23  25
ENDBRANCH   1  23
BRANCH  16  27
ATOM     27  O   UNL     1      -4.879  -4.162   0.263  0.00  0.00    -0.454 OA
BRANCH  27  28
ATOM     28  C   UNL     1      -6.104  -4.654  -0.004  0.00  0.00    +0.340 C 
ATOM     29  O   UNL     1      -7.036  -3.897  -0.188  0.00  0.00    -0.245 OA
BRANCH  28  30
ATOM     30  C   UNL     1      -6.315  -6.115  -0.071  0.00  0.00    +0.059 A 
ATOM     31  C   UNL     1      -5.248  -6.988   0.146  0.00  0.00    +0.015 A 
ATOM     32  C   UNL     1      -5.452  -8.351   0.081  0.00  0.00    +0.001 A 
ATOM     33  C   UNL     1      -6.711  -8.853  -0.198  0.00  0.00    +0.000 A 
ATOM     34  C   UNL     1      -7.773  -7.993  -0.415  0.00  0.00    +0.001 A 
ATOM     35  C   UNL     1      -7.584  -6.628  -0.347  0.00  0.00    +0.015 A 
ENDBRANCH  28  30
ENDBRANCH  27  28
ENDBRANCH  16  27
BRANCH  15  36
ATOM     36  O   UNL     1      -5.451  -3.398   2.526  0.00  0.00    -0.457 OA
BRANCH  36  37
ATOM     37  C   UNL     1      -6.743  -3.762   2.489  0.00  0.00    +0.304 C 
ATOM     38  O   UNL     1      -7.524  -3.148   1.802  0.00  0.00    -0.251 OA
ATOM     39  C   UNL     1      -7.218  -4.937   3.304  0.00  0.00    +0.136 C 
ENDBRANCH  36  37
ENDBRANCH  15  36
TORSDOF 8
