REMARK  Name = ZINC40919729
REMARK  11 active torsions:
REMARK  status: ('A' for Active; 'I' for Inactive)
REMARK    1  A    between atoms: C_1  and  C_2
REMARK    2  A    between atoms: C_2  and  O_3
REMARK    3  A    between atoms: O_3  and  C_4
REMARK    4  A    between atoms: C_6  and  C_19
REMARK    5  A    between atoms: C_9  and  O_10
REMARK    6  A    between atoms: O_10  and  C_11
REMARK    7  A    between atoms: C_11  and  C_12
REMARK    8  A    between atoms: C_21  and  C_30
REMARK    9  A    between atoms: C_22  and  C_29
REMARK   10  A    between atoms: C_30  and  O_32
REMARK   11  A    between atoms: O_32  and  C_33
REMARK                            x       y       z     vdW  Elec       q    Type
REMARK                         _______ _______ _______ _____ _____    ______ ____
ROOT
ATOM      1  C   UNL     1       0.736  -1.730  -1.097  0.00  0.00    +0.162 A 
ATOM      2  C   UNL     1       0.123  -2.641  -0.253  0.00  0.00    +0.055 A 
ATOM      3  C   UNL     1       0.325  -3.996  -0.434  0.00  0.00    -0.015 A 
ATOM      4  C   UNL     1       1.140  -4.446  -1.457  0.00  0.00    +0.010 A 
ATOM      5  C   UNL     1       1.756  -3.542  -2.302  0.00  0.00    +0.050 A 
ATOM      6  C   UNL     1       1.552  -2.182  -2.130  0.00  0.00    +0.162 A 
ENDROOT
BRANCH   3   7
ATOM      7  C   UNL     1      -0.343  -4.986   0.485  0.00  0.00    +0.181 C 
ATOM      8  C   UNL     1       0.706  -5.807   1.188  0.00  0.00    +0.082 C 
ATOM      9  C   UNL     1       0.939  -7.098   0.903  0.00  0.00    +0.020 C 
ATOM     10  N   UNL     1       0.224  -7.779  -0.051  0.00  0.00    -0.286 N 
ATOM     11  C   UNL     1      -0.924  -7.173  -0.540  0.00  0.00    +0.240 A 
ATOM     12  N   UNL     1      -1.206  -5.867  -0.293  0.00  0.00    -0.201 N 
ATOM     13  N   UNL     1      -2.423  -5.620  -0.926  0.00  0.00    -0.042 NA
ATOM     14  N   UNL     1      -2.776  -6.730  -1.488  0.00  0.00    -0.021 NA
ATOM     15  N   UNL     1      -1.897  -7.647  -1.265  0.00  0.00    -0.092 NA
ATOM     16  C   UNL     1       2.023  -7.825   1.657  0.00  0.00    +0.061 C 
ATOM     17  H   UNL     1       0.510  -8.649  -0.370  0.00  0.00    +0.155 HD
BRANCH   8  18
ATOM     18  C   UNL     1       1.483  -5.189   2.193  0.00  0.00    +0.339 C 
ATOM     19  O   UNL     1       1.034  -5.064   3.317  0.00  0.00    -0.245 OA
BRANCH  18  20
ATOM     20  O   UNL     1       2.722  -4.737   1.907  0.00  0.00    -0.465 OA
ATOM     21  C   UNL     1       3.450  -4.122   2.971  0.00  0.00    +0.280 C 
ENDBRANCH  18  20
ENDBRANCH   8  18
ENDBRANCH   3   7
BRANCH   1  22
ATOM     22  O   UNL     1       0.537  -0.396  -0.921  0.00  0.00    -0.489 OA
BRANCH  22  24
ATOM     23  C   UNL     1      -0.415   1.522   0.200  0.00  0.00    +0.048 C 
ATOM     24  C   UNL     1      -0.312  -0.004   0.160  0.00  0.00    +0.226 C 
ENDBRANCH  22  24
ENDBRANCH   1  22
BRANCH   6  25
ATOM     25  O   UNL     1       2.152  -1.292  -2.965  0.00  0.00    -0.484 OA
BRANCH  25  26
ATOM     26  C   UNL     1       2.975  -1.829  -4.002  0.00  0.00    +0.267 C 
BRANCH  26  27
ATOM     27  C   UNL     1       3.551  -0.702  -4.820  0.00  0.00    +0.025 A 
ATOM     28  C   UNL     1       3.250   0.609  -4.500  0.00  0.00    +0.010 A 
ATOM     29  C   UNL     1       3.779   1.643  -5.250  0.00  0.00    +0.001 A 
ATOM     30  C   UNL     1       4.608   1.368  -6.321  0.00  0.00    +0.003 A 
ATOM     31  C   UNL     1       4.911   0.059  -6.643  0.00  0.00    +0.039 A 
ATOM     32  C   UNL     1       4.386  -0.978  -5.889  0.00  0.00    +0.130 A 
ATOM     33  F   UNL     1       4.685  -2.258  -6.200  0.00  0.00    -0.205 F 
ENDBRANCH  26  27
ENDBRANCH  25  26
ENDBRANCH   6  25
TORSDOF 8
