REMARK  Name = ZINC44082711
REMARK  8 active torsions:
REMARK  status: ('A' for Active; 'I' for Inactive)
REMARK    1  A    between atoms: C_1  and  C_2
REMARK    2  A    between atoms: C_2  and  C_4
REMARK    3  A    between atoms: C_2  and  N_14
REMARK    4  A    between atoms: N_17  and  C_18
REMARK    5  A    between atoms: C_22  and  N_24
REMARK    6  A    between atoms: C_25  and  C_27
REMARK    7  A    between atoms: C_27  and  C_28
REMARK    8  A    between atoms: C_27  and  C_29
REMARK                            x       y       z     vdW  Elec       q    Type
REMARK                         _______ _______ _______ _____ _____    ______ ____
ROOT
ATOM      1  N   UNL     1      -1.395  -0.509   0.020  0.00  0.00    -0.293 N 
ATOM      2  C   UNL     1      -2.072  -0.637  -1.139  0.00  0.00    +0.304 C 
ATOM      3  O   UNL     1      -1.546  -0.321  -2.188  0.00  0.00    -0.252 OA
ATOM      4  N   UNL     1      -3.333  -1.114  -1.134  0.00  0.00    -0.269 N 
ATOM      5  H   UNL     1      -1.815  -0.761   0.857  0.00  0.00    +0.151 HD
ATOM      6  H   UNL     1      -3.729  -1.429  -0.306  0.00  0.00    +0.156 HD
ENDROOT
BRANCH   4   7
ATOM      7  C   UNL     1      -4.070  -1.156  -2.322  0.00  0.00    +0.037 A 
ATOM      8  C   UNL     1      -5.439  -0.921  -2.300  0.00  0.00    +0.023 A 
ATOM      9  C   UNL     1      -6.168  -0.963  -3.473  0.00  0.00    +0.004 A 
ATOM     10  C   UNL     1      -5.538  -1.238  -4.672  0.00  0.00    +0.023 A 
ATOM     11  C   UNL     1      -4.169  -1.474  -4.701  0.00  0.00    +0.035 A 
ATOM     12  C   UNL     1      -3.434  -1.427  -3.525  0.00  0.00    +0.046 A 
BRANCH  11  13
ATOM     13  N   UNL     1      -3.532  -1.754  -5.915  0.00  0.00    -0.285 N 
ATOM     14  C   UNL     1      -3.949  -1.156  -7.048  0.00  0.00    +0.220 C 
ATOM     15  O   UNL     1      -4.929  -0.441  -7.031  0.00  0.00    -0.275 OA
ATOM     16  H   UNL     1      -2.790  -2.378  -5.940  0.00  0.00    +0.155 HD
BRANCH  14  17
ATOM     17  C   UNL     1      -3.199  -1.376  -8.336  0.00  0.00    +0.069 C 
ATOM     18  C   UNL     1      -3.204  -2.867  -8.681  0.00  0.00    +0.017 C 
ATOM     19  C   UNL     1      -3.876  -0.590  -9.461  0.00  0.00    +0.017 C 
ENDBRANCH  14  17
ENDBRANCH  11  13
ENDBRANCH   4   7
BRANCH   1  21
ATOM     20  C   UNL     1      -0.059   1.539   0.035  0.00  0.00    +0.033 C 
ATOM     21  C   UNL     1      -0.025   0.010   0.014  0.00  0.00    +0.102 C 
BRANCH  21  22
ATOM     22  C   UNL     1       0.707  -0.493   1.231  0.00  0.00    -0.024 A 
ATOM     23  C   UNL     1       0.056  -0.564   2.448  0.00  0.00    +0.009 A 
ATOM     24  C   UNL     1       0.725  -1.024   3.567  0.00  0.00    +0.050 A 
ATOM     25  C   UNL     1       2.052  -1.416   3.470  0.00  0.00    +0.162 A 
ATOM     26  C   UNL     1       2.706  -1.347   2.246  0.00  0.00    +0.162 A 
ATOM     27  C   UNL     1       2.027  -0.889   1.127  0.00  0.00    +0.055 A 
ATOM     28  O   UNL     1       4.005  -1.734   2.128  0.00  0.00    -0.485 OA
ATOM     29  C   UNL     1       4.758  -1.840   3.341  0.00  0.00    +0.270 C 
ATOM     30  C   UNL     1       3.909  -2.599   4.369  0.00  0.00    +0.270 C 
ATOM     31  O   UNL     1       2.699  -1.863   4.582  0.00  0.00    -0.485 OA
ENDBRANCH  21  22
ENDBRANCH   1  21
TORSDOF 5
