REMARK  Name = ZINC13132026
REMARK  2 active torsions:
REMARK  status: ('A' for Active; 'I' for Inactive)
REMARK    1  A    between atoms: C_6  and  C_7
REMARK    2  A    between atoms: C_10  and  C_19
REMARK                            x       y       z     vdW  Elec       q    Type
REMARK                         _______ _______ _______ _____ _____    ______ ____
ROOT
ATOM      1  C   UNL     1      -1.293  -0.775   0.010  0.00  0.00    +0.106 C 
ATOM      2  C   UNL     1      -1.589  -1.268   1.431  0.00  0.00    +0.058 C 
ATOM      3  C   UNL     1      -0.422  -2.127   1.934  0.00  0.00    +0.143 C 
ATOM      4  N   UNL     1      -0.089  -3.118   0.911  0.00  0.00    -0.224 N 
ATOM      5  C   UNL     1      -0.450  -3.021  -0.391  0.00  0.00    +0.216 A 
ATOM      6  N   UNL     1       0.006  -4.072  -1.019  0.00  0.00    -0.180 NA
ATOM      7  C   UNL     1       0.662  -4.860  -0.154  0.00  0.00    +0.233 A 
ATOM      8  N   UNL     1       0.626  -4.309   1.039  0.00  0.00    -0.132 NA
ATOM      9  N   UNL     1       1.283  -6.069  -0.470  0.00  0.00    -0.326 N 
ATOM     10  N   UNL     1      -1.180  -1.943  -0.884  0.00  0.00    -0.307 N 
ATOM     11  H   UNL     1       1.261  -6.402  -1.380  0.00  0.00    +0.145 HD
ATOM     12  H   UNL     1       1.737  -6.576   0.222  0.00  0.00    +0.145 HD
ATOM     13  H   UNL     1      -1.592  -1.958  -1.762  0.00  0.00    +0.149 HD
ENDROOT
BRANCH   1  19
ATOM     14  C   UNL     1      -0.017   1.378   0.010  0.00  0.00    +0.008 A 
ATOM     15  C   UNL     1       1.170   2.086   0.002  0.00  0.00    +0.038 A 
ATOM     16  C   UNL     1       2.379   1.410  -0.013  0.00  0.00    +0.123 A 
ATOM     17  C   UNL     1       2.396   0.026  -0.021  0.00  0.00    +0.038 A 
ATOM     18  C   UNL     1       1.208  -0.680  -0.013  0.00  0.00    +0.008 A 
ATOM     19  C   UNL     1       0.002  -0.004   0.002  0.00  0.00    -0.027 A 
ATOM     20  F   UNL     1       3.540   2.101  -0.021  0.00  0.00    -0.205 F 
ENDBRANCH   1  19
BRANCH   3  21
ATOM     21  C   UNL     1      -0.822  -2.826   3.208  0.00  0.00    -0.023 A 
ATOM     22  C   UNL     1      -1.895  -3.698   3.210  0.00  0.00    +0.007 A 
ATOM     23  C   UNL     1      -2.262  -4.340   4.377  0.00  0.00    +0.020 A 
ATOM     24  C   UNL     1      -1.556  -4.110   5.545  0.00  0.00    +0.041 A 
ATOM     25  C   UNL     1      -0.482  -3.237   5.542  0.00  0.00    +0.020 A 
ATOM     26  C   UNL     1      -0.112  -2.600   4.373  0.00  0.00    +0.007 A 
ATOM     27 CL   UNL     1      -2.017  -4.915   7.012  0.00  0.00    -0.084 Cl
ENDBRANCH   3  21
TORSDOF 2
