REMARK  Name = ZINC11911227
REMARK  7 active torsions:
REMARK  status: ('A' for Active; 'I' for Inactive)
REMARK    1  A    between atoms: C_1  and  C_2
REMARK    2  A    between atoms: C_2  and  C_3
REMARK    3  A    between atoms: C_3  and  C_20
REMARK    4  A    between atoms: N_6  and  C_10
REMARK    5  A    between atoms: C_10  and  C_11
REMARK    6  A    between atoms: C_25  and  C_26
REMARK    7  A    between atoms: C_25  and  N_67
REMARK                            x       y       z     vdW  Elec       q    Type
REMARK                         _______ _______ _______ _____ _____    ______ ____
ROOT
ATOM      1  C   UNL     1       3.333  -0.048  -3.830  0.00  0.00    +0.115 C 
ATOM      2  C   UNL     1       2.588  -0.199  -2.519  0.00  0.00    +0.247 C 
ATOM      3  O   UNL     1       1.877  -1.121  -2.182  0.00  0.00    -0.273 OA
ATOM      4  N   UNL     1       2.878   0.907  -1.805  0.00  0.00    -0.220 N 
ATOM      5  C   UNL     1       3.701   1.724  -2.474  0.00  0.00    +0.310 C 
ATOM      6  O   UNL     1       4.107   2.782  -2.034  0.00  0.00    -0.252 OA
ATOM      7  N   UNL     1       4.028   1.243  -3.687  0.00  0.00    -0.285 N 
ATOM      8  H   UNL     1       4.607   1.665  -4.340  0.00  0.00    +0.151 HD
ENDROOT
BRANCH   1   9
ATOM      9  C   UNL     1       4.341  -1.185  -4.005  0.00  0.00    +0.018 C 
ATOM     10  C   UNL     1       3.594  -2.498  -4.255  0.00  0.00    -0.013 C 
ATOM     11  C   UNL     1       4.604  -3.642  -4.367  0.00  0.00    -0.078 C 
ATOM     12  C   UNL     1       6.150  -2.498  -2.893  0.00  0.00    -0.078 C 
ATOM     13  C   UNL     1       5.186  -1.320  -2.735  0.00  0.00    -0.013 C 
ATOM     14  N   UNL     1       5.368  -3.734  -3.104  0.00  0.00    +0.382 N 
ATOM     15  H   UNL     1       4.710  -3.849  -2.325  0.00  0.00    -0.081 HD
BRANCH  14  16
ATOM     16  C   UNL     1       6.271  -4.902  -3.146  0.00  0.00    -0.042 C 
BRANCH  16  17
ATOM     17  C   UNL     1       5.467  -6.133  -3.476  0.00  0.00    -0.056 A 
ATOM     18  C   UNL     1       5.566  -6.705  -4.707  0.00  0.00    +0.002 A 
ATOM     19  C   UNL     1       4.835  -7.848  -5.028  0.00  0.00    +0.001 A 
ATOM     20  C   UNL     1       3.992  -8.418  -4.124  0.00  0.00    +0.008 A 
ATOM     21  C   UNL     1       3.860  -7.852  -2.844  0.00  0.00    -0.018 A 
ATOM     22  C   UNL     1       4.608  -6.694  -2.516  0.00  0.00    -0.017 A 
ATOM     23  C   UNL     1       4.475  -6.128  -1.236  0.00  0.00    +0.009 A 
ATOM     24  C   UNL     1       3.632  -6.697  -0.332  0.00  0.00    +0.001 A 
ATOM     25  C   UNL     1       2.896  -7.836  -0.656  0.00  0.00    +0.001 A 
ATOM     26  C   UNL     1       2.999  -8.411  -1.885  0.00  0.00    +0.008 A 
ENDBRANCH  16  17
ENDBRANCH  14  16
ENDBRANCH   1   9
BRANCH   1  28
ATOM     27  C   UNL     1       1.409   1.180  -4.846  0.00  0.00    +0.006 C 
ATOM     28  C   UNL     1       2.359  -0.007  -5.010  0.00  0.00    +0.032 C 
ENDBRANCH   1  28
BRANCH   4  29
ATOM     29  C   UNL     1       2.362   1.179  -0.461  0.00  0.00    +0.153 C 
BRANCH  29  30
ATOM     30  C   UNL     1       1.064   1.938  -0.566  0.00  0.00    -0.026 A 
ATOM     31  C   UNL     1       1.073   3.320  -0.590  0.00  0.00    +0.009 A 
ATOM     32  C   UNL     1      -0.114   4.021  -0.686  0.00  0.00    +0.050 A 
ATOM     33  C   UNL     1      -1.318   3.338  -0.758  0.00  0.00    +0.166 A 
ATOM     34  C   UNL     1      -1.327   1.946  -0.738  0.00  0.00    +0.167 A 
ATOM     35  C   UNL     1      -0.133   1.250  -0.636  0.00  0.00    +0.054 A 
ATOM     36  O   UNL     1      -2.620   1.517  -0.815  0.00  0.00    -0.453 OA
ATOM     37  C   UNL     1      -3.428   2.661  -0.480  0.00  0.00    +0.466 C 
ATOM     38  O   UNL     1      -2.605   3.781  -0.857  0.00  0.00    -0.453 OA
ENDBRANCH  29  30
ENDBRANCH   4  29
TORSDOF 6
