REMARK  Name = ZINC10795056
REMARK  13 active torsions:
REMARK  status: ('A' for Active; 'I' for Inactive)
REMARK    1  A    between atoms: C_1  and  C_2
REMARK    2  A    between atoms: C_2  and  O_3
REMARK    3  A    between atoms: O_3  and  C_4
REMARK    4  A    between atoms: C_4  and  C_6
REMARK    5  A    between atoms: C_10  and  N_11
REMARK    6  A    between atoms: C_12  and  C_14
REMARK    7  A    between atoms: C_14  and  C_16
REMARK    8  A    between atoms: C_14  and  O_17
REMARK    9  A    between atoms: O_17  and  C_18
REMARK   10  A    between atoms: C_18  and  C_20
REMARK   11  A    between atoms: C_23  and  S_26
REMARK   12  A    between atoms: S_26  and  N_29
REMARK   13  A    between atoms: C_31  and  C_35
REMARK                            x       y       z     vdW  Elec       q    Type
REMARK                         _______ _______ _______ _____ _____    ______ ____
ROOT
ATOM      1  N   UNL     1       4.611   0.897   4.419  0.00  0.00    -0.276 N 
ATOM      2  C   UNL     1       5.894   1.106   4.066  0.00  0.00    +0.258 C 
ATOM      3  O   UNL     1       6.169   1.401   2.922  0.00  0.00    -0.271 OA
ATOM      4  H   UNL     1       4.391   0.661   5.334  0.00  0.00    +0.155 HD
ENDROOT
BRANCH   1   9
ATOM      5  C   UNL     1       2.236   0.845   3.643  0.00  0.00    +0.091 A 
ATOM      6  C   UNL     1       1.387   1.034   2.479  0.00  0.00    -0.021 A 
ATOM      7  C   UNL     1       2.035   1.365   1.342  0.00  0.00    -0.004 A 
ATOM      8  S   UNL     1       3.745   1.427   1.796  0.00  0.00    -0.077 S 
ATOM      9  C   UNL     1       3.604   1.019   3.474  0.00  0.00    +0.086 A 
ATOM     10  C   UNL     1       1.427   1.620  -0.003  0.00  0.00    +0.046 C 
ATOM     11  C   UNL     1      -0.013   1.086   0.008  0.00  0.00    -0.009 C 
ATOM     12  C   UNL     1      -0.714   1.583   1.276  0.00  0.00    +0.008 C 
ATOM     13  C   UNL     1      -0.129   0.881   2.503  0.00  0.00    +0.037 C 
ATOM     14  C   UNL     1      -0.758   1.595  -1.227  0.00  0.00    +0.008 C 
BRANCH   5  15
ATOM     15  C   UNL     1       1.672   0.484   4.945  0.00  0.00    +0.342 C 
ATOM     16  O   UNL     1       1.337   1.355   5.726  0.00  0.00    -0.245 OA
BRANCH  15  17
ATOM     17  O   UNL     1       1.523  -0.814   5.279  0.00  0.00    -0.461 OA
BRANCH  17  19
ATOM     18  C   UNL     1       0.865  -2.612   6.785  0.00  0.00    +0.048 C 
ATOM     19  C   UNL     1       0.956  -1.098   6.586  0.00  0.00    +0.229 C 
ENDBRANCH  17  19
ENDBRANCH  15  17
ENDBRANCH   5  15
ENDBRANCH   1   9
BRANCH   2  20
ATOM     20  C   UNL     1       6.989   0.974   5.093  0.00  0.00    +0.259 C 
ATOM     21  C   UNL     1       7.070  -0.478   5.568  0.00  0.00    +0.062 C 
BRANCH  20  22
ATOM     22  O   UNL     1       8.258   1.361   4.501  0.00  0.00    -0.449 OA
BRANCH  22  23
ATOM     23  C   UNL     1       9.179   1.896   5.325  0.00  0.00    +0.340 C 
ATOM     24  O   UNL     1       8.930   2.036   6.505  0.00  0.00    -0.245 OA
BRANCH  23  25
ATOM     25  C   UNL     1      10.492   2.313   4.793  0.00  0.00    +0.059 A 
ATOM     26  C   UNL     1      10.784   2.148   3.437  0.00  0.00    +0.017 A 
ATOM     27  C   UNL     1      12.011   2.545   2.946  0.00  0.00    +0.029 A 
ATOM     28  C   UNL     1      12.955   3.095   3.795  0.00  0.00    +0.105 A 
ATOM     29  C   UNL     1      12.674   3.256   5.140  0.00  0.00    +0.029 A 
ATOM     30  C   UNL     1      11.450   2.868   5.644  0.00  0.00    +0.017 A 
BRANCH  28  31
ATOM     31  S   UNL     1      14.521   3.593   3.160  0.00  0.00    +0.056 S 
ATOM     32  O   UNL     1      14.337   3.841   1.773  0.00  0.00    -0.153 OA
ATOM     33  O   UNL     1      15.025   4.579   4.050  0.00  0.00    -0.153 OA
BRANCH  31  34
ATOM     34  N   UNL     1      15.534   2.288   3.276  0.00  0.00    -0.204 NA
ATOM     35  H   UNL     1      15.208   1.452   3.645  0.00  0.00    +0.144 HD
ATOM     36  H   UNL     1      16.453   2.359   2.975  0.00  0.00    +0.144 HD
ENDBRANCH  31  34
ENDBRANCH  28  31
ENDBRANCH  23  25
ENDBRANCH  22  23
ENDBRANCH  20  22
ENDBRANCH   2  20
TORSDOF 10
