REMARK  Name = ZINC55161754
REMARK  4 active torsions:
REMARK  status: ('A' for Active; 'I' for Inactive)
REMARK    1  A    between atoms: C_9  and  O_23
REMARK    2  A    between atoms: C_10  and  C_11
REMARK    3  A    between atoms: C_20  and  N_21
REMARK    4  A    between atoms: C_20  and  O_22
REMARK                            x       y       z     vdW  Elec       q    Type
REMARK                         _______ _______ _______ _____ _____    ______ ____
ROOT
ATOM      1  C   UNL     1       4.968   0.160  -0.152  0.00  0.00    +0.018 C 
ATOM      2  C   UNL     1       5.096   1.526  -0.013  0.00  0.00    -0.010 A 
ATOM      3  C   UNL     1       3.976   2.388  -0.004  0.00  0.00    +0.009 A 
ATOM      4  C   UNL     1       4.139   3.701   0.283  0.00  0.00    +0.001 A 
ATOM      5  C   UNL     1       5.388   4.262   0.578  0.00  0.00    +0.001 A 
ATOM      6  C   UNL     1       6.530   3.535   0.524  0.00  0.00    +0.008 A 
ATOM      7  C   UNL     1       6.442   2.120   0.152  0.00  0.00    -0.021 A 
ATOM      8  C   UNL     1       7.540   1.378  -0.100  0.00  0.00    -0.014 C 
ATOM      9  C   UNL     1       7.408  -0.022  -0.637  0.00  0.00    +0.083 C 
ATOM     10  C   UNL     1       6.186  -0.722  -0.045  0.00  0.00    +0.146 C 
ENDROOT
BRANCH   1  20
ATOM     11  C   UNL     1       1.814  -0.168  -4.173  0.00  0.00    +0.001 A 
ATOM     12  C   UNL     1       3.066   0.409  -3.981  0.00  0.00    +0.001 A 
ATOM     13  C   UNL     1       3.689   0.341  -2.769  0.00  0.00    +0.009 A 
ATOM     14  C   UNL     1       3.063  -0.317  -1.705  0.00  0.00    -0.007 A 
ATOM     15  C   UNL     1       1.789  -0.905  -1.897  0.00  0.00    -0.017 A 
ATOM     16  C   UNL     1       1.176  -0.816  -3.159  0.00  0.00    +0.008 A 
ATOM     17  C   UNL     1       1.161  -1.565  -0.826  0.00  0.00    +0.012 A 
ATOM     18  C   UNL     1       1.761  -1.647   0.393  0.00  0.00    +0.046 A 
ATOM     19  C   UNL     1       3.012  -1.086   0.634  0.00  0.00    +0.125 A 
ATOM     20  C   UNL     1       3.696  -0.413  -0.388  0.00  0.00    +0.032 A 
BRANCH  19  21
ATOM     21  O   UNL     1       3.572  -1.191   1.866  0.00  0.00    -0.506 OA
ATOM     22  H   UNL     1       4.056  -2.016   2.009  0.00  0.00    +0.292 HD
ENDBRANCH  19  21
ENDBRANCH   1  20
BRANCH  10  23
ATOM     23  N   UNL     1       5.943  -1.972  -0.777  0.00  0.00    -0.299 NA
ATOM     24  H   UNL     1       6.775  -2.542  -0.805  0.00  0.00    +0.121 HD
ATOM     25  H   UNL     1       5.170  -2.481  -0.376  0.00  0.00    +0.121 HD
ENDBRANCH  10  23
BRANCH  10  26
ATOM     26  O   UNL     1       6.430  -1.022   1.330  0.00  0.00    -0.370 OA
ATOM     27  H   UNL     1       7.200  -1.587   1.478  0.00  0.00    +0.212 HD
ENDBRANCH  10  26
TORSDOF 4
