REMARK  Name = ZINC09912352
REMARK  8 active torsions:
REMARK  status: ('A' for Active; 'I' for Inactive)
REMARK    1  A    between atoms: C_1  and  C_2
REMARK    2  A    between atoms: C_2  and  C_3
REMARK    3  A    between atoms: C_2  and  C_4
REMARK    4  A    between atoms: C_4  and  C_5
REMARK    5  A    between atoms: C_5  and  C_7
REMARK    6  A    between atoms: C_5  and  N_26
REMARK    7  A    between atoms: C_14  and  C_15
REMARK    8  A    between atoms: C_14  and  N_62
REMARK                            x       y       z     vdW  Elec       q    Type
REMARK                         _______ _______ _______ _____ _____    ______ ____
ROOT
ATOM      1  C   UNL     1      -0.772   1.995  -1.070  0.00  0.00    +0.236 C 
ATOM      2  O   UNL     1      -1.088   0.971  -1.637  0.00  0.00    -0.274 OA
ATOM      3  N   UNL     1      -1.107   3.189  -1.599  0.00  0.00    -0.303 N 
ATOM      4  C   UNL     1      -0.642   4.443  -0.987  0.00  0.00    +0.089 C 
ATOM      5  C   UNL     1       0.006   5.303  -2.083  0.00  0.00    -0.059 C 
ATOM      6  C   UNL     1      -1.255   4.179  -3.822  0.00  0.00    -0.059 C 
ATOM      7  C   UNL     1      -1.951   3.272  -2.800  0.00  0.00    +0.089 C 
ATOM      8  N   UNL     1      -0.967   5.481  -3.182  0.00  0.00    +0.386 N 
ATOM      9  H   UNL     1      -1.839   5.862  -2.796  0.00  0.00    -0.081 HD
ENDROOT
BRANCH   1  10
ATOM     10  C   UNL     1      -0.007   1.933   0.227  0.00  0.00    +0.171 C 
BRANCH  10  11
ATOM     11  N   UNL     1      -0.205   0.622   0.849  0.00  0.00    -0.222 N 
ATOM     12  C   UNL     1       0.129  -0.550   0.278  0.00  0.00    +0.254 C 
ATOM     13  O   UNL     1       0.634  -0.686  -0.818  0.00  0.00    -0.270 OA
ATOM     14  C   UNL     1      -0.221  -1.644   1.209  0.00  0.00    +0.049 A 
ATOM     15  C   UNL     1      -0.109  -3.024   1.165  0.00  0.00    +0.014 A 
ATOM     16  C   UNL     1      -0.551  -3.784   2.237  0.00  0.00    +0.001 A 
ATOM     17  C   UNL     1      -1.101  -3.173   3.348  0.00  0.00    +0.001 A 
ATOM     18  C   UNL     1      -1.219  -1.793   3.406  0.00  0.00    +0.014 A 
ATOM     19  C   UNL     1      -0.781  -1.021   2.342  0.00  0.00    +0.049 A 
ATOM     20  C   UNL     1      -0.750   0.430   2.064  0.00  0.00    +0.254 C 
ATOM     21  O   UNL     1      -1.148   1.303   2.808  0.00  0.00    -0.270 OA
ENDBRANCH  10  11
BRANCH  10  22
ATOM     22  C   UNL     1       1.483   2.147  -0.050  0.00  0.00    +0.035 C 
BRANCH  22  24
ATOM     23  C   UNL     1       3.749   2.270   0.995  0.00  0.00    +0.007 C 
ATOM     24  C   UNL     1       2.247   2.181   1.275  0.00  0.00    -0.015 C 
ATOM     25  C   UNL     1       1.807   3.401   2.087  0.00  0.00    +0.007 C 
ENDBRANCH  22  24
ENDBRANCH  10  22
ENDBRANCH   1  10
BRANCH   8  26
ATOM     26  C   UNL     1      -0.430   6.426  -4.183  0.00  0.00    -0.003 C 
BRANCH  26  27
ATOM     27  C   UNL     1      -1.530   6.786  -5.148  0.00  0.00    +0.094 A 
ATOM     28  N   UNL     1      -1.223   7.567  -6.216  0.00  0.00    -0.311 N 
ATOM     29  H   UNL     1      -0.315   7.882  -6.347  0.00  0.00    +0.170 HD
ATOM     30  C   UNL     1      -2.196   7.902  -7.097  0.00  0.00    +0.266 A 
ATOM     31  O   UNL     1      -1.953   8.602  -8.065  0.00  0.00    -0.267 OA
ATOM     32  C   UNL     1      -3.486   7.423  -6.864  0.00  0.00    +0.102 A 
ATOM     33  C   UNL     1      -3.778   6.616  -5.750  0.00  0.00    +0.085 A 
ATOM     34  N   UNL     1      -2.721   6.331  -4.921  0.00  0.00    -0.235 NA
ATOM     35  C   UNL     1      -5.113   6.205  -5.637  0.00  0.00    +0.036 A 
ATOM     36  C   UNL     1      -6.022   6.585  -6.560  0.00  0.00    +0.048 A 
ATOM     37  S   UNL     1      -5.050   7.572  -7.687  0.00  0.00    -0.090 S 
ENDBRANCH  26  27
ENDBRANCH   8  26
TORSDOF 6
