REMARK  Name = ZINC36342075
REMARK  19 active torsions:
REMARK  status: ('A' for Active; 'I' for Inactive)
REMARK    1  A    between atoms: C_1  and  C_2
REMARK    2  A    between atoms: C_2  and  C_3
REMARK    3  A    between atoms: C_3  and  C_5
REMARK    4  A    between atoms: C_3  and  N_6
REMARK    5  A    between atoms: N_6  and  C_7
REMARK    6  A    between atoms: N_6  and  C_28
REMARK    7  A    between atoms: C_7  and  C_8
REMARK    8  A    between atoms: C_9  and  C_27
REMARK    9  A    between atoms: N_11  and  C_21
REMARK   10  A    between atoms: C_12  and  O_13
REMARK   11  A    between atoms: O_13  and  C_14
REMARK   12  A    between atoms: C_28  and  C_29
REMARK   13  A    between atoms: C_29  and  C_31
REMARK   14  A    between atoms: C_29  and  O_37
REMARK   15  A    between atoms: C_31  and  O_32
REMARK   16  A    between atoms: O_32  and  C_33
REMARK   17  A    between atoms: C_33  and  C_34
REMARK   18  A    between atoms: C_33  and  C_35
REMARK   19  A    between atoms: C_33  and  C_36
REMARK                            x       y       z     vdW  Elec       q    Type
REMARK                         _______ _______ _______ _____ _____    ______ ____
ROOT
ATOM      1  C   UNL     1       3.491  -1.863  -1.989  0.00  0.00    +0.021 A 
ATOM      2  C   UNL     1       4.456  -2.342  -1.098  0.00  0.00    +0.065 A 
ATOM      3  N   UNL     1       4.291  -3.633  -0.962  0.00  0.00    -0.168 NA
ATOM      4  N   UNL     1       3.211  -4.026  -1.763  0.00  0.00    -0.200 N 
ATOM      5  C   UNL     1       2.728  -2.917  -2.384  0.00  0.00    +0.225 A 
ATOM      6  C   UNL     1       5.510  -1.512  -0.411  0.00  0.00    +0.068 C 
ENDROOT
BRANCH   4   7
ATOM      7  C   UNL     1       2.714  -5.330  -1.897  0.00  0.00    +0.069 A 
ATOM      8  C   UNL     1       1.343  -5.554  -1.909  0.00  0.00    +0.028 A 
ATOM      9  C   UNL     1       0.856  -6.839  -2.041  0.00  0.00    +0.002 A 
ATOM     10  C   UNL     1       1.731  -7.903  -2.161  0.00  0.00    +0.000 A 
ATOM     11  C   UNL     1       3.097  -7.684  -2.149  0.00  0.00    +0.002 A 
ATOM     12  C   UNL     1       3.590  -6.399  -2.023  0.00  0.00    +0.028 A 
ENDBRANCH   4   7
BRANCH   1  13
ATOM     13  C   UNL     1       3.322  -0.431  -2.428  0.00  0.00    -0.035 C 
BRANCH  13  14
ATOM     14  N   UNL     1       2.954   0.396  -1.271  0.00  0.00    +0.386 N 
ATOM     15  H   UNL     1       3.563   0.179  -0.496  0.00  0.00    -0.081 HD
BRANCH  14  16
ATOM     16  C   UNL     1       1.562   0.118  -0.893  0.00  0.00    -0.071 C 
ATOM     17  C   UNL     1       0.696   0.051  -2.153  0.00  0.00    -0.013 C 
BRANCH  16  19
ATOM     18  C   UNL     1       2.313  -1.135   1.133  0.00  0.00    +0.002 C 
ATOM     19  C   UNL     1       1.492  -1.220  -0.154  0.00  0.00    -0.019 C 
ENDBRANCH  16  19
ENDBRANCH  14  16
BRANCH  14  20
ATOM     20  C   UNL     1       3.093   1.816  -1.621  0.00  0.00    -0.044 C 
BRANCH  20  21
ATOM     21  C   UNL     1       2.994   2.665  -0.352  0.00  0.00    +0.124 C 
BRANCH  21  22
ATOM     22  O   UNL     1       1.664   2.594   0.167  0.00  0.00    -0.391 OA
ATOM     23  H   UNL     1       0.996   2.995  -0.407  0.00  0.00    +0.210 HD
ENDBRANCH  21  22
BRANCH  21  24
ATOM     24  C   UNL     1       3.335   4.119  -0.683  0.00  0.00    +0.189 C 
BRANCH  24  25
ATOM     25  O   UNL     1       3.356   4.890   0.520  0.00  0.00    -0.372 OA
BRANCH  25  26
ATOM     26  C   UNL     1       3.667   6.271   0.320  0.00  0.00    +0.061 C 
ATOM     27  C   UNL     1       2.620   6.901  -0.601  0.00  0.00    +0.041 C 
ATOM     28  C   UNL     1       3.662   6.994   1.668  0.00  0.00    +0.041 C 
ATOM     29  C   UNL     1       5.050   6.395  -0.320  0.00  0.00    +0.041 C 
ENDBRANCH  25  26
ENDBRANCH  24  25
ENDBRANCH  21  24
ENDBRANCH  20  21
ENDBRANCH  14  20
ENDBRANCH  13  14
ENDBRANCH   1  13
BRANCH   5  30
ATOM     30  O   UNL     1       1.679  -2.870  -3.244  0.00  0.00    -0.438 OA
BRANCH  30  31
ATOM     31  C   UNL     1       1.922  -3.107  -4.560  0.00  0.00    +0.131 A 
ATOM     32  C   UNL     1       3.188  -3.494  -4.974  0.00  0.00    +0.049 A 
ATOM     33  C   UNL     1       3.433  -3.734  -6.312  0.00  0.00    +0.042 A 
ATOM     34  C   UNL     1       2.416  -3.588  -7.240  0.00  0.00    +0.124 A 
ATOM     35  C   UNL     1       1.152  -3.201  -6.829  0.00  0.00    +0.042 A 
ATOM     36  C   UNL     1       0.902  -2.966  -5.491  0.00  0.00    +0.049 A 
ATOM     37  F   UNL     1       2.657  -3.824  -8.549  0.00  0.00    -0.205 F 
ENDBRANCH  30  31
ENDBRANCH   5  30
TORSDOF 13
