REMARK  Name = ZINC38975481
REMARK  6 active torsions:
REMARK  status: ('A' for Active; 'I' for Inactive)
REMARK    1  A    between atoms: C_1  and  O_2
REMARK    2  A    between atoms: O_2  and  C_3
REMARK    3  A    between atoms: C_6  and  N_9
REMARK    4  A    between atoms: N_9  and  C_10
REMARK    5  A    between atoms: N_13  and  S_14
REMARK    6  A    between atoms: S_14  and  C_17
REMARK                            x       y       z     vdW  Elec       q    Type
REMARK                         _______ _______ _______ _____ _____    ______ ____
ROOT
ATOM      1  C   UNL     1       2.607  -3.914  -4.326  0.00  0.00    +0.237 C 
ATOM      2  C   UNL     1       2.237  -4.392  -5.712  0.00  0.00    +0.192 C 
ATOM      3  N   UNL     1       1.062  -4.136  -6.207  0.00  0.00    -0.110 NA
ATOM      4  N   UNL     1       3.140  -5.085  -6.425  0.00  0.00    -0.226 NA
ATOM      5  C   UNL     1       4.336  -5.356  -5.946  0.00  0.00    +0.089 A 
ATOM      6  C   UNL     1       5.265  -6.090  -6.727  0.00  0.00    +0.030 A 
ATOM      7  C   UNL     1       6.494  -6.372  -6.241  0.00  0.00    +0.002 A 
ATOM      8  C   UNL     1       6.917  -5.967  -4.964  0.00  0.00    +0.002 A 
ATOM      9  C   UNL     1       6.111  -5.263  -4.139  0.00  0.00    +0.027 A 
ATOM     10  C   UNL     1       4.757  -4.915  -4.593  0.00  0.00    +0.063 A 
ATOM     11  N   UNL     1       3.953  -4.236  -3.825  0.00  0.00    -0.359 N 
ATOM     12  H   UNL     1       4.235  -3.950  -2.942  0.00  0.00    +0.162 HD
ENDROOT
BRANCH   3  13
ATOM     13  S   UNL     1       0.670  -4.665  -7.726  0.00  0.00    +0.100 S 
ATOM     14  O   UNL     1       1.508  -3.960  -8.631  0.00  0.00    -0.146 OA
ATOM     15  O   UNL     1       0.639  -6.085  -7.666  0.00  0.00    -0.146 OA
BRANCH  13  16
ATOM     16  C   UNL     1      -0.979  -4.138  -8.052  0.00  0.00    +0.113 A 
ATOM     17  C   UNL     1      -2.044  -4.951  -7.710  0.00  0.00    +0.032 A 
ATOM     18  C   UNL     1      -3.338  -4.538  -7.965  0.00  0.00    +0.040 A 
ATOM     19  C   UNL     1      -3.568  -3.311  -8.562  0.00  0.00    +0.124 A 
ATOM     20  C   UNL     1      -2.501  -2.498  -8.904  0.00  0.00    +0.040 A 
ATOM     21  C   UNL     1      -1.208  -2.910  -8.643  0.00  0.00    +0.032 A 
ATOM     22  F   UNL     1      -4.833  -2.906  -8.812  0.00  0.00    -0.205 F 
ENDBRANCH  13  16
ENDBRANCH   3  13
BRANCH   1  23
ATOM     23  N   UNL     1       2.458  -2.457  -4.301  0.00  0.00    -0.318 N 
ATOM     24  H   UNL     1       2.879  -1.915  -4.986  0.00  0.00    +0.148 HD
BRANCH  23  28
ATOM     25  C   UNL     1       0.222  -0.643  -1.287  0.00  0.00    +0.120 A 
ATOM     26  C   UNL     1       0.508  -1.998  -1.217  0.00  0.00    +0.047 A 
ATOM     27  C   UNL     1       1.249  -2.600  -2.215  0.00  0.00    +0.026 A 
ATOM     28  C   UNL     1       1.707  -1.848  -3.289  0.00  0.00    +0.029 A 
ATOM     29  C   UNL     1       1.419  -0.491  -3.358  0.00  0.00    +0.026 A 
ATOM     30  C   UNL     1       0.674   0.108  -2.362  0.00  0.00    +0.047 A 
BRANCH  25  32
ATOM     31  C   UNL     1      -0.940  -0.884   0.774  0.00  0.00    +0.277 C 
ATOM     32  O   UNL     1      -0.507  -0.051  -0.303  0.00  0.00    -0.495 OA
ENDBRANCH  25  32
ENDBRANCH  23  28
ENDBRANCH   1  23
TORSDOF 5
