REMARK  Name = ZINC52595565
REMARK  8 active torsions:
REMARK  status: ('A' for Active; 'I' for Inactive)
REMARK    1  A    between atoms: C_1  and  C_2
REMARK    2  A    between atoms: C_2  and  C_3
REMARK    3  A    between atoms: C_7  and  C_32
REMARK    4  A    between atoms: C_9  and  C_31
REMARK    5  A    between atoms: N_12  and  C_13
REMARK    6  A    between atoms: C_13  and  C_14
REMARK    7  A    between atoms: C_17  and  C_20
REMARK    8  A    between atoms: C_21  and  C_26
REMARK                            x       y       z     vdW  Elec       q    Type
REMARK                         _______ _______ _______ _____ _____    ______ ____
ROOT
ATOM      1  C   UNL     1      -1.815  -3.029   2.357  0.00  0.00    -0.030 A 
ATOM      2  C   UNL     1      -1.801  -2.346   3.560  0.00  0.00    +0.006 A 
ATOM      3  C   UNL     1      -2.797  -2.561   4.491  0.00  0.00    +0.010 A 
ATOM      4  C   UNL     1      -3.819  -3.469   4.217  0.00  0.00    +0.001 A 
ATOM      5  C   UNL     1      -3.828  -4.154   3.002  0.00  0.00    +0.010 A 
ATOM      6  C   UNL     1      -2.830  -3.927   2.077  0.00  0.00    +0.006 A 
ENDROOT
BRANCH   4   7
ATOM      7  C   UNL     1      -4.891  -3.704   5.212  0.00  0.00    +0.082 A 
ATOM      8  C   UNL     1      -5.593  -2.615   5.754  0.00  0.00    +0.049 A 
ATOM      9  C   UNL     1      -6.600  -2.861   6.691  0.00  0.00    +0.015 A 
ATOM     10  C   UNL     1      -6.862  -4.174   7.046  0.00  0.00    +0.020 A 
ATOM     11  C   UNL     1      -6.128  -5.195   6.468  0.00  0.00    +0.111 A 
ATOM     12  N   UNL     1      -5.186  -4.943   5.582  0.00  0.00    -0.254 NA
BRANCH   8  13
ATOM     13  C   UNL     1      -5.272  -1.232   5.341  0.00  0.00    +0.209 A 
ATOM     14  N   UNL     1      -4.438  -0.863   4.367  0.00  0.00    -0.106 NA
ATOM     15  N   UNL     1      -4.437   0.426   4.325  0.00  0.00    -0.021 NA
ATOM     16  N   UNL     1      -5.233   0.881   5.229  0.00  0.00    -0.021 NA
ATOM     17  N   UNL     1      -5.764  -0.107   5.865  0.00  0.00    -0.106 NA
ENDBRANCH   8  13
ENDBRANCH   4   7
BRANCH   1  18
ATOM     18  C   UNL     1      -0.725  -2.789   1.345  0.00  0.00    +0.143 C 
BRANCH  18  27
ATOM     19  C   UNL     1      -0.841  -0.268   0.660  0.00  0.00    +0.160 C 
ATOM     20  N   UNL     1      -1.430   0.425  -0.492  0.00  0.00    -0.323 N 
ATOM     21  C   UNL     1      -2.010  -0.554  -1.309  0.00  0.00    +0.070 A 
ATOM     22  C   UNL     1      -2.695  -0.444  -2.514  0.00  0.00    -0.025 A 
ATOM     23  C   UNL     1      -3.169  -1.602  -3.114  0.00  0.00    +0.026 A 
ATOM     24  C   UNL     1      -2.948  -2.818  -2.500  0.00  0.00    +0.015 A 
ATOM     25  N   UNL     1      -2.296  -2.894  -1.356  0.00  0.00    -0.346 N 
ATOM     26  C   UNL     1      -1.823  -1.815  -0.745  0.00  0.00    +0.122 A 
ATOM     27  N   UNL     1      -1.117  -1.694   0.455  0.00  0.00    -0.292 N 
ATOM     28  C   UNL     1      -3.461  -4.079  -3.146  0.00  0.00    +0.063 C 
ATOM     29  C   UNL     1      -2.917   0.902  -3.154  0.00  0.00    +0.046 C 
ATOM     30  H   UNL     1      -1.421   1.381  -0.657  0.00  0.00    +0.148 HD
ATOM     31  H   UNL     1      -2.158  -3.764  -0.950  0.00  0.00    +0.167 HD
BRANCH  19  33
ATOM     32  C   UNL     1       0.939   1.450   1.018  0.00  0.00    +0.007 C 
ATOM     33  C   UNL     1       0.669  -0.024   0.707  0.00  0.00    +0.039 C 
ENDBRANCH  19  33
ENDBRANCH  18  27
ENDBRANCH   1  18
TORSDOF 5
