REMARK  Name = ZINC04427000
REMARK  11 active torsions:
REMARK  status: ('A' for Active; 'I' for Inactive)
REMARK    1  A    between atoms: C_1  and  C_2
REMARK    2  A    between atoms: C_2  and  C_3
REMARK    3  A    between atoms: C_2  and  C_4
REMARK    4  A    between atoms: C_2  and  C_5
REMARK    5  A    between atoms: C_8  and  C_11
REMARK    6  A    between atoms: C_14  and  C_25
REMARK    7  A    between atoms: C_20  and  N_24
REMARK    8  A    between atoms: C_21  and  C_22
REMARK    9  A    between atoms: C_25  and  C_26
REMARK   10  A    between atoms: C_25  and  C_27
REMARK   11  A    between atoms: C_25  and  C_28
REMARK                            x       y       z     vdW  Elec       q    Type
REMARK                         _______ _______ _______ _____ _____    ______ ____
ROOT
ATOM      1  C   UNL     1       3.090  -1.251  -4.676  0.00  0.00    +0.101 C 
ATOM      2  C   UNL     1       3.184  -0.132  -5.681  0.00  0.00    +0.050 A 
ATOM      3  C   UNL     1       2.232   0.399  -6.463  0.00  0.00    +0.049 A 
ATOM      4  N   UNL     1       2.803   1.384  -7.194  0.00  0.00    -0.277 N 
ATOM      5  H   UNL     1       2.353   1.942  -7.847  0.00  0.00    +0.189 HD
ATOM      6  N   UNL     1       4.160   1.456  -6.843  0.00  0.00    -0.135 NA
ATOM      7  C   UNL     1       4.394   0.551  -5.938  0.00  0.00    +0.245 A 
ATOM      8  O   UNL     1       5.550   0.235  -5.295  0.00  0.00    -0.421 OA
ATOM      9  C   UNL     1       5.580  -0.920  -4.603  0.00  0.00    +0.201 C 
ATOM     10  C   UNL     1       4.490  -1.653  -4.287  0.00  0.00    +0.098 C 
ENDROOT
BRANCH   1  14
ATOM     11  C   UNL     1       0.963   0.086  -1.221  0.00  0.00    -0.042 A 
ATOM     12  C   UNL     1       0.653  -1.133  -1.795  0.00  0.00    +0.004 A 
ATOM     13  C   UNL     1       1.341  -1.566  -2.913  0.00  0.00    +0.005 A 
ATOM     14  C   UNL     1       2.339  -0.779  -3.457  0.00  0.00    -0.035 A 
ATOM     15  C   UNL     1       2.648   0.440  -2.884  0.00  0.00    +0.005 A 
ATOM     16  C   UNL     1       1.957   0.875  -1.768  0.00  0.00    +0.004 A 
BRANCH  11  18
ATOM     17  C   UNL     1      -0.494   1.877  -0.317  0.00  0.00    +0.015 C 
ATOM     18  C   UNL     1       0.212   0.557  -0.002  0.00  0.00    -0.013 C 
ATOM     19  C   UNL     1       1.195   0.768   1.152  0.00  0.00    +0.015 C 
ATOM     20  C   UNL     1      -0.825  -0.494   0.397  0.00  0.00    +0.015 C 
ENDBRANCH  11  18
ENDBRANCH   1  14
BRANCH   3  21
ATOM     21  C   UNL     1       0.787  -0.026  -6.518  0.00  0.00    +0.004 C 
ATOM     22  C   UNL     1       0.068   0.754  -7.620  0.00  0.00    +0.017 C 
ATOM     23  C   UNL     1       0.707  -1.524  -6.819  0.00  0.00    +0.017 C 
ATOM     24  C   UNL     1       0.120   0.260  -5.171  0.00  0.00    +0.017 C 
ENDBRANCH   3  21
BRANCH   9  25
ATOM     25  N   UNL     1       6.803  -1.386  -4.189  0.00  0.00    -0.328 N 
ATOM     26  H   UNL     1       7.608  -0.886  -4.398  0.00  0.00    +0.145 HD
ATOM     27  H   UNL     1       6.863  -2.214  -3.688  0.00  0.00    +0.145 HD
ENDBRANCH   9  25
BRANCH  10  28
ATOM     28  C   UNL     1       4.672  -2.866  -3.548  0.00  0.00    +0.101 C 
ATOM     29  N   UNL     1       4.816  -3.829  -2.963  0.00  0.00    -0.191 NA
ENDBRANCH  10  28
TORSDOF 5
