REMARK  Name = ZINC01908626
REMARK  9 active torsions:
REMARK  status: ('A' for Active; 'I' for Inactive)
REMARK    1  A    between atoms: C_1  and  C_2
REMARK    2  A    between atoms: C_9  and  C_31
REMARK    3  A    between atoms: C_10  and  O_13
REMARK    4  A    between atoms: O_13  and  C_14
REMARK    5  A    between atoms: C_14  and  C_16
REMARK    6  A    between atoms: N_24  and  C_27
REMARK    7  A    between atoms: C_27  and  C_28
REMARK    8  A    between atoms: C_28  and  C_29
REMARK    9  A    between atoms: C_28  and  C_30
REMARK                            x       y       z     vdW  Elec       q    Type
REMARK                         _______ _______ _______ _____ _____    ______ ____
ROOT
ATOM      1  C   UNL     1      -4.580 -13.645  -1.796  0.00  0.00    +0.044 C 
ATOM      2  C   UNL     1      -3.905 -12.399  -1.283  0.00  0.00    -0.047 A 
ATOM      3  C   UNL     1      -4.134 -11.980   0.020  0.00  0.00    +0.004 A 
ATOM      4  C   UNL     1      -3.523 -10.844   0.502  0.00  0.00    +0.016 A 
ATOM      5  C   UNL     1      -2.671 -10.115  -0.328  0.00  0.00    +0.068 A 
ATOM      6  C   UNL     1      -2.439 -10.537  -1.647  0.00  0.00    +0.140 A 
ATOM      7  C   UNL     1      -3.065 -11.687  -2.113  0.00  0.00    +0.050 A 
ATOM      8  O   UNL     1      -1.614  -9.830  -2.446  0.00  0.00    -0.451 OA
ATOM      9  C   UNL     1      -0.991  -8.715  -2.031  0.00  0.00    +0.182 A 
ATOM     10  C   UNL     1      -1.149  -8.215  -0.761  0.00  0.00    +0.222 A 
ATOM     11  C   UNL     1      -1.993  -8.896   0.153  0.00  0.00    +0.235 A 
ATOM     12  O   UNL     1      -2.155  -8.487   1.291  0.00  0.00    -0.283 OA
ENDROOT
BRANCH   9  13
ATOM     13  C   UNL     1      -0.106  -8.002  -2.972  0.00  0.00    +0.021 A 
ATOM     14  C   UNL     1      -0.542  -7.720  -4.269  0.00  0.00    +0.013 A 
ATOM     15  C   UNL     1       0.288  -7.048  -5.141  0.00  0.00    +0.021 A 
ATOM     16  C   UNL     1       1.557  -6.664  -4.738  0.00  0.00    +0.041 A 
ATOM     17  C   UNL     1       1.997  -6.946  -3.456  0.00  0.00    +0.021 A 
ATOM     18  C   UNL     1       1.175  -7.612  -2.572  0.00  0.00    +0.013 A 
ATOM     19 CL   UNL     1       2.598  -5.826  -5.846  0.00  0.00    -0.084 Cl
ENDBRANCH   9  13
BRANCH  10  20
ATOM     20  O   UNL     1      -0.497  -7.082  -0.383  0.00  0.00    -0.415 OA
BRANCH  20  21
ATOM     21  C   UNL     1      -1.173  -5.923  -0.494  0.00  0.00    +0.345 C 
ATOM     22  O   UNL     1      -2.312  -5.922  -0.916  0.00  0.00    -0.245 OA
BRANCH  21  23
ATOM     23  C   UNL     1      -0.528  -4.651  -0.101  0.00  0.00    +0.060 A 
ATOM     24  C   UNL     1       0.779  -4.655   0.385  0.00  0.00    +0.016 A 
ATOM     25  C   UNL     1       1.390  -3.469   0.755  0.00  0.00    +0.014 A 
ATOM     26  C   UNL     1       0.700  -2.272   0.644  0.00  0.00    +0.049 A 
ATOM     27  C   UNL     1      -0.622  -2.262   0.153  0.00  0.00    +0.050 A 
ATOM     28  C   UNL     1      -1.231  -3.448  -0.217  0.00  0.00    +0.028 A 
ATOM     29  C   UNL     1      -1.047  -0.846   0.166  0.00  0.00    +0.254 C 
ATOM     30  O   UNL     1      -2.132  -0.429  -0.186  0.00  0.00    -0.270 OA
ATOM     31  N   UNL     1      -0.033  -0.097   0.634  0.00  0.00    -0.234 N 
ATOM     32  C   UNL     1       1.034  -0.859   0.933  0.00  0.00    +0.254 C 
ATOM     33  O   UNL     1       2.094  -0.456   1.369  0.00  0.00    -0.270 OA
BRANCH  31  34
ATOM     34  C   UNL     1      -0.081   1.359   0.791  0.00  0.00    +0.120 C 
BRANCH  34  35
ATOM     35  C   UNL     1      -0.598   1.704   2.190  0.00  0.00    +0.001 C 
ATOM     36  C   UNL     1      -0.532   3.218   2.399  0.00  0.00    +0.009 C 
ATOM     37  C   UNL     1      -2.047   1.233   2.328  0.00  0.00    +0.009 C 
ENDBRANCH  34  35
ENDBRANCH  31  34
ENDBRANCH  21  23
ENDBRANCH  20  21
ENDBRANCH  10  20
TORSDOF 6
