REMARK  Name = ZINC16035898
REMARK  13 active torsions:
REMARK  status: ('A' for Active; 'I' for Inactive)
REMARK    1  A    between atoms: C_1  and  C_2
REMARK    2  A    between atoms: C_3  and  C_34
REMARK    3  A    between atoms: C_9  and  C_33
REMARK    4  A    between atoms: C_22  and  C_32
REMARK    5  A    between atoms: C_25  and  O_28
REMARK    6  A    between atoms: O_28  and  C_29
REMARK    7  A    between atoms: C_29  and  C_31
REMARK    8  A    between atoms: C_34  and  C_35
REMARK    9  A    between atoms: C_35  and  C_36
REMARK   10  A    between atoms: C_36  and  C_38
REMARK   11  A    between atoms: C_36  and  C_39
REMARK   12  A    between atoms: C_39  and  N_40
REMARK   13  A    between atoms: C_41  and  C_43
REMARK                            x       y       z     vdW  Elec       q    Type
REMARK                         _______ _______ _______ _____ _____    ______ ____
ROOT
ATOM      1  C   UNL     1       1.472  -3.769   3.621  0.00  0.00    +0.043 C 
ATOM      2  C   UNL     1       0.367  -2.937   4.225  0.00  0.00    -0.028 C 
ATOM      3  C   UNL     1      -0.910  -3.065   3.925  0.00  0.00    +0.098 C 
ATOM      4  O   UNL     1      -1.721  -2.282   4.666  0.00  0.00    -0.493 OA
ATOM      5  C   UNL     1      -0.988  -1.752   5.782  0.00  0.00    +0.181 C 
ATOM      6  C   UNL     1       0.487  -1.885   5.299  0.00  0.00    +0.065 C 
ATOM      7  C   UNL     1       0.900  -0.510   4.795  0.00  0.00    -0.019 C 
ATOM      8  C   UNL     1       1.657  -0.476   3.506  0.00  0.00    +0.008 C 
ATOM      9  C   UNL     1       0.823  -0.182   2.263  0.00  0.00    +0.005 C 
ATOM     10  C   UNL     1       0.002   1.079   2.494  0.00  0.00    +0.003 C 
ATOM     11  C   UNL     1      -0.972   0.827   3.645  0.00  0.00    +0.000 C 
ATOM     12  C   UNL     1      -0.275   0.442   4.926  0.00  0.00    +0.003 C 
ATOM     13  C   UNL     1      -1.260  -0.240   5.901  0.00  0.00    +0.049 C 
ATOM     14  C   UNL     1      -1.981  -0.234   3.196  0.00  0.00    +0.031 C 
ATOM     15  C   UNL     1      -2.731   0.322   2.011  0.00  0.00    -0.027 C 
ATOM     16  C   UNL     1      -2.158   1.132   1.171  0.00  0.00    -0.064 C 
ATOM     17  C   UNL     1      -0.728   1.579   1.265  0.00  0.00    -0.008 C 
ATOM     18  C   UNL     1      -0.689   3.112   1.237  0.00  0.00    +0.015 C 
ATOM     19  C   UNL     1      -1.473   3.665   0.052  0.00  0.00    +0.046 C 
ATOM     20  C   UNL     1      -2.930   3.209   0.096  0.00  0.00    +0.180 C 
ATOM     21  C   UNL     1      -2.995   1.680   0.028  0.00  0.00    +0.075 C 
ATOM     22  C   UNL     1      -0.013   1.086   0.008  0.00  0.00    +0.016 C 
ATOM     23  C   UNL     1       1.917  -0.002   5.849  0.00  0.00    +0.012 C 
ENDROOT
BRANCH  20  24
ATOM     24  O   UNL     1      -3.546   3.663   1.329  0.00  0.00    -0.461 OA
BRANCH  24  25
ATOM     25  C   UNL     1      -4.862   3.924   1.292  0.00  0.00    +0.304 C 
ATOM     26  O   UNL     1      -5.479   3.778   0.263  0.00  0.00    -0.251 OA
ATOM     27  C   UNL     1      -5.571   4.400   2.534  0.00  0.00    +0.136 C 
ENDBRANCH  24  25
ENDBRANCH  20  24
BRANCH   3  28
ATOM     28  C   UNL     1      -1.413  -4.018   2.871  0.00  0.00    +0.074 C 
BRANCH  28  29
ATOM     29  C   UNL     1      -1.832  -5.333   3.531  0.00  0.00    +0.012 C 
BRANCH  29  30
ATOM     30  C   UNL     1      -2.343  -6.300   2.461  0.00  0.00    +0.003 C 
ATOM     31  C   UNL     1      -3.619  -5.738   1.832  0.00  0.00    +0.009 C 
BRANCH  30  32
ATOM     32  C   UNL     1      -2.644  -7.657   3.102  0.00  0.00    +0.107 C 
BRANCH  32  33
ATOM     33  N   UNL     1      -3.018  -8.616   2.060  0.00  0.00    -0.315 N 
ATOM     34  C   UNL     1      -3.329  -9.885   2.393  0.00  0.00    +0.210 C 
ATOM     35  O   UNL     1      -3.299 -10.232   3.555  0.00  0.00    -0.276 OA
ATOM     36  C   UNL     1      -3.714 -10.872   1.322  0.00  0.00    +0.109 C 
ATOM     37  H   UNL     1      -3.043  -8.339   1.131  0.00  0.00    +0.149 HD
ENDBRANCH  32  33
ENDBRANCH  30  32
ENDBRANCH  29  30
ENDBRANCH  28  29
ENDBRANCH   3  28
TORSDOF 7
