REMARK  Name = ZINC39675895
REMARK  12 active torsions:
REMARK  status: ('A' for Active; 'I' for Inactive)
REMARK    1  A    between atoms: C_1  and  C_2
REMARK    2  A    between atoms: C_2  and  C_3
REMARK    3  A    between atoms: C_3  and  C_5
REMARK    4  A    between atoms: C_3  and  C_6
REMARK    5  A    between atoms: C_6  and  C_7
REMARK    6  A    between atoms: C_11  and  C_20
REMARK    7  A    between atoms: N_22  and  C_23
REMARK    8  A    between atoms: C_23  and  C_24
REMARK    9  A    between atoms: C_24  and  C_26
REMARK   10  A    between atoms: C_24  and  N_32
REMARK   11  A    between atoms: N_32  and  C_33
REMARK   12  A    between atoms: N_32  and  C_34
REMARK                            x       y       z     vdW  Elec       q    Type
REMARK                         _______ _______ _______ _____ _____    ______ ____
ROOT
ATOM      1  C   UNL     1       0.500  -2.537  -3.449  0.00  0.00    +0.216 C 
ATOM      2  O   UNL     1       0.764  -1.819  -4.390  0.00  0.00    -0.276 OA
ATOM      3  N   UNL     1       0.848  -3.838  -3.476  0.00  0.00    -0.300 N 
ATOM      4  C   UNL     1       0.608  -4.865  -2.434  0.00  0.00    +0.121 C 
ATOM      5  C   UNL     1       0.236  -6.141  -3.222  0.00  0.00    +0.100 C 
ATOM      6  C   UNL     1       0.863  -5.941  -4.612  0.00  0.00    -0.004 C 
ATOM      7  C   UNL     1       1.551  -4.569  -4.558  0.00  0.00    +0.115 C 
ATOM      8  C   UNL     1      -0.221  -5.939  -5.686  0.00  0.00    -0.010 C 
ATOM      9  C   UNL     1       0.431  -5.795  -7.063  0.00  0.00    -0.082 C 
ATOM     10  N   UNL     1       1.364  -6.908  -7.283  0.00  0.00    +0.379 N 
ATOM     11  C   UNL     1       2.455  -6.848  -6.303  0.00  0.00    -0.082 C 
ATOM     12  C   UNL     1       1.888  -7.036  -4.893  0.00  0.00    -0.010 C 
ATOM     13  H   UNL     1       0.871  -7.782  -7.183  0.00  0.00    -0.086 HD
ATOM     14  H   UNL     1       1.746  -6.845  -8.215  0.00  0.00    -0.086 HD
ENDROOT
BRANCH   5  15
ATOM     15  C   UNL     1       0.818  -7.359  -2.552  0.00  0.00    +0.218 C 
ATOM     16  O   UNL     1       1.860  -7.274  -1.938  0.00  0.00    -0.275 OA
ATOM     17  N   UNL     1       0.180  -8.543  -2.636  0.00  0.00    -0.316 N 
ATOM     18  H   UNL     1      -0.653  -8.612  -3.127  0.00  0.00    +0.149 HD
BRANCH  17  19
ATOM     19  C   UNL     1       0.746  -9.728  -1.984  0.00  0.00    +0.093 C 
BRANCH  19  20
ATOM     20  C   UNL     1      -0.100 -10.954  -2.333  0.00  0.00    -0.021 C 
BRANCH  20  21
ATOM     21  C   UNL     1      -0.016 -11.217  -3.815  0.00  0.00    -0.059 A 
ATOM     22  C   UNL     1       1.081 -11.874  -4.339  0.00  0.00    +0.002 A 
ATOM     23  C   UNL     1       1.158 -12.115  -5.698  0.00  0.00    +0.000 A 
ATOM     24  C   UNL     1       0.137 -11.700  -6.532  0.00  0.00    +0.000 A 
ATOM     25  C   UNL     1      -0.961 -11.044  -6.008  0.00  0.00    +0.000 A 
ATOM     26  C   UNL     1      -1.040 -10.807  -4.648  0.00  0.00    +0.002 A 
ENDBRANCH  20  21
BRANCH  20  27
ATOM     27  N   UNL     1       0.406 -12.122  -1.599  0.00  0.00    +0.382 N 
ATOM     28  C   UNL     1       0.285 -11.882  -0.155  0.00  0.00    -0.096 C 
ATOM     29  C   UNL     1      -0.379 -13.308  -1.966  0.00  0.00    -0.096 C 
ATOM     30  H   UNL     1       1.375 -12.274  -1.835  0.00  0.00    -0.082 HD
ENDBRANCH  20  27
ENDBRANCH  19  20
ENDBRANCH  17  19
ENDBRANCH   5  15
BRANCH   1  31
ATOM     31  C   UNL     1      -0.216  -1.973  -2.249  0.00  0.00    +0.099 C 
BRANCH  31  32
ATOM     32  C   UNL     1      -0.492  -0.485  -2.472  0.00  0.00    -0.006 C 
ATOM     33  C   UNL     1      -1.465  -0.316  -3.640  0.00  0.00    +0.008 C 
BRANCH  32  35
ATOM     34  C   UNL     1      -1.266   1.627  -1.384  0.00  0.00    +0.004 C 
ATOM     35  C   UNL     1      -1.106   0.116  -1.206  0.00  0.00    +0.000 C 
ENDBRANCH  32  35
ENDBRANCH  31  32
ENDBRANCH   1  31
TORSDOF 8
