REMARK  Name = ZINC12139479
REMARK  6 active torsions:
REMARK  status: ('A' for Active; 'I' for Inactive)
REMARK    1  A    between atoms: C_6  and  C_7
REMARK    2  A    between atoms: C_7  and  N_8
REMARK    3  A    between atoms: C_9  and  C_11
REMARK    4  A    between atoms: C_11  and  S_12
REMARK    5  A    between atoms: S_12  and  C_13
REMARK    6  A    between atoms: C_15  and  C_26
REMARK                            x       y       z     vdW  Elec       q    Type
REMARK                         _______ _______ _______ _____ _____    ______ ____
ROOT
ATOM      1  C   UNL     1      10.892  -2.295  -0.253  0.00  0.00    +0.099 A 
ATOM      2  C   UNL     1      12.273  -2.511  -0.145  0.00  0.00    +0.047 A 
ATOM      3  C   UNL     1      12.986  -2.905  -1.238  0.00  0.00    +0.067 A 
ATOM      4  C   UNL     1      12.301  -3.071  -2.459  0.00  0.00    +0.016 A 
ATOM      5  C   UNL     1      12.976  -3.468  -3.623  0.00  0.00    +0.060 A 
ATOM      6  C   UNL     1      12.285  -3.624  -4.790  0.00  0.00    +0.167 A 
ATOM      7  C   UNL     1      10.900  -3.390  -4.837  0.00  0.00    +0.168 A 
ATOM      8  C   UNL     1      10.220  -3.002  -3.719  0.00  0.00    +0.078 A 
ATOM      9  C   UNL     1      10.905  -2.833  -2.504  0.00  0.00    +0.076 A 
ATOM     10  N   UNL     1      10.257  -2.453  -1.397  0.00  0.00    -0.240 NA
ATOM     11  O   UNL     1      10.468  -3.619  -6.112  0.00  0.00    -0.453 OA
ATOM     12  C   UNL     1      11.510  -4.388  -6.741  0.00  0.00    +0.466 C 
ATOM     13  O   UNL     1      12.703  -3.996  -6.036  0.00  0.00    -0.453 OA
ENDROOT
BRANCH   3  14
ATOM     14  C   UNL     1      14.470  -3.149  -1.146  0.00  0.00    +0.418 C 
ATOM     15  F   UNL     1      14.900  -2.916   0.164  0.00  0.00    -0.166 F 
ATOM     16  F   UNL     1      14.747  -4.474  -1.498  0.00  0.00    -0.166 F 
ATOM     17  F   UNL     1      15.140  -2.285  -2.018  0.00  0.00    -0.166 F 
ENDBRANCH   3  14
BRANCH   1  18
ATOM     18  S   UNL     1       9.987  -1.792   1.173  0.00  0.00    -0.097 S 
BRANCH  18  19
ATOM     19  C   UNL     1       8.327  -1.663   0.462  0.00  0.00    +0.171 C 
BRANCH  19  21
ATOM     20  N   UNL     1       6.051  -1.072   1.229  0.00  0.00    -0.311 N 
ATOM     21  C   UNL     1       7.355  -1.234   1.530  0.00  0.00    +0.224 C 
ATOM     22  O   UNL     1       7.745  -1.036   2.661  0.00  0.00    -0.275 OA
ATOM     23  H   UNL     1       5.739  -1.231   0.324  0.00  0.00    +0.149 HD
BRANCH  20  24
ATOM     24  C   UNL     1       5.106  -0.655   2.267  0.00  0.00    +0.139 C 
BRANCH  24  30
ATOM     25  C   UNL     1       2.886  -1.646   1.677  0.00  0.00    +0.009 A 
ATOM     26  C   UNL     1       1.617  -1.552   1.135  0.00  0.00    +0.050 A 
ATOM     27  C   UNL     1       1.183  -0.356   0.589  0.00  0.00    +0.166 A 
ATOM     28  C   UNL     1       2.029   0.752   0.587  0.00  0.00    +0.167 A 
ATOM     29  C   UNL     1       3.298   0.650   1.131  0.00  0.00    +0.054 A 
ATOM     30  C   UNL     1       3.724  -0.547   1.675  0.00  0.00    -0.027 A 
ATOM     31  O   UNL     1       1.376   1.797  -0.001  0.00  0.00    -0.453 OA
ATOM     32  C   UNL     1      -0.018   1.436   0.010  0.00  0.00    +0.466 C 
ATOM     33  O   UNL     1       0.002  -0.004   0.002  0.00  0.00    -0.453 OA
ENDBRANCH  24  30
ENDBRANCH  20  24
ENDBRANCH  19  21
ENDBRANCH  18  19
ENDBRANCH   1  18
TORSDOF 6
