REMARK  Name = ZINC49507587
REMARK  10 active torsions:
REMARK  status: ('A' for Active; 'I' for Inactive)
REMARK    1  A    between atoms: C_1  and  C_2
REMARK    2  A    between atoms: C_2  and  C_3
REMARK    3  A    between atoms: C_2  and  C_4
REMARK    4  A    between atoms: C_4  and  C_5
REMARK    5  A    between atoms: C_5  and  N_6
REMARK    6  A    between atoms: C_10  and  N_20
REMARK    7  A    between atoms: C_15  and  C_18
REMARK    8  A    between atoms: C_15  and  C_19
REMARK    9  A    between atoms: C_21  and  C_23
REMARK   10  A    between atoms: C_23  and  N_24
REMARK                            x       y       z     vdW  Elec       q    Type
REMARK                         _______ _______ _______ _____ _____    ______ ____
ROOT
ATOM      1  N   UNL     1      -3.028  -2.489  -0.303  0.00  0.00    -0.268 N 
ATOM      2  C   UNL     1      -3.748  -2.844   0.848  0.00  0.00    +0.078 A 
ATOM      3  C   UNL     1      -3.587  -2.132   2.026  0.00  0.00    +0.029 A 
ATOM      4  C   UNL     1      -4.300  -2.495   3.154  0.00  0.00    +0.025 A 
ATOM      5  C   UNL     1      -5.176  -3.571   3.108  0.00  0.00    +0.037 A 
ATOM      6  C   UNL     1      -5.340  -4.285   1.928  0.00  0.00    +0.070 A 
ATOM      7  C   UNL     1      -4.630  -3.922   0.797  0.00  0.00    +0.144 A 
ATOM      8  O   UNL     1      -4.792  -4.605  -0.366  0.00  0.00    -0.489 OA
ATOM      9  C   UNL     1      -5.564  -3.978  -1.387  0.00  0.00    +0.244 C 
ATOM     10  C   UNL     1      -5.182  -2.505  -1.517  0.00  0.00    +0.076 C 
ATOM     11  C   UNL     1      -3.684  -2.349  -1.476  0.00  0.00    +0.229 C 
ATOM     12  O   UNL     1      -3.070  -2.103  -2.493  0.00  0.00    -0.275 OA
ATOM     13  C   UNL     1      -5.802  -1.717  -0.362  0.00  0.00    +0.024 C 
ATOM     14  C   UNL     1      -5.713  -1.959  -2.844  0.00  0.00    +0.024 C 
ENDROOT
BRANCH   5  15
ATOM     15  N   UNL     1      -5.894  -3.938   4.253  0.00  0.00    -0.284 N 
ATOM     16  C   UNL     1      -6.192  -5.233   4.476  0.00  0.00    +0.237 C 
ATOM     17  O   UNL     1      -5.759  -6.091   3.736  0.00  0.00    -0.274 OA
ATOM     18  H   UNL     1      -6.177  -3.259   4.886  0.00  0.00    +0.155 HD
BRANCH  16  19
ATOM     19  C   UNL     1      -7.062  -5.616   5.645  0.00  0.00    +0.222 C 
BRANCH  19  20
ATOM     20  N   UNL     1      -7.236  -7.070   5.669  0.00  0.00    -0.290 N 
ATOM     21  C   UNL     1      -8.272  -7.636   4.995  0.00  0.00    +0.203 A 
ATOM     22  N   UNL     1      -8.493  -8.915   4.968  0.00  0.00    -0.237 NA
ATOM     23  C   UNL     1      -7.689  -9.789   5.624  0.00  0.00    +0.078 A 
ATOM     24  C   UNL     1      -7.926 -11.165   5.595  0.00  0.00    +0.028 A 
ATOM     25  C   UNL     1      -7.084 -12.016   6.275  0.00  0.00    +0.002 A 
ATOM     26  C   UNL     1      -6.000 -11.524   6.990  0.00  0.00    +0.001 A 
ATOM     27  C   UNL     1      -5.746 -10.171   7.033  0.00  0.00    +0.015 A 
ATOM     28  C   UNL     1      -6.586  -9.292   6.352  0.00  0.00    +0.065 A 
ATOM     29  C   UNL     1      -6.361  -7.839   6.358  0.00  0.00    +0.262 A 
ATOM     30  O   UNL     1      -5.426  -7.346   6.962  0.00  0.00    -0.267 OA
ENDBRANCH  19  20
ENDBRANCH  16  19
ENDBRANCH   5  15
BRANCH   1  31
ATOM     31  C   UNL     1      -1.582  -2.267  -0.233  0.00  0.00    +0.114 C 
BRANCH  31  32
ATOM     32  C   UNL     1      -1.306  -0.796   0.086  0.00  0.00    +0.022 C 
BRANCH  32  34
ATOM     33  C   UNL     1       0.482   0.927   0.354  0.00  0.00    +0.007 C 
ATOM     34  C   UNL     1       0.204  -0.565   0.159  0.00  0.00    -0.016 C 
ATOM     35  C   UNL     1       0.784  -1.349   1.338  0.00  0.00    +0.007 C 
ENDBRANCH  32  34
ENDBRANCH  31  32
ENDBRANCH   1  31
TORSDOF 6
