REMARK  Name = ZINC15521319
REMARK  9 active torsions:
REMARK  status: ('A' for Active; 'I' for Inactive)
REMARK    1  A    between atoms: C_5  and  N_7
REMARK    2  A    between atoms: C_8  and  C_10
REMARK    3  A    between atoms: C_10  and  N_11
REMARK    4  A    between atoms: C_12  and  C_14
REMARK    5  A    between atoms: C_14  and  N_52
REMARK    6  A    between atoms: C_15  and  C_16
REMARK    7  A    between atoms: C_15  and  N_52
REMARK    8  A    between atoms: C_21  and  C_22
REMARK    9  A    between atoms: C_21  and  N_52
REMARK                            x       y       z     vdW  Elec       q    Type
REMARK                         _______ _______ _______ _____ _____    ______ ____
ROOT
ATOM      1  N   UNL     1      -6.139   1.317  -4.321  0.00  0.00    -0.308 N 
ATOM      2  C   UNL     1      -5.314   1.642  -3.305  0.00  0.00    +0.197 C 
ATOM      3  O   UNL     1      -4.332   2.321  -3.515  0.00  0.00    -0.278 OA
ATOM      4  H   UNL     1      -6.925   0.774  -4.153  0.00  0.00    +0.149 HD
ENDROOT
BRANCH   1   5
ATOM      5  C   UNL     1      -5.848   1.784  -5.678  0.00  0.00    +0.200 C 
BRANCH   5   7
ATOM      6  N   UNL     1      -6.853   1.596  -7.930  0.00  0.00    -0.283 N 
ATOM      7  C   UNL     1      -6.914   1.287  -6.620  0.00  0.00    +0.234 C 
ATOM      8  O   UNL     1      -7.828   0.610  -6.198  0.00  0.00    -0.274 OA
ATOM      9  H   UNL     1      -6.089   2.080  -8.280  0.00  0.00    +0.155 HD
BRANCH   6  14
ATOM     10  C   UNL     1     -10.224   0.804  -9.170  0.00  0.00    +0.002 A 
ATOM     11  C   UNL     1      -9.948   0.468 -10.483  0.00  0.00    +0.001 A 
ATOM     12  C   UNL     1      -8.648   0.506 -10.951  0.00  0.00    +0.017 A 
ATOM     13  C   UNL     1      -7.620   0.884 -10.109  0.00  0.00    +0.039 A 
ATOM     14  C   UNL     1      -7.893   1.217  -8.788  0.00  0.00    +0.047 A 
ATOM     15  C   UNL     1      -9.200   1.178  -8.321  0.00  0.00    +0.024 A 
ATOM     16 BR   UNL     1      -5.842   0.943 -10.752  0.00  0.00    -0.048 Br
ENDBRANCH   6  14
ENDBRANCH   5   7
ENDBRANCH   1   5
BRANCH   2  17
ATOM     17  C   UNL     1      -5.614   1.161  -1.908  0.00  0.00    +0.019 C 
BRANCH  17  18
ATOM     18  N   UNL     1      -4.572   1.674  -0.994  0.00  0.00    +0.390 N 
ATOM     19  H   UNL     1      -4.498   2.692  -1.110  0.00  0.00    -0.081 HD
BRANCH  18  20
ATOM     20  C   UNL     1      -4.939   1.377   0.407  0.00  0.00    -0.035 C 
BRANCH  20  21
ATOM     21  C   UNL     1      -3.993   2.111   1.323  0.00  0.00    -0.027 A 
ATOM     22  C   UNL     1      -4.134   3.332   1.893  0.00  0.00    +0.009 A 
ATOM     23  C   UNL     1      -3.127   3.809   2.712  0.00  0.00    +0.008 A 
ATOM     24  C   UNL     1      -2.025   3.046   2.911  0.00  0.00    +0.045 A 
ATOM     25  S   UNL     1      -2.395   1.600   1.932  0.00  0.00    -0.103 S 
ENDBRANCH  20  21
ENDBRANCH  18  20
BRANCH  18  26
ATOM     26  C   UNL     1      -3.268   1.058  -1.317  0.00  0.00    -0.046 C 
BRANCH  26  27
ATOM     27  C   UNL     1      -3.369  -0.468  -1.266  0.00  0.00    +0.102 C 
ATOM     28  C   UNL     1      -1.966  -1.091  -1.395  0.00  0.00    +0.032 C 
ATOM     29  C   UNL     1      -2.065  -1.994  -2.648  0.00  0.00    +0.030 C 
ATOM     30  C   UNL     1      -3.594  -2.217  -2.769  0.00  0.00    +0.160 C 
ATOM     31  O   UNL     1      -4.151  -0.944  -2.375  0.00  0.00    -0.378 OA
ENDBRANCH  26  27
ENDBRANCH  18  26
ENDBRANCH  17  18
ENDBRANCH   2  17
TORSDOF 9
