REMARK  Name = ZINC30943294
REMARK  6 active torsions:
REMARK  status: ('A' for Active; 'I' for Inactive)
REMARK    1  A    between atoms: C_1  and  S_2
REMARK    2  A    between atoms: S_2  and  N_5
REMARK    3  A    between atoms: C_8  and  C_18
REMARK    4  A    between atoms: N_20  and  C_21
REMARK    5  A    between atoms: C_26  and  C_27
REMARK    6  A    between atoms: C_27  and  C_29
REMARK                            x       y       z     vdW  Elec       q    Type
REMARK                         _______ _______ _______ _____ _____    ______ ____
ROOT
ATOM      1  C   UNL     1      -0.942   1.474  -1.175  0.00  0.00    +0.258 C 
ATOM      2  O   UNL     1      -1.887   2.232  -1.109  0.00  0.00    -0.271 OA
ATOM      3  N   UNL     1      -0.460   1.103  -2.378  0.00  0.00    -0.282 N 
ATOM      4  H   UNL     1       0.445   0.480  -2.439  0.00  0.00    +0.155 HD
ENDROOT
BRANCH   1   8
ATOM      5  N   UNL     1       1.281   1.220   2.611  0.00  0.00    -0.204 N 
ATOM      6  C   UNL     1       1.890   0.837   1.329  0.00  0.00    +0.135 C 
ATOM      7  C   UNL     1       1.124   1.456   0.175  0.00  0.00    +0.075 C 
ATOM      8  C   UNL     1      -0.308   0.947   0.086  0.00  0.00    +0.260 C 
ATOM      9  O   UNL     1      -1.078   1.373   1.208  0.00  0.00    -0.478 OA
ATOM     10  C   UNL     1      -1.022   0.579   2.319  0.00  0.00    +0.144 A 
ATOM     11  C   UNL     1       0.160   0.500   3.049  0.00  0.00    +0.094 A 
ATOM     12  C   UNL     1       0.221  -0.281   4.190  0.00  0.00    +0.048 A 
ATOM     13  C   UNL     1      -0.898  -0.989   4.597  0.00  0.00    +0.043 A 
ATOM     14  C   UNL     1      -2.071  -0.916   3.866  0.00  0.00    +0.024 A 
ATOM     15  C   UNL     1      -2.136  -0.132   2.727  0.00  0.00    +0.049 A 
ATOM     16 CL   UNL     1      -0.829  -1.970   6.027  0.00  0.00    -0.083 Cl
BRANCH   5  18
ATOM     17  C   UNL     1       1.027   3.942   2.929  0.00  0.00    +0.218 C 
ATOM     18  S   UNL     1       1.902   2.463   3.511  0.00  0.00    +0.043 S 
ATOM     19  O   UNL     1       1.524   2.166   4.848  0.00  0.00    -0.155 OA
ATOM     20  O   UNL     1       3.272   2.529   3.143  0.00  0.00    -0.155 OA
ENDBRANCH   5  18
ENDBRANCH   1   8
BRANCH   3  21
ATOM     21  C   UNL     1      -1.106   1.510  -3.543  0.00  0.00    +0.044 A 
ATOM     22  C   UNL     1      -1.722   2.752  -3.602  0.00  0.00    +0.025 A 
ATOM     23  C   UNL     1      -2.358   3.156  -4.758  0.00  0.00    +0.022 A 
ATOM     24  C   UNL     1      -2.396   2.321  -5.866  0.00  0.00    +0.042 A 
ATOM     25  C   UNL     1      -1.794   1.082  -5.825  0.00  0.00    +0.033 A 
ATOM     26  C   UNL     1      -1.141   0.663  -4.662  0.00  0.00    +0.045 A 
ATOM     27 CL   UNL     1      -3.205   2.841  -7.311  0.00  0.00    -0.084 Cl
BRANCH  26  28
ATOM     28  C   UNL     1      -0.495  -0.661  -4.611  0.00  0.00    +0.195 C 
ATOM     29  O   UNL     1       0.568  -0.842  -5.173  0.00  0.00    -0.287 OA
BRANCH  28  30
ATOM     30  C   UNL     1      -1.139  -1.770  -3.875  0.00  0.00    +0.022 A 
ATOM     31  C   UNL     1      -2.303  -1.540  -3.139  0.00  0.00    +0.012 A 
ATOM     32  C   UNL     1      -2.902  -2.580  -2.458  0.00  0.00    +0.001 A 
ATOM     33  C   UNL     1      -2.346  -3.846  -2.496  0.00  0.00    +0.000 A 
ATOM     34  C   UNL     1      -1.189  -4.080  -3.219  0.00  0.00    +0.001 A 
ATOM     35  C   UNL     1      -0.583  -3.050  -3.909  0.00  0.00    +0.012 A 
ENDBRANCH  28  30
ENDBRANCH  26  28
ENDBRANCH   3  21
TORSDOF 5
