REMARK  Name = ZINC35578382
REMARK  6 active torsions:
REMARK  status: ('A' for Active; 'I' for Inactive)
REMARK    1  A    between atoms: C_1  and  C_2
REMARK    2  A    between atoms: C_2  and  C_3
REMARK    3  A    between atoms: C_2  and  N_4
REMARK    4  A    between atoms: C_12  and  C_27
REMARK    5  A    between atoms: C_14  and  N_26
REMARK    6  A    between atoms: N_15  and  C_19
REMARK                            x       y       z     vdW  Elec       q    Type
REMARK                         _______ _______ _______ _____ _____    ______ ____
ROOT
ATOM      1  N   UNL     1      -0.875  -0.631  -0.744  0.00  0.00    +0.383 N 
ATOM      2  C   UNL     1      -1.787  -0.130  -1.780  0.00  0.00    -0.059 C 
ATOM      3  C   UNL     1      -3.231  -0.473  -1.399  0.00  0.00    +0.089 C 
ATOM      4  N   UNL     1      -3.318  -1.923  -1.161  0.00  0.00    -0.303 N 
ATOM      5  C   UNL     1      -2.334  -2.538  -0.258  0.00  0.00    +0.089 C 
ATOM      6  C   UNL     1      -0.933  -2.098  -0.694  0.00  0.00    -0.059 C 
ATOM      7  C   UNL     1      -4.299  -2.685  -1.770  0.00  0.00    +0.220 A 
ATOM      8  N   UNL     1      -4.331  -3.989  -1.513  0.00  0.00    -0.213 NA
ATOM      9  C   UNL     1      -5.238  -4.793  -2.055  0.00  0.00    +0.091 A 
ATOM     10  C   UNL     1      -6.194  -4.230  -2.930  0.00  0.00    +0.086 A 
ATOM     11  C   UNL     1      -7.266  -4.708  -3.674  0.00  0.00    +0.131 A 
ATOM     12  N   UNL     1      -7.806  -3.661  -4.327  0.00  0.00    -0.216 N 
ATOM     13  N   UNL     1      -7.098  -2.493  -4.021  0.00  0.00    -0.144 NA
ATOM     14  C   UNL     1      -6.122  -2.780  -3.188  0.00  0.00    +0.189 A 
ATOM     15  N   UNL     1      -5.153  -2.078  -2.569  0.00  0.00    -0.193 NA
ATOM     16  H   UNL     1      -1.148  -0.254   0.151  0.00  0.00    -0.081 HD
ENDROOT
BRANCH   9  17
ATOM     17  C   UNL     1      -5.248  -6.240  -1.749  0.00  0.00    +0.039 A 
ATOM     18  C   UNL     1      -5.144  -7.175  -2.781  0.00  0.00    +0.013 A 
ATOM     19  C   UNL     1      -5.154  -8.523  -2.491  0.00  0.00    +0.004 A 
ATOM     20  C   UNL     1      -5.265  -8.954  -1.180  0.00  0.00    +0.041 A 
ATOM     21  C   UNL     1      -5.368  -8.035  -0.150  0.00  0.00    +0.159 A 
ATOM     22  C   UNL     1      -5.355  -6.678  -0.427  0.00  0.00    +0.168 A 
ATOM     23  F   UNL     1      -5.451  -5.780   0.578  0.00  0.00    -0.202 F 
ATOM     24  F   UNL     1      -5.477  -8.462   1.127  0.00  0.00    -0.202 F 
ENDBRANCH   9  17
BRANCH  12  25
ATOM     25  C   UNL     1      -8.911  -3.730  -5.184  0.00  0.00    +0.068 A 
ATOM     26  C   UNL     1      -9.104  -4.852  -5.980  0.00  0.00    +0.029 A 
ATOM     27  C   UNL     1     -10.195  -4.918  -6.824  0.00  0.00    +0.022 A 
ATOM     28  C   UNL     1     -11.094  -3.868  -6.879  0.00  0.00    +0.041 A 
ATOM     29  C   UNL     1     -10.903  -2.748  -6.088  0.00  0.00    +0.022 A 
ATOM     30  C   UNL     1      -9.818  -2.680  -5.237  0.00  0.00    +0.029 A 
ATOM     31 CL   UNL     1     -12.464  -3.954  -7.941  0.00  0.00    -0.084 Cl
ENDBRANCH  12  25
BRANCH   1  33
ATOM     32  C   UNL     1       0.558   1.321  -1.107  0.00  0.00    -0.014 C 
ATOM     33  C   UNL     1       0.497  -0.207  -1.054  0.00  0.00    -0.075 C 
ATOM     34  C   UNL     1       1.446  -0.719   0.031  0.00  0.00    -0.014 C 
ENDBRANCH   1  33
BRANCH  11  35
ATOM     35  N   UNL     1      -7.700  -6.019  -3.732  0.00  0.00    -0.342 N 
ATOM     36  H   UNL     1      -7.236  -6.707  -3.229  0.00  0.00    +0.144 HD
ATOM     37  H   UNL     1      -8.468  -6.252  -4.277  0.00  0.00    +0.144 HD
ENDBRANCH  11  35
TORSDOF 4
