REMARK  Name = ZINC36513963
REMARK  15 active torsions:
REMARK  status: ('A' for Active; 'I' for Inactive)
REMARK    1  A    between atoms: C_1  and  C_2
REMARK    2  A    between atoms: C_2  and  C_3
REMARK    3  A    between atoms: C_3  and  C_4
REMARK    4  A    between atoms: C_4  and  C_5
REMARK    5  A    between atoms: C_5  and  C_6
REMARK    6  A    between atoms: C_6  and  N_7
REMARK    7  A    between atoms: N_7  and  C_8
REMARK    8  A    between atoms: C_8  and  C_10
REMARK    9  A    between atoms: C_8  and  C_16
REMARK   10  A    between atoms: N_18  and  C_19
REMARK   11  A    between atoms: C_19  and  S_20
REMARK   12  A    between atoms: S_20  and  C_23
REMARK   13  A    between atoms: C_26  and  C_29
REMARK   14  A    between atoms: C_30  and  C_32
REMARK   15  A    between atoms: C_33  and  C_34
REMARK                            x       y       z     vdW  Elec       q    Type
REMARK                         _______ _______ _______ _____ _____    ______ ____
ROOT
ATOM      1  C   UNL     1      -4.965  -4.981  -1.053  0.00  0.00    +0.166 C 
ENDROOT
BRANCH   1   2
ATOM      2  C   UNL     1      -4.668  -6.273  -1.817  0.00  0.00    +0.019 C 
ATOM      3  C   UNL     1      -4.516  -7.428  -0.825  0.00  0.00    +0.006 C 
ATOM      4  C   UNL     1      -4.219  -8.721  -1.588  0.00  0.00    +0.000 C 
ATOM      5  C   UNL     1      -5.371  -9.021  -2.550  0.00  0.00    +0.000 C 
ATOM      6  C   UNL     1      -5.522  -7.866  -3.542  0.00  0.00    +0.000 C 
ATOM      7  C   UNL     1      -5.819  -6.574  -2.778  0.00  0.00    +0.006 C 
ENDBRANCH   1   2
BRANCH   1   8
ATOM      8  C   UNL     1      -5.016  -3.827  -2.020  0.00  0.00    +0.235 C 
ATOM      9  O   UNL     1      -3.999  -3.438  -2.555  0.00  0.00    -0.274 OA
ATOM     10  N   UNL     1      -6.191  -3.225  -2.291  0.00  0.00    -0.295 N 
ATOM     11  H   UNL     1      -6.993  -3.489  -1.812  0.00  0.00    +0.150 HD
BRANCH  10  12
ATOM     12  C   UNL     1      -6.259  -2.173  -3.308  0.00  0.00    +0.278 C 
BRANCH  12  13
ATOM     13  S   UNL     1      -6.758  -2.897  -4.895  0.00  0.00    +0.013 S 
ATOM     14  O   UNL     1      -6.890  -1.879  -5.878  0.00  0.00    -0.168 OA
ATOM     15  O   UNL     1      -5.996  -4.067  -5.161  0.00  0.00    -0.168 OA
BRANCH  13  16
ATOM     16  C   UNL     1      -8.400  -3.480  -4.630  0.00  0.00    +0.090 A 
ATOM     17  C   UNL     1      -8.610  -4.768  -4.173  0.00  0.00    +0.027 A 
ATOM     18  C   UNL     1      -9.898  -5.226  -3.965  0.00  0.00    +0.005 A 
ATOM     19  C   UNL     1     -10.975  -4.396  -4.213  0.00  0.00    -0.050 A 
ATOM     20  C   UNL     1     -10.764  -3.108  -4.669  0.00  0.00    +0.005 A 
ATOM     21  C   UNL     1      -9.477  -2.649  -4.873  0.00  0.00    +0.027 A 
ATOM     22  C   UNL     1     -12.379  -4.895  -3.987  0.00  0.00    +0.044 C 
ENDBRANCH  13  16
ENDBRANCH  12  13
ENDBRANCH  10  12
ENDBRANCH   1   8
BRANCH   1  23
ATOM     23  N   UNL     1      -3.910  -4.744  -0.065  0.00  0.00    -0.279 N 
ATOM     24  C   UNL     1      -4.197  -4.790   1.251  0.00  0.00    +0.292 C 
ATOM     25  O   UNL     1      -5.333  -5.029   1.618  0.00  0.00    -0.260 OA
BRANCH  24  26
ATOM     26  C   UNL     1      -3.166  -4.559   2.217  0.00  0.00    -0.003 C 
ATOM     27  C   UNL     1      -2.320  -4.369   3.010  0.00  0.00    -0.057 C 
BRANCH  27  28
ATOM     28  C   UNL     1      -1.289  -4.137   3.976  0.00  0.00    +0.025 A 
ATOM     29  C   UNL     1       0.015  -3.857   3.558  0.00  0.00    +0.017 A 
ATOM     30  C   UNL     1       1.003  -3.635   4.494  0.00  0.00    +0.001 A 
ATOM     31  C   UNL     1       0.706  -3.689   5.845  0.00  0.00    +0.000 A 
ATOM     32  C   UNL     1      -0.583  -3.966   6.266  0.00  0.00    +0.001 A 
ATOM     33  C   UNL     1      -1.583  -4.184   5.342  0.00  0.00    +0.017 A 
ENDBRANCH  27  28
ENDBRANCH  24  26
BRANCH  23  34
ATOM     34  C   UNL     1      -2.543  -4.457  -0.507  0.00  0.00    +0.109 C 
BRANCH  34  35
ATOM     35  C   UNL     1      -2.308  -2.946  -0.488  0.00  0.00    +0.019 C 
BRANCH  35  36
ATOM     36  C   UNL     1      -0.848  -2.652  -0.841  0.00  0.00    +0.002 C 
BRANCH  36  37
ATOM     37  C   UNL     1      -0.613  -1.141  -0.823  0.00  0.00    -0.000 C 
BRANCH  37  39
ATOM     38  C   UNL     1       1.082   0.664  -1.157  0.00  0.00    +0.004 C 
ATOM     39  C   UNL     1       0.847  -0.848  -1.176  0.00  0.00    -0.003 C 
ENDBRANCH  37  39
ENDBRANCH  36  37
ENDBRANCH  35  36
ENDBRANCH  34  35
ENDBRANCH  23  34
ENDBRANCH   1  23
TORSDOF 13
