REMARK  Name = ZINC35361891
REMARK  5 active torsions:
REMARK  status: ('A' for Active; 'I' for Inactive)
REMARK    1  A    between atoms: C_1  and  O_2
REMARK    2  A    between atoms: O_2  and  C_3
REMARK    3  A    between atoms: C_6  and  C_9
REMARK    4  A    between atoms: N_10  and  N_11
REMARK    5  A    between atoms: C_12  and  C_31
REMARK                            x       y       z     vdW  Elec       q    Type
REMARK                         _______ _______ _______ _____ _____    ______ ____
ROOT
ATOM      1  N   UNL     1       3.045  -4.574   5.117  0.00  0.00    -0.170 N 
ATOM      2  C   UNL     1       3.414  -5.930   5.586  0.00  0.00    +0.202 C 
ATOM      3  N   UNL     1       3.734  -5.730   7.011  0.00  0.00    -0.262 NA
ATOM      4  C   UNL     1       4.630  -6.725   7.601  0.00  0.00    +0.140 C 
ATOM      5  C   UNL     1       5.055  -6.173   8.949  0.00  0.00    +0.035 A 
ATOM      6  C   UNL     1       4.933  -4.867   9.287  0.00  0.00    -0.016 A 
ATOM      7  C   UNL     1       5.422  -4.728  10.639  0.00  0.00    +0.003 A 
ATOM      8  C   UNL     1       5.535  -3.633  11.503  0.00  0.00    +0.010 A 
ATOM      9  C   UNL     1       6.059  -3.876  12.748  0.00  0.00    +0.001 A 
ATOM     10  C   UNL     1       6.461  -5.141  13.144  0.00  0.00    +0.002 A 
ATOM     11  C   UNL     1       6.363  -6.242  12.310  0.00  0.00    +0.026 A 
ATOM     12  C   UNL     1       5.834  -6.026  11.040  0.00  0.00    +0.047 A 
ATOM     13  N   UNL     1       5.600  -6.870   9.991  0.00  0.00    -0.357 N 
ATOM     14  H   UNL     1       5.792  -7.821   9.986  0.00  0.00    +0.166 HD
ATOM     15  C   UNL     1       4.390  -3.805   8.353  0.00  0.00    +0.066 C 
ATOM     16  C   UNL     1       4.435  -4.412   6.952  0.00  0.00    +0.151 C 
ATOM     17  C   UNL     1       3.626  -3.654   5.933  0.00  0.00    +0.254 C 
ATOM     18  O   UNL     1       3.513  -2.449   5.855  0.00  0.00    -0.272 OA
ENDROOT
BRANCH   2  19
ATOM     19  C   UNL     1       4.618  -6.440   4.836  0.00  0.00    -0.011 A 
ATOM     20  C   UNL     1       5.675  -5.590   4.565  0.00  0.00    +0.008 A 
ATOM     21  C   UNL     1       6.779  -6.058   3.878  0.00  0.00    +0.015 A 
ATOM     22  C   UNL     1       6.827  -7.376   3.461  0.00  0.00    +0.018 A 
ATOM     23  C   UNL     1       5.770  -8.225   3.732  0.00  0.00    +0.015 A 
ATOM     24  C   UNL     1       4.668  -7.758   4.424  0.00  0.00    +0.008 A 
ATOM     25 BR   UNL     1       8.337  -8.015   2.520  0.00  0.00    -0.050 Br
ENDBRANCH   2  19
BRANCH   1  27
ATOM     26  C   UNL     1       1.984  -3.054   3.693  0.00  0.00    +0.138 C 
ATOM     27  N   UNL     1       2.234  -4.287   4.011  0.00  0.00    -0.183 NA
BRANCH  26  31
ATOM     28  C   UNL     1      -0.473  -2.183   0.342  0.00  0.00    +0.120 A 
ATOM     29  C   UNL     1       0.061  -1.147   1.097  0.00  0.00    +0.046 A 
ATOM     30  C   UNL     1       0.859  -1.425   2.186  0.00  0.00    +0.013 A 
ATOM     31  C   UNL     1       1.130  -2.751   2.530  0.00  0.00    -0.005 A 
ATOM     32  C   UNL     1       0.591  -3.791   1.768  0.00  0.00    +0.013 A 
ATOM     33  C   UNL     1      -0.210  -3.503   0.684  0.00  0.00    +0.046 A 
BRANCH  28  35
ATOM     34  C   UNL     1      -1.488  -0.525  -1.026  0.00  0.00    +0.277 C 
ATOM     35  O   UNL     1      -1.259  -1.904  -0.730  0.00  0.00    -0.495 OA
ENDBRANCH  28  35
ENDBRANCH  26  31
ENDBRANCH   1  27
TORSDOF 4
