REMARK  Name = ZINC64819630
REMARK  10 active torsions:
REMARK  status: ('A' for Active; 'I' for Inactive)
REMARK    1  A    between atoms: C_1  and  C_2
REMARK    2  A    between atoms: C_2  and  N_3
REMARK    3  A    between atoms: N_3  and  C_4
REMARK    4  A    between atoms: C_4  and  C_5
REMARK    5  A    between atoms: C_10  and  C_25
REMARK    6  A    between atoms: N_16  and  C_17
REMARK    7  A    between atoms: C_17  and  C_18
REMARK    8  A    between atoms: C_21  and  C_24
REMARK    9  A    between atoms: N_27  and  C_28
REMARK   10  A    between atoms: C_28  and  C_29
REMARK                            x       y       z     vdW  Elec       q    Type
REMARK                         _______ _______ _______ _____ _____    ______ ____
ROOT
ATOM      1  N   UNL     1      -1.434  -0.767   0.170  0.00  0.00    -0.301 N 
ATOM      2  C   UNL     1      -2.411  -1.144   1.056  0.00  0.00    +0.202 A 
ATOM      3  N   UNL     1      -2.164  -1.042   2.338  0.00  0.00    -0.215 NA
ATOM      4  C   UNL     1      -3.082  -1.396   3.268  0.00  0.00    +0.080 A 
ATOM      5  C   UNL     1      -2.817  -1.286   4.635  0.00  0.00    +0.041 A 
ATOM      6  C   UNL     1      -3.790  -1.661   5.552  0.00  0.00    +0.039 A 
ATOM      7  C   UNL     1      -5.029  -2.146   5.115  0.00  0.00    +0.014 A 
ATOM      8  C   UNL     1      -5.300  -2.258   3.781  0.00  0.00    +0.016 A 
ATOM      9  C   UNL     1      -4.338  -1.887   2.843  0.00  0.00    +0.065 A 
ATOM     10  C   UNL     1      -4.588  -1.990   1.397  0.00  0.00    +0.263 A 
ATOM     11  O   UNL     1      -5.648  -2.405   0.968  0.00  0.00    -0.267 OA
ATOM     12  N   UNL     1      -3.597  -1.602   0.561  0.00  0.00    -0.276 N 
ENDROOT
BRANCH   6  13
ATOM     13  C   UNL     1      -3.516  -1.548   7.003  0.00  0.00    +0.244 C 
ATOM     14  O   UNL     1      -2.442  -1.128   7.387  0.00  0.00    -0.270 OA
ATOM     15  N   UNL     1      -4.457  -1.910   7.897  0.00  0.00    -0.307 N 
ATOM     16  H   UNL     1      -5.314  -2.245   7.590  0.00  0.00    +0.149 HD
BRANCH  15  17
ATOM     17  C   UNL     1      -4.186  -1.798   9.332  0.00  0.00    +0.140 C 
BRANCH  17  18
ATOM     18  C   UNL     1      -5.390  -2.263  10.109  0.00  0.00    -0.027 A 
ATOM     19  C   UNL     1      -6.379  -1.361  10.454  0.00  0.00    +0.009 A 
ATOM     20  C   UNL     1      -7.486  -1.783  11.166  0.00  0.00    +0.050 A 
ATOM     21  C   UNL     1      -7.607  -3.113  11.536  0.00  0.00    +0.166 A 
ATOM     22  C   UNL     1      -6.611  -4.022  11.188  0.00  0.00    +0.167 A 
ATOM     23  C   UNL     1      -5.507  -3.592  10.470  0.00  0.00    +0.054 A 
ATOM     24  O   UNL     1      -6.959  -5.253  11.663  0.00  0.00    -0.453 OA
ATOM     25  C   UNL     1      -7.974  -5.010  12.654  0.00  0.00    +0.466 C 
ATOM     26  O   UNL     1      -8.579  -3.775  12.229  0.00  0.00    -0.453 OA
ENDBRANCH  17  18
ENDBRANCH  15  17
ENDBRANCH   6  13
BRANCH   1  28
ATOM     27  C   UNL     1       0.765  -1.807   0.423  0.00  0.00    +0.024 C 
ATOM     28  C   UNL     1      -0.529  -1.771  -0.394  0.00  0.00    +0.104 C 
ENDBRANCH   1  28
BRANCH   1  29
ATOM     29  C   UNL     1      -1.297   0.641  -0.214  0.00  0.00    +0.104 C 
ATOM     30  C   UNL     1      -2.261   0.953  -1.360  0.00  0.00    +0.024 C 
ENDBRANCH   1  29
BRANCH  12  31
ATOM     31  C   UNL     1      -3.797  -1.680  -0.888  0.00  0.00    +0.163 C 
BRANCH  31  32
ATOM     32  C   UNL     1      -3.533  -3.088  -1.357  0.00  0.00    -0.028 A 
ATOM     33  C   UNL     1      -2.300  -3.421  -1.885  0.00  0.00    +0.005 A 
ATOM     34  C   UNL     1      -2.058  -4.712  -2.315  0.00  0.00    +0.004 A 
ATOM     35  C   UNL     1      -3.049  -5.670  -2.217  0.00  0.00    -0.050 A 
ATOM     36  C   UNL     1      -4.282  -5.338  -1.688  0.00  0.00    +0.004 A 
ATOM     37  C   UNL     1      -4.523  -4.048  -1.254  0.00  0.00    +0.005 A 
ATOM     38  C   UNL     1      -2.785  -7.078  -2.686  0.00  0.00    +0.044 C 
ENDBRANCH  31  32
ENDBRANCH  12  31
TORSDOF 7
