REMARK  Name = ZINC20732951
REMARK  3 active torsions:
REMARK  status: ('A' for Active; 'I' for Inactive)
REMARK    1  A    between atoms: C_5  and  C_7
REMARK    2  A    between atoms: N_11  and  C_19
REMARK    3  A    between atoms: C_19  and  C_20
REMARK                            x       y       z     vdW  Elec       q    Type
REMARK                         _______ _______ _______ _____ _____    ______ ____
ROOT
ATOM      1  C   UNL     1       2.465   1.893  -0.010  0.00  0.00    +0.060 C 
ATOM      2  C   UNL     1       3.619   2.587  -0.120  0.00  0.00    +0.191 C 
ATOM      3  C   UNL     1       3.634   4.065  -0.123  0.00  0.00    +0.287 C 
ATOM      4  O   UNL     1       2.663   4.705  -0.480  0.00  0.00    -0.266 OA
ATOM      5  N   UNL     1       4.771   4.678   0.293  0.00  0.00    -0.253 N 
ATOM      6  C   UNL     1       5.855   3.889   0.701  0.00  0.00    +0.080 A 
ATOM      7  C   UNL     1       6.918   4.466   1.379  0.00  0.00    +0.027 A 
ATOM      8  C   UNL     1       7.985   3.685   1.783  0.00  0.00    +0.002 A 
ATOM      9  C   UNL     1       7.996   2.329   1.513  0.00  0.00    +0.004 A 
ATOM     10  C   UNL     1       6.940   1.746   0.838  0.00  0.00    +0.048 A 
ATOM     11  C   UNL     1       5.868   2.522   0.429  0.00  0.00    +0.150 A 
ATOM     12  O   UNL     1       4.826   1.952  -0.238  0.00  0.00    -0.449 OA
ENDROOT
BRANCH   1  17
ATOM     13  C   UNL     1       0.009   4.287   1.508  0.00  0.00    +0.001 A 
ATOM     14  C   UNL     1      -1.157   3.924   0.856  0.00  0.00    +0.001 A 
ATOM     15  C   UNL     1      -1.147   2.907  -0.081  0.00  0.00    +0.016 A 
ATOM     16  C   UNL     1       0.026   2.237  -0.365  0.00  0.00    +0.025 A 
ATOM     17  C   UNL     1       1.209   2.598   0.290  0.00  0.00    -0.007 A 
ATOM     18  C   UNL     1       1.190   3.631   1.232  0.00  0.00    +0.009 A 
ATOM     19 BR   UNL     1       0.036   0.842  -1.641  0.00  0.00    -0.050 Br
ENDBRANCH   1  17
BRANCH   5  20
ATOM     20  C   UNL     1       4.866   6.140   0.310  0.00  0.00    +0.210 C 
BRANCH  20  21
ATOM     21  C   UNL     1       5.388   6.624  -1.018  0.00  0.00    +0.233 C 
ATOM     22  O   UNL     1       5.656   5.827  -1.892  0.00  0.00    -0.274 OA
ATOM     23  N   UNL     1       5.559   7.944  -1.234  0.00  0.00    -0.297 N 
ATOM     24  C   UNL     1       5.235   8.928  -0.190  0.00  0.00    +0.126 C 
ATOM     25  C   UNL     1       6.448   9.854  -0.009  0.00  0.00    +0.125 C 
ATOM     26  N   UNL     1       6.817  10.429  -1.309  0.00  0.00    -0.314 N 
ATOM     27  C   UNL     1       7.242   9.384  -2.252  0.00  0.00    +0.125 C 
ATOM     28  C   UNL     1       6.067   8.438  -2.523  0.00  0.00    +0.126 C 
ATOM     29  C   UNL     1       7.803  11.398  -1.164  0.00  0.00    +0.099 A 
ATOM     30  C   UNL     1       7.586  12.479  -0.314  0.00  0.00    +0.042 A 
ATOM     31  C   UNL     1       8.577  13.433  -0.174  0.00  0.00    +0.005 A 
ATOM     32  C   UNL     1       9.752  13.281  -0.900  0.00  0.00    +0.018 A 
ATOM     33  C   UNL     1       9.897  12.187  -1.729  0.00  0.00    +0.084 A 
ATOM     34  N   UNL     1       8.936  11.289  -1.839  0.00  0.00    -0.350 N 
ATOM     35  H   UNL     1       9.095  10.433  -2.511  0.00  0.00    +0.166 HD
ENDBRANCH  20  21
ENDBRANCH   5  20
TORSDOF 3
