REMARK  Name = ZINC39676595
REMARK  13 active torsions:
REMARK  status: ('A' for Active; 'I' for Inactive)
REMARK    1  A    between atoms: C_1  and  C_2
REMARK    2  A    between atoms: C_2  and  C_3
REMARK    3  A    between atoms: C_3  and  C_5
REMARK    4  A    between atoms: C_3  and  C_6
REMARK    5  A    between atoms: C_6  and  C_7
REMARK    6  A    between atoms: C_11  and  C_20
REMARK    7  A    between atoms: N_22  and  C_23
REMARK    8  A    between atoms: C_23  and  C_24
REMARK    9  A    between atoms: C_23  and  C_32
REMARK   10  A    between atoms: C_27  and  O_30
REMARK   11  A    between atoms: O_30  and  C_31
REMARK   12  A    between atoms: C_35  and  O_38
REMARK   13  A    between atoms: O_38  and  C_39
REMARK                            x       y       z     vdW  Elec       q    Type
REMARK                         _______ _______ _______ _____ _____    ______ ____
ROOT
ATOM      1  C   UNL     1      -2.220  -6.090   1.839  0.00  0.00    +0.219 C 
ATOM      2  O   UNL     1      -1.828  -5.047   2.318  0.00  0.00    -0.275 OA
ATOM      3  N   UNL     1      -2.223  -7.214   2.583  0.00  0.00    -0.304 N 
ATOM      4  H   UNL     1      -2.537  -8.048   2.200  0.00  0.00    +0.150 HD
ENDROOT
BRANCH   1   9
ATOM      5  C   UNL     1      -2.530  -2.590  -0.335  0.00  0.00    +0.216 C 
ATOM      6  O   UNL     1      -3.392  -1.737  -0.336  0.00  0.00    -0.276 OA
ATOM      7  N   UNL     1      -2.870  -3.891  -0.426  0.00  0.00    -0.300 N 
ATOM      8  C   UNL     1      -1.969  -5.067  -0.435  0.00  0.00    +0.121 C 
ATOM      9  C   UNL     1      -2.705  -6.129   0.413  0.00  0.00    +0.100 C 
ATOM     10  C   UNL     1      -4.189  -5.732   0.338  0.00  0.00    -0.004 C 
ATOM     11  C   UNL     1      -4.231  -4.469  -0.535  0.00  0.00    +0.115 C 
ATOM     12  C   UNL     1      -4.724  -5.421   1.732  0.00  0.00    -0.010 C 
ATOM     13  C   UNL     1      -6.215  -5.084   1.638  0.00  0.00    -0.082 C 
ATOM     14  N   UNL     1      -6.939  -6.221   1.056  0.00  0.00    +0.379 N 
ATOM     15  C   UNL     1      -6.483  -6.455  -0.319  0.00  0.00    -0.082 C 
ATOM     16  C   UNL     1      -5.003  -6.849  -0.308  0.00  0.00    -0.010 C 
ATOM     17  H   UNL     1      -6.768  -7.046   1.611  0.00  0.00    -0.086 HD
ATOM     18  H   UNL     1      -7.928  -6.021   1.051  0.00  0.00    -0.086 HD
BRANCH   5  19
ATOM     19  C   UNL     1      -1.079  -2.196  -0.232  0.00  0.00    +0.099 C 
BRANCH  19  20
ATOM     20  C   UNL     1      -0.970  -0.673  -0.141  0.00  0.00    -0.006 C 
ATOM     21  C   UNL     1      -1.613  -0.192   1.161  0.00  0.00    +0.008 C 
BRANCH  20  23
ATOM     22  C   UNL     1       0.612   1.260  -0.197  0.00  0.00    +0.004 C 
ATOM     23  C   UNL     1       0.505  -0.266  -0.162  0.00  0.00    +0.000 C 
ENDBRANCH  20  23
ENDBRANCH  19  20
ENDBRANCH   5  19
ENDBRANCH   1   9
BRANCH   3  24
ATOM     24  C   UNL     1      -1.752  -7.176   3.970  0.00  0.00    +0.134 C 
BRANCH  24  25
ATOM     25  C   UNL     1      -2.390  -8.298   4.748  0.00  0.00    -0.023 A 
ATOM     26  C   UNL     1      -2.540  -9.543   4.166  0.00  0.00    +0.009 A 
ATOM     27  C   UNL     1      -3.125 -10.573   4.877  0.00  0.00    +0.046 A 
ATOM     28  C   UNL     1      -3.561 -10.358   6.176  0.00  0.00    +0.120 A 
ATOM     29  C   UNL     1      -3.408  -9.107   6.758  0.00  0.00    +0.046 A 
ATOM     30  C   UNL     1      -2.818  -8.082   6.045  0.00  0.00    +0.009 A 
BRANCH  28  31
ATOM     31  O   UNL     1      -4.137 -11.369   6.878  0.00  0.00    -0.495 OA
ATOM     32  C   UNL     1      -4.562 -11.075   8.210  0.00  0.00    +0.277 C 
ENDBRANCH  28  31
ENDBRANCH  24  25
BRANCH  24  33
ATOM     33  C   UNL     1      -0.254  -7.334   3.996  0.00  0.00    -0.023 A 
ATOM     34  C   UNL     1       0.361  -8.227   3.137  0.00  0.00    +0.009 A 
ATOM     35  C   UNL     1       1.734  -8.374   3.160  0.00  0.00    +0.046 A 
ATOM     36  C   UNL     1       2.497  -7.626   4.045  0.00  0.00    +0.120 A 
ATOM     37  C   UNL     1       1.878  -6.731   4.905  0.00  0.00    +0.046 A 
ATOM     38  C   UNL     1       0.504  -6.583   4.875  0.00  0.00    +0.009 A 
BRANCH  36  39
ATOM     39  O   UNL     1       3.848  -7.770   4.069  0.00  0.00    -0.495 OA
ATOM     40  C   UNL     1       4.569  -6.967   5.006  0.00  0.00    +0.277 C 
ENDBRANCH  36  39
ENDBRANCH  24  33
ENDBRANCH   3  24
TORSDOF 9
