REMARK  Name = ZINC67063869
REMARK  6 active torsions:
REMARK  status: ('A' for Active; 'I' for Inactive)
REMARK    1  A    between atoms: C_1  and  C_2
REMARK    2  A    between atoms: C_2  and  C_4
REMARK    3  A    between atoms: C_2  and  N_12
REMARK    4  A    between atoms: C_7  and  S_10
REMARK    5  A    between atoms: S_10  and  C_11
REMARK    6  A    between atoms: C_19  and  C_22
REMARK                            x       y       z     vdW  Elec       q    Type
REMARK                         _______ _______ _______ _____ _____    ______ ____
ROOT
ATOM      1  N   UNL     1       0.709  -0.493   1.188  0.00  0.00    -0.293 N 
ATOM      2  C   UNL     1       0.051  -0.633   2.355  0.00  0.00    +0.303 C 
ATOM      3  O   UNL     1      -1.106  -0.272   2.448  0.00  0.00    -0.253 OA
ATOM      4  N   UNL     1       0.676  -1.174   3.420  0.00  0.00    -0.281 N 
ATOM      5  C   UNL     1       2.108  -1.508   3.369  0.00  0.00    +0.137 C 
ATOM      6  C   UNL     1       2.791  -0.896   4.597  0.00  0.00    +0.179 C 
ATOM      7  O   UNL     1       2.088  -1.296   5.776  0.00  0.00    -0.369 OA
ATOM      8  C   UNL     1       0.735  -0.838   5.833  0.00  0.00    +0.168 C 
ATOM      9  C   UNL     1      -0.053  -1.442   4.670  0.00  0.00    +0.145 C 
ATOM     10  H   UNL     1       1.652  -0.715   1.133  0.00  0.00    +0.151 HD
ENDROOT
BRANCH   8  11
ATOM     11  C   UNL     1       0.115  -1.263   7.139  0.00  0.00    +0.018 A 
ATOM     12  C   UNL     1       0.610  -2.362   7.814  0.00  0.00    +0.009 A 
ATOM     13  C   UNL     1       0.041  -2.752   9.012  0.00  0.00    +0.001 A 
ATOM     14  C   UNL     1      -1.023  -2.043   9.537  0.00  0.00    +0.003 A 
ATOM     15  C   UNL     1      -1.520  -0.943   8.864  0.00  0.00    +0.039 A 
ATOM     16  C   UNL     1      -0.948  -0.548   7.666  0.00  0.00    +0.129 A 
ATOM     17  F   UNL     1      -1.429   0.530   7.010  0.00  0.00    -0.205 F 
ENDBRANCH   8  11
BRANCH   1  19
ATOM     18  C   UNL     1      -0.015   1.522   0.007  0.00  0.00    +0.033 C 
ATOM     19  C   UNL     1       0.001  -0.007   0.001  0.00  0.00    +0.102 C 
BRANCH  19  20
ATOM     20  C   UNL     1       0.702  -0.498  -1.239  0.00  0.00    -0.027 A 
ATOM     21  C   UNL     1       2.084  -0.523  -1.286  0.00  0.00    +0.006 A 
ATOM     22  C   UNL     1       2.731  -0.971  -2.421  0.00  0.00    +0.015 A 
ATOM     23  C   UNL     1       1.991  -1.398  -3.517  0.00  0.00    +0.008 A 
ATOM     24  C   UNL     1       0.602  -1.372  -3.466  0.00  0.00    +0.015 A 
ATOM     25  C   UNL     1      -0.037  -0.927  -2.326  0.00  0.00    +0.006 A 
BRANCH  23  26
ATOM     26  S   UNL     1       2.811  -1.970  -4.967  0.00  0.00    -0.129 S 
ATOM     27  C   UNL     1       1.458  -2.406  -6.094  0.00  0.00    +0.090 C 
ENDBRANCH  23  26
ENDBRANCH  19  20
ENDBRANCH   1  19
TORSDOF 4
