REMARK  Name = ZINC41040762
REMARK  5 active torsions:
REMARK  status: ('A' for Active; 'I' for Inactive)
REMARK    1  A    between atoms: C_1  and  C_2
REMARK    2  A    between atoms: C_7  and  N_8
REMARK    3  A    between atoms: N_9  and  S_10
REMARK    4  A    between atoms: S_10  and  N_13
REMARK    5  A    between atoms: C_17  and  C_20
REMARK                            x       y       z     vdW  Elec       q    Type
REMARK                         _______ _______ _______ _____ _____    ______ ____
ROOT
ATOM      1  C   UNL     1      -0.018   1.503   0.010  0.00  0.00    +0.046 C 
ATOM      2  C   UNL     1       0.002  -0.004   0.002  0.00  0.00    -0.025 A 
ATOM      3  C   UNL     1       0.006  -0.680  -1.176  0.00  0.00    +0.053 A 
ATOM      4  C   UNL     1       0.026  -2.094  -1.165  0.00  0.00    +0.154 A 
ATOM      5  N   UNL     1       0.041  -2.765   0.033  0.00  0.00    -0.343 N 
ATOM      6  C   UNL     1       0.036  -2.073   1.211  0.00  0.00    +0.107 A 
ATOM      7  C   UNL     1       0.023  -0.719   1.217  0.00  0.00    +0.044 A 
ATOM      8  N   UNL     1       0.029  -2.765  -2.299  0.00  0.00    -0.100 NA
ATOM      9  H   UNL     1       0.054  -3.735   0.042  0.00  0.00    +0.167 HD
ENDROOT
BRANCH   7  10
ATOM     10  N   UNL     1       0.025  -0.024   2.437  0.00  0.00    -0.357 N 
ATOM     11  H   UNL     1       0.011   0.946   2.443  0.00  0.00    +0.142 HD
ATOM     12  H   UNL     1       0.040  -0.514   3.274  0.00  0.00    +0.142 HD
ENDBRANCH   7  10
BRANCH   8  13
ATOM     13  S   UNL     1       0.052  -4.421  -2.282  0.00  0.00    +0.140 S 
ATOM     14  O   UNL     1       1.306  -4.804  -1.733  0.00  0.00    -0.134 OA
ATOM     15  O   UNL     1      -1.185  -4.839  -1.720  0.00  0.00    -0.134 OA
BRANCH  13  16
ATOM     16  N   UNL     1       0.051  -4.928  -3.859  0.00  0.00    -0.160 NA
ATOM     17  C   UNL     1      -1.214  -5.168  -4.567  0.00  0.00    +0.111 C 
ATOM     18  C   UNL     1      -1.212  -4.360  -5.868  0.00  0.00    +0.017 C 
ATOM     19  C   UNL     1       0.038  -4.708  -6.679  0.00  0.00    +0.006 C 
ATOM     20  C   UNL     1       1.288  -4.336  -5.877  0.00  0.00    +0.002 C 
ATOM     21  C   UNL     1       1.315  -5.139  -4.578  0.00  0.00    +0.114 C 
ATOM     22  C   UNL     1       2.537  -4.654  -6.702  0.00  0.00    +0.009 C 
ENDBRANCH  13  16
ENDBRANCH   8  13
TORSDOF 3
