REMARK  Name = ZINC29745032
REMARK  5 active torsions:
REMARK  status: ('A' for Active; 'I' for Inactive)
REMARK    1  A    between atoms: C_1  and  C_2
REMARK    2  A    between atoms: C_2  and  N_9
REMARK    3  A    between atoms: C_10  and  C_12
REMARK    4  A    between atoms: C_12  and  S_13
REMARK    5  A    between atoms: S_13  and  C_14
REMARK                            x       y       z     vdW  Elec       q    Type
REMARK                         _______ _______ _______ _____ _____    ______ ____
ROOT
ATOM      1  N   UNL     1      -6.497   3.087   0.050  0.00  0.00    -0.308 N 
ATOM      2  C   UNL     1      -5.391   2.318   0.041  0.00  0.00    +0.224 C 
ATOM      3  O   UNL     1      -5.493   1.109   0.035  0.00  0.00    -0.275 OA
ATOM      4  H   UNL     1      -6.404   4.183   0.055  0.00  0.00    +0.149 HD
ENDROOT
BRANCH   1   6
ATOM      5  C   UNL     1      -7.971   1.593   1.302  0.00  0.00    +0.033 C 
ATOM      6  C   UNL     1      -7.823   2.464   0.054  0.00  0.00    +0.052 C 
ATOM      7  C   UNL     1      -8.902   3.559   0.065  0.00  0.00    +0.049 C 
ATOM      8  C   UNL     1      -8.934   4.222  -1.342  0.00  0.00    +0.168 C 
ATOM      9  S   UNL     1      -8.741   2.739  -2.418  0.00  0.00    -0.029 S 
ATOM     10  O   UNL     1     -10.029   2.255  -2.773  0.00  0.00    -0.174 OA
ATOM     11  O   UNL     1      -7.797   3.029  -3.440  0.00  0.00    -0.174 OA
ATOM     12  C   UNL     1      -7.979   1.582  -1.208  0.00  0.00    +0.191 C 
ENDBRANCH   1   6
BRANCH   2  13
ATOM     13  C   UNL     1      -4.027   2.959   0.038  0.00  0.00    +0.170 C 
BRANCH  13  14
ATOM     14  S   UNL     1      -2.752   1.668   0.025  0.00  0.00    -0.115 S 
BRANCH  14  15
ATOM     15  C   UNL     1      -1.236   2.566   0.022  0.00  0.00    +0.022 A 
ATOM     16  C   UNL     1      -1.250   3.956   0.035  0.00  0.00    +0.016 A 
ATOM     17  C   UNL     1      -0.060   4.657   0.026  0.00  0.00    +0.001 A 
ATOM     18  C   UNL     1       1.145   3.978   0.012  0.00  0.00    +0.001 A 
ATOM     19  C   UNL     1       1.163   2.595   0.005  0.00  0.00    +0.016 A 
ATOM     20  C   UNL     1      -0.024   1.887   0.012  0.00  0.00    +0.031 A 
ATOM     21 BR   UNL     1       0.002  -0.004   0.002  0.00  0.00    -0.049 Br
ENDBRANCH  14  15
ENDBRANCH  13  14
ENDBRANCH   2  13
TORSDOF 4
