REMARK  Name = ZINC39676516
REMARK  7 active torsions:
REMARK  status: ('A' for Active; 'I' for Inactive)
REMARK    1  A    between atoms: C_1  and  C_2
REMARK    2  A    between atoms: C_4  and  C_9
REMARK    3  A    between atoms: C_5  and  C_8
REMARK    4  A    between atoms: C_13  and  C_22
REMARK    5  A    between atoms: N_24  and  C_25
REMARK    6  A    between atoms: C_25  and  C_26
REMARK    7  A    between atoms: C_26  and  C_27
REMARK                            x       y       z     vdW  Elec       q    Type
REMARK                         _______ _______ _______ _____ _____    ______ ____
ROOT
ATOM      1  C   UNL     1      -2.488  -0.513  -0.962  0.00  0.00    +0.247 C 
ATOM      2  O   UNL     1      -3.586  -1.014  -0.800  0.00  0.00    -0.270 OA
ATOM      3  N   UNL     1      -2.178   0.064  -2.140  0.00  0.00    -0.296 N 
ATOM      4  C   UNL     1      -0.871   0.620  -2.563  0.00  0.00    +0.121 C 
ATOM      5  C   UNL     1      -0.735   0.211  -4.047  0.00  0.00    +0.100 C 
ATOM      6  C   UNL     1      -2.179  -0.005  -4.529  0.00  0.00    -0.004 C 
ATOM      7  C   UNL     1      -3.066   0.280  -3.308  0.00  0.00    +0.115 C 
ATOM      8  C   UNL     1      -2.373  -1.447  -4.989  0.00  0.00    -0.010 C 
ATOM      9  C   UNL     1      -3.800  -1.622  -5.516  0.00  0.00    -0.082 C 
ATOM     10  N   UNL     1      -4.028  -0.696  -6.632  0.00  0.00    +0.379 N 
ATOM     11  C   UNL     1      -3.931   0.690  -6.160  0.00  0.00    -0.082 C 
ATOM     12  C   UNL     1      -2.510   0.964  -5.660  0.00  0.00    -0.010 C 
ATOM     13  H   UNL     1      -3.334  -0.856  -7.347  0.00  0.00    -0.086 HD
ATOM     14  H   UNL     1      -4.947  -0.856  -7.017  0.00  0.00    -0.086 HD
ENDROOT
BRANCH   1  17
ATOM     15  C   UNL     1      -2.795   0.156   2.129  0.00  0.00    +0.046 C 
ATOM     16  C   UNL     1      -1.522   0.358   1.305  0.00  0.00    +0.182 C 
ATOM     17  C   UNL     1      -1.538  -0.536   0.086  0.00  0.00    +0.066 C 
ATOM     18  C   UNL     1      -0.476  -1.360   0.185  0.00  0.00    +0.046 C 
ATOM     19  N   UNL     1       0.228  -1.110   1.321  0.00  0.00    -0.269 N 
ATOM     20  O   UNL     1      -0.371  -0.055   2.055  0.00  0.00    -0.266 OA
ATOM     21  C   UNL     1      -0.118  -2.417  -0.827  0.00  0.00    +0.066 C 
ATOM     22  H   UNL     1       1.029  -1.586   1.591  0.00  0.00    +0.194 HD
ENDBRANCH   1  17
BRANCH   5  23
ATOM     23  C   UNL     1      -0.075   1.313  -4.836  0.00  0.00    +0.218 C 
ATOM     24  O   UNL     1      -0.231   2.470  -4.508  0.00  0.00    -0.275 OA
ATOM     25  N   UNL     1       0.687   1.012  -5.906  0.00  0.00    -0.315 N 
ATOM     26  H   UNL     1       0.811   0.086  -6.168  0.00  0.00    +0.149 HD
BRANCH  25  27
ATOM     27  C   UNL     1       1.328   2.083  -6.673  0.00  0.00    +0.109 C 
BRANCH  27  28
ATOM     28  C   UNL     1       2.128   1.475  -7.827  0.00  0.00    +0.056 C 
BRANCH  28  29
ATOM     29  C   UNL     1       2.788   2.576  -8.616  0.00  0.00    -0.021 A 
ATOM     30  C   UNL     1       4.072   3.214  -8.317  0.00  0.00    +0.004 A 
ATOM     31  C   UNL     1       5.028   3.045  -7.313  0.00  0.00    +0.030 A 
ATOM     32  C   UNL     1       6.163   3.826  -7.315  0.00  0.00    +0.042 A 
ATOM     33  C   UNL     1       6.359   4.777  -8.308  0.00  0.00    +0.022 A 
ATOM     34  C   UNL     1       5.425   4.955  -9.305  0.00  0.00    +0.027 A 
ATOM     35  C   UNL     1       4.272   4.177  -9.322  0.00  0.00    +0.047 A 
ATOM     36  N   UNL     1       3.182   4.118 -10.163  0.00  0.00    -0.360 N 
ATOM     37  C   UNL     1       2.312   3.156  -9.730  0.00  0.00    +0.087 A 
ATOM     38 CL   UNL     1       7.354   3.620  -6.069  0.00  0.00    -0.084 Cl
ATOM     39  H   UNL     1       3.053   4.674 -10.947  0.00  0.00    +0.165 HD
ENDBRANCH  28  29
ENDBRANCH  27  28
ENDBRANCH  25  27
ENDBRANCH   5  23
TORSDOF 5
