REMARK  Name = ZINC66740452
REMARK  2 active torsions:
REMARK  status: ('A' for Active; 'I' for Inactive)
REMARK    1  A    between atoms: C_1  and  C_2
REMARK    2  A    between atoms: C_14  and  C_22
REMARK                            x       y       z     vdW  Elec       q    Type
REMARK                         _______ _______ _______ _____ _____    ______ ____
ROOT
ATOM      1  C   UNL     1      -0.018   1.503   0.010  0.00  0.00    +0.044 C 
ATOM      2  C   UNL     1       0.002  -0.004   0.002  0.00  0.00    -0.050 A 
ATOM      3  C   UNL     1       0.005  -0.673  -1.205  0.00  0.00    +0.005 A 
ATOM      4  C   UNL     1       0.023  -2.057  -1.277  0.00  0.00    +0.024 A 
ATOM      5  C   UNL     1       0.038  -2.759  -0.070  0.00  0.00    +0.041 A 
ATOM      6  C   UNL     1       0.035  -2.068   1.147  0.00  0.00    +0.024 A 
ATOM      7  C   UNL     1       0.023  -0.691   1.211  0.00  0.00    +0.013 A 
ATOM      8  C   UNL     1       0.052  -3.109   2.224  0.00  0.00    +0.206 C 
ATOM      9  C   UNL     1       0.065  -4.423   1.466  0.00  0.00    +0.264 C 
ATOM     10  O   UNL     1       0.080  -5.535   1.952  0.00  0.00    -0.271 OA
ATOM     11  N   UNL     1       0.057  -4.124   0.152  0.00  0.00    -0.282 N 
ATOM     12  N   UNL     1       1.289  -3.000   3.013  0.00  0.00    -0.309 N 
ATOM     13  C   UNL     1       1.282  -2.084   4.074  0.00  0.00    +0.082 A 
ATOM     14  C   UNL     1       2.228  -1.408   4.733  0.00  0.00    +0.055 A 
ATOM     15  N   UNL     1       1.590  -0.653   5.675  0.00  0.00    -0.279 N 
ATOM     16  H   UNL     1       2.031  -0.057   6.301  0.00  0.00    +0.189 HD
ATOM     17  N   UNL     1       0.314  -0.846   5.614  0.00  0.00    -0.167 NA
ATOM     18  C   UNL     1       0.038  -1.701   4.675  0.00  0.00    +0.168 A 
ATOM     19  C   UNL     1      -1.221  -2.291   4.181  0.00  0.00    +0.268 C 
ATOM     20  O   UNL     1      -2.274  -2.126   4.766  0.00  0.00    -0.268 OA
ATOM     21  N   UNL     1      -1.148  -3.026   3.045  0.00  0.00    -0.278 N 
ATOM     22  C   UNL     1       3.713  -1.468   4.485  0.00  0.00    +0.067 C 
ATOM     23  H   UNL     1       0.064  -4.788  -0.555  0.00  0.00    +0.155 HD
ATOM     24  H   UNL     1       2.071  -3.536   2.810  0.00  0.00    +0.149 HD
ATOM     25  H   UNL     1      -1.934  -3.520   2.765  0.00  0.00    +0.152 HD
ENDROOT
TORSDOF 0
