REMARK  Name = ZINC34834983
REMARK  18 active torsions:
REMARK  status: ('A' for Active; 'I' for Inactive)
REMARK    1  A    between atoms: C_1  and  C_2
REMARK    2  A    between atoms: C_2  and  C_3
REMARK    3  A    between atoms: C_3  and  C_4
REMARK    4  A    between atoms: C_4  and  C_5
REMARK    5  A    between atoms: C_5  and  C_7
REMARK    6  A    between atoms: C_5  and  C_9
REMARK    7  A    between atoms: C_7  and  C_8
REMARK    8  A    between atoms: N_11  and  C_12
REMARK    9  A    between atoms: N_11  and  C_33
REMARK   10  A    between atoms: C_12  and  C_13
REMARK   11  A    between atoms: C_14  and  C_32
REMARK   12  A    between atoms: N_16  and  C_26
REMARK   13  A    between atoms: C_17  and  N_18
REMARK   14  A    between atoms: N_21  and  C_24
REMARK   15  A    between atoms: C_24  and  C_25
REMARK   16  A    between atoms: C_33  and  C_35
REMARK   17  A    between atoms: C_33  and  C_36
REMARK   18  A    between atoms: C_36  and  C_37
REMARK                            x       y       z     vdW  Elec       q    Type
REMARK                         _______ _______ _______ _____ _____    ______ ____
ROOT
ATOM      1  C   UNL     1       3.716  -5.216   2.386  0.00  0.00    +0.032 A 
ATOM      2  C   UNL     1       3.331  -4.414   1.307  0.00  0.00    +0.067 A 
ATOM      3  N   UNL     1       4.197  -3.440   1.185  0.00  0.00    -0.170 NA
ATOM      4  N   UNL     1       5.169  -3.584   2.183  0.00  0.00    -0.218 N 
ATOM      5  C   UNL     1       4.850  -4.684   2.918  0.00  0.00    +0.130 A 
ATOM      6  C   UNL     1       2.124  -4.634   0.432  0.00  0.00    +0.068 C 
ENDROOT
BRANCH   5   7
ATOM      7  N   UNL     1       5.556  -5.177   4.012  0.00  0.00    -0.318 N 
ATOM      8  C   UNL     1       6.525  -6.273   3.855  0.00  0.00    +0.088 C 
ATOM      9  C   UNL     1       7.841  -5.857   4.521  0.00  0.00    -0.060 C 
ATOM     10  N   UNL     1       7.583  -5.471   5.914  0.00  0.00    +0.382 N 
ATOM     11  C   UNL     1       6.727  -4.279   5.952  0.00  0.00    -0.060 C 
ATOM     12  C   UNL     1       5.360  -4.613   5.356  0.00  0.00    +0.088 C 
ATOM     13  H   UNL     1       7.121  -6.230   6.392  0.00  0.00    -0.082 HD
BRANCH  10  14
ATOM     14  C   UNL     1       8.857  -5.178   6.583  0.00  0.00    -0.082 C 
ATOM     15  C   UNL     1       8.602  -4.897   8.066  0.00  0.00    -0.017 C 
ENDBRANCH  10  14
ENDBRANCH   5   7
BRANCH   4  16
ATOM     16  C   UNL     1       6.270  -2.742   2.391  0.00  0.00    +0.067 A 
ATOM     17  C   UNL     1       6.516  -2.217   3.653  0.00  0.00    +0.028 A 
ATOM     18  C   UNL     1       7.602  -1.388   3.855  0.00  0.00    +0.002 A 
ATOM     19  C   UNL     1       8.443  -1.080   2.803  0.00  0.00    +0.000 A 
ATOM     20  C   UNL     1       8.201  -1.601   1.544  0.00  0.00    +0.002 A 
ATOM     21  C   UNL     1       7.120  -2.435   1.337  0.00  0.00    +0.028 A 
ENDBRANCH   4  16
BRANCH   1  22
ATOM     22  C   UNL     1       2.998  -6.447   2.876  0.00  0.00    +0.148 C 
BRANCH  22  25
ATOM     23  C   UNL     1       0.608  -6.008   3.054  0.00  0.00    +0.219 C 
ATOM     24  O   UNL     1       0.505  -6.244   1.869  0.00  0.00    -0.275 OA
ATOM     25  N   UNL     1       1.817  -6.050   3.647  0.00  0.00    -0.294 N 
BRANCH  25  26
ATOM     26  C   UNL     1       1.952  -5.697   5.063  0.00  0.00    +0.073 C 
ATOM     27  C   UNL     1       2.346  -4.224   5.187  0.00  0.00    +0.028 C 
BRANCH  26  28
ATOM     28  C   UNL     1       3.032  -6.570   5.705  0.00  0.00    +0.019 C 
ATOM     29  C   UNL     1       2.626  -8.042   5.602  0.00  0.00    +0.005 C 
ENDBRANCH  26  28
ENDBRANCH  25  26
BRANCH  23  30
ATOM     30  C   UNL     1      -0.617  -5.667   3.864  0.00  0.00    +0.075 C 
BRANCH  30  31
ATOM     31  C   UNL     1      -1.543  -6.883   3.923  0.00  0.00    +0.009 C 
ATOM     32  C   UNL     1      -0.871  -7.998   4.728  0.00  0.00    +0.004 C 
ENDBRANCH  30  31
BRANCH  30  33
ATOM     33  C   UNL     1      -1.353  -4.497   3.208  0.00  0.00    +0.013 C 
BRANCH  33  34
ATOM     34  C   UNL     1      -2.525  -4.071   4.095  0.00  0.00    +0.000 C 
BRANCH  34  36
ATOM     35  C   UNL     1      -4.433  -2.474   4.325  0.00  0.00    +0.004 C 
ATOM     36  C   UNL     1      -3.261  -2.901   3.439  0.00  0.00    -0.003 C 
ENDBRANCH  34  36
ENDBRANCH  33  34
ENDBRANCH  30  33
ENDBRANCH  23  30
ENDBRANCH  22  25
ENDBRANCH   1  22
TORSDOF 12
