REMARK  Name = ZINC46721581
REMARK  12 active torsions:
REMARK  status: ('A' for Active; 'I' for Inactive)
REMARK    1  A    between atoms: C_1  and  C_2
REMARK    2  A    between atoms: C_2  and  C_4
REMARK    3  A    between atoms: C_2  and  N_19
REMARK    4  A    between atoms: N_6  and  C_7
REMARK    5  A    between atoms: C_11  and  S_13
REMARK    6  A    between atoms: S_13  and  N_16
REMARK    7  A    between atoms: N_16  and  C_17
REMARK    8  A    between atoms: N_16  and  C_18
REMARK    9  A    between atoms: N_19  and  C_20
REMARK   10  A    between atoms: N_19  and  C_21
REMARK   11  A    between atoms: C_21  and  C_22
REMARK   12  A    between atoms: C_25  and  C_28
REMARK                            x       y       z     vdW  Elec       q    Type
REMARK                         _______ _______ _______ _____ _____    ______ ____
ROOT
ATOM      1  C   UNL     1       0.648   1.114  -0.479  0.00  0.00    -0.004 C 
ATOM      2  C   UNL     1      -0.042  -0.154   0.026  0.00  0.00    +0.016 C 
ENDROOT
BRANCH   2   3
ATOM      3  C   UNL     1       0.680  -0.667   1.246  0.00  0.00    +0.203 C 
ATOM      4  O   UNL     1       1.543  -1.512   1.130  0.00  0.00    -0.277 OA
ATOM      5  N   UNL     1       0.367  -0.187   2.466  0.00  0.00    -0.287 N 
ATOM      6  H   UNL     1      -0.366   0.441   2.566  0.00  0.00    +0.155 HD
BRANCH   5   7
ATOM      7  C   UNL     1       1.098  -0.594   3.587  0.00  0.00    +0.035 A 
ATOM      8  C   UNL     1       2.448  -0.899   3.464  0.00  0.00    +0.023 A 
ATOM      9  C   UNL     1       3.167  -1.301   4.572  0.00  0.00    +0.004 A 
ATOM     10  C   UNL     1       2.545  -1.399   5.804  0.00  0.00    +0.028 A 
ATOM     11  C   UNL     1       1.202  -1.096   5.929  0.00  0.00    +0.107 A 
ATOM     12  C   UNL     1       0.478  -0.688   4.825  0.00  0.00    +0.051 A 
BRANCH  11  13
ATOM     13  S   UNL     1       0.414  -1.224   7.500  0.00  0.00    +0.060 S 
ATOM     14  O   UNL     1      -0.972  -1.411   7.245  0.00  0.00    -0.153 OA
ATOM     15  O   UNL     1       1.179  -2.145   8.265  0.00  0.00    -0.153 OA
BRANCH  13  16
ATOM     16  N   UNL     1       0.564   0.248   8.244  0.00  0.00    -0.183 NA
ATOM     17  C   UNL     1      -0.466   1.273   8.054  0.00  0.00    +0.131 C 
ATOM     18  C   UNL     1       1.725   0.525   9.092  0.00  0.00    +0.131 C 
ENDBRANCH  13  16
ENDBRANCH  11  13
ENDBRANCH   5   7
ENDBRANCH   2   3
BRANCH   2  19
ATOM     19  N   UNL     1      -0.013  -1.179  -1.026  0.00  0.00    +0.388 N 
ATOM     20  C   UNL     1      -0.756  -2.364  -0.576  0.00  0.00    -0.095 C 
ATOM     21  H   UNL     1       0.943  -1.435  -1.221  0.00  0.00    -0.081 HD
BRANCH  19  22
ATOM     22  C   UNL     1      -0.635  -0.646  -2.246  0.00  0.00    -0.042 C 
BRANCH  22  23
ATOM     23  C   UNL     1      -0.497  -1.651  -3.360  0.00  0.00    -0.064 A 
ATOM     24  C   UNL     1       0.615  -1.619  -4.183  0.00  0.00    +0.002 A 
ATOM     25  C   UNL     1       0.746  -2.536  -5.206  0.00  0.00    +0.009 A 
ATOM     26  C   UNL     1      -0.243  -3.496  -5.408  0.00  0.00    -0.018 A 
ATOM     27  C   UNL     1      -1.361  -3.524  -4.577  0.00  0.00    +0.009 A 
ATOM     28  C   UNL     1      -1.479  -2.605  -3.554  0.00  0.00    +0.002 A 
BRANCH  26  29
ATOM     29  C   UNL     1      -0.107  -4.485  -6.506  0.00  0.00    -0.018 A 
ATOM     30  C   UNL     1       1.013  -4.461  -7.335  0.00  0.00    +0.008 A 
ATOM     31  C   UNL     1       1.134  -5.383  -8.354  0.00  0.00    +0.001 A 
ATOM     32  C   UNL     1       0.146  -6.330  -8.555  0.00  0.00    +0.000 A 
ATOM     33  C   UNL     1      -0.968  -6.359  -7.735  0.00  0.00    +0.001 A 
ATOM     34  C   UNL     1      -1.097  -5.445  -6.709  0.00  0.00    +0.008 A 
ENDBRANCH  26  29
ENDBRANCH  22  23
ENDBRANCH  19  22
ENDBRANCH   2  19
TORSDOF 8
