REMARK  Name = ZINC15672449
REMARK  7 active torsions:
REMARK  status: ('A' for Active; 'I' for Inactive)
REMARK    1  A    between atoms: C_1  and  C_2
REMARK    2  A    between atoms: C_4  and  C_32
REMARK    3  A    between atoms: C_6  and  N_8
REMARK    4  A    between atoms: C_17  and  C_18
REMARK    5  A    between atoms: C_17  and  C_19
REMARK    6  A    between atoms: N_21  and  C_22
REMARK    7  A    between atoms: C_25  and  C_28
REMARK                            x       y       z     vdW  Elec       q    Type
REMARK                         _______ _______ _______ _____ _____    ______ ____
ROOT
ATOM      1  N   UNL     1      -0.180  -2.892  -2.295  0.00  0.00    -0.250 N 
ATOM      2  C   UNL     1      -0.251  -4.237  -2.155  0.00  0.00    +0.268 C 
ATOM      3  O   UNL     1      -0.531  -4.758  -1.091  0.00  0.00    -0.268 OA
ATOM      4  C   UNL     1       0.022  -5.033  -3.357  0.00  0.00    +0.107 A 
ATOM      5  C   UNL     1      -0.144  -6.365  -3.597  0.00  0.00    +0.048 A 
ATOM      6  C   UNL     1       0.256  -6.598  -4.907  0.00  0.00    +0.038 A 
ATOM      7  C   UNL     1       0.681  -5.394  -5.489  0.00  0.00    +0.057 A 
ATOM      8  N   UNL     1       0.533  -4.435  -4.504  0.00  0.00    -0.333 N 
ATOM      9  C   UNL     1       0.842  -3.004  -4.559  0.00  0.00    +0.158 C 
ATOM     10  C   UNL     1      -0.087  -2.255  -3.603  0.00  0.00    +0.133 C 
ATOM     11  C   UNL     1      -1.484  -2.192  -4.223  0.00  0.00    +0.044 C 
ATOM     12  C   UNL     1       1.112  -5.483  -6.821  0.00  0.00    +0.034 A 
ATOM     13  C   UNL     1       1.104  -6.672  -7.459  0.00  0.00    +0.048 A 
ATOM     14  S   UNL     1       0.475  -7.781  -6.210  0.00  0.00    -0.095 S 
ENDROOT
BRANCH   1  20
ATOM     15  C   UNL     1      -2.356   0.582   0.417  0.00  0.00    +0.044 C 
ATOM     16  C   UNL     1      -1.234  -0.398   0.191  0.00  0.00    -0.048 A 
ATOM     17  C   UNL     1      -0.213  -0.504   1.117  0.00  0.00    +0.006 A 
ATOM     18  C   UNL     1       0.820  -1.402   0.913  0.00  0.00    -0.048 A 
ATOM     19  C   UNL     1       0.833  -2.195  -0.218  0.00  0.00    +0.027 A 
ATOM     20  C   UNL     1      -0.191  -2.090  -1.150  0.00  0.00    +0.038 A 
ATOM     21  C   UNL     1      -1.229  -1.191  -0.939  0.00  0.00    +0.027 A 
ATOM     22  C   UNL     1       1.930  -1.515   1.925  0.00  0.00    +0.044 C 
ENDBRANCH   1  20
BRANCH  10  23
ATOM     23  C   UNL     1       0.429  -0.850  -3.424  0.00  0.00    +0.239 C 
ATOM     24  O   UNL     1      -0.088   0.067  -4.026  0.00  0.00    -0.273 OA
ATOM     25  N   UNL     1       1.465  -0.613  -2.596  0.00  0.00    -0.311 N 
ATOM     26  H   UNL     1       1.834  -1.334  -2.062  0.00  0.00    +0.149 HD
BRANCH  25  27
ATOM     27  C   UNL     1       2.035   0.733  -2.501  0.00  0.00    +0.073 C 
ATOM     28  C   UNL     1       2.985   0.969  -3.677  0.00  0.00    +0.022 C 
ATOM     29  C   UNL     1       3.580   2.375  -3.578  0.00  0.00    +0.005 C 
ATOM     30  C   UNL     1       4.351   2.511  -2.263  0.00  0.00    -0.014 C 
ATOM     31  C   UNL     1       3.400   2.276  -1.088  0.00  0.00    +0.005 C 
ATOM     32  C   UNL     1       2.806   0.870  -1.187  0.00  0.00    +0.022 C 
ATOM     33  C   UNL     1       4.946   3.918  -2.165  0.00  0.00    +0.007 C 
ENDBRANCH  25  27
ENDBRANCH  10  23
TORSDOF 3
