REMARK  Name = ZINC12244530
REMARK  8 active torsions:
REMARK  status: ('A' for Active; 'I' for Inactive)
REMARK    1  A    between atoms: C_1  and  C_2
REMARK    2  A    between atoms: C_2  and  C_3
REMARK    3  A    between atoms: C_2  and  C_4
REMARK    4  A    between atoms: C_4  and  C_6
REMARK    5  A    between atoms: C_4  and  N_23
REMARK    6  A    between atoms: N_13  and  C_16
REMARK    7  A    between atoms: C_16  and  C_17
REMARK    8  A    between atoms: C_24  and  C_26
REMARK                            x       y       z     vdW  Elec       q    Type
REMARK                         _______ _______ _______ _____ _____    ______ ____
ROOT
ATOM      1  C   UNL     1      -6.574   3.601   0.014  0.00  0.00    +0.154 A 
ATOM      2  N   UNL     1      -6.651   2.370   0.448  0.00  0.00    -0.132 NA
ATOM      3  N   UNL     1      -7.476   1.703  -0.282  0.00  0.00    -0.134 NA
ATOM      4  C   UNL     1      -7.963   2.477  -1.207  0.00  0.00    +0.132 A 
ATOM      5  N   UNL     1      -7.397   3.699  -1.052  0.00  0.00    -0.315 N 
ATOM      6  C   UNL     1      -7.620   4.865  -1.907  0.00  0.00    +0.106 C 
ATOM      7  C   UNL     1      -9.020   4.775  -2.522  0.00  0.00    -0.057 C 
ATOM      8  N   UNL     1      -8.961   4.041  -3.791  0.00  0.00    +0.381 N 
ATOM      9  C   UNL     1      -8.495   2.665  -3.614  0.00  0.00    -0.071 C 
ATOM     10  C   UNL     1      -8.979   2.126  -2.264  0.00  0.00    +0.058 C 
ATOM     11  H   UNL     1      -9.989   3.982  -4.177  0.00  0.00    -0.082 HD
ENDROOT
BRANCH   1  12
ATOM     12  C   UNL     1      -5.731   4.705   0.597  0.00  0.00    +0.144 C 
BRANCH  12  13
ATOM     13  N   UNL     1      -4.387   4.195   0.880  0.00  0.00    -0.300 N 
ATOM     14  C   UNL     1      -3.339   5.041   0.919  0.00  0.00    +0.263 C 
ATOM     15  O   UNL     1      -3.509   6.228   0.719  0.00  0.00    -0.269 OA
ATOM     16  H   UNL     1      -4.233   3.121   1.061  0.00  0.00    +0.150 HD
BRANCH  14  17
ATOM     17  C   UNL     1      -1.980   4.525   1.206  0.00  0.00    +0.125 A 
ATOM     18  C   UNL     1      -0.901   5.405   1.244  0.00  0.00    +0.033 A 
ATOM     19  C   UNL     1       0.364   4.908   1.514  0.00  0.00    +0.004 A 
ATOM     20  C   UNL     1       0.506   3.547   1.736  0.00  0.00    +0.020 A 
ATOM     21  C   UNL     1      -0.612   2.730   1.682  0.00  0.00    +0.111 A 
ATOM     22  N   UNL     1      -1.800   3.228   1.418  0.00  0.00    -0.250 NA
ENDBRANCH  14  17
ENDBRANCH  12  13
BRANCH  12  24
ATOM     23  C   UNL     1      -5.513   6.325   2.486  0.00  0.00    +0.009 C 
ATOM     24  C   UNL     1      -6.370   5.205   1.894  0.00  0.00    +0.011 C 
ATOM     25  C   UNL     1      -7.774   5.738   1.598  0.00  0.00    +0.009 C 
ENDBRANCH  12  24
ENDBRANCH   1  12
BRANCH   8  26
ATOM     26  C   UNL     1      -8.134   4.755  -4.773  0.00  0.00    -0.075 C 
BRANCH  26  27
ATOM     27  C   UNL     1      -8.503   4.290  -6.183  0.00  0.00    -0.028 C 
ATOM     28  C   UNL     1      -7.553   4.932  -7.196  0.00  0.00    +0.002 C 
ATOM     29  C   UNL     1      -7.921   4.468  -8.607  0.00  0.00    +0.000 C 
ATOM     30  C   UNL     1      -9.359   4.884  -8.921  0.00  0.00    +0.000 C 
ATOM     31  C   UNL     1     -10.309   4.243  -7.908  0.00  0.00    +0.000 C 
ATOM     32  C   UNL     1      -9.941   4.707  -6.498  0.00  0.00    +0.002 C 
ENDBRANCH  26  27
ENDBRANCH   8  26
TORSDOF 6
