REMARK  Name = ZINC03584876
REMARK  9 active torsions:
REMARK  status: ('A' for Active; 'I' for Inactive)
REMARK    1  A    between atoms: C_1  and  C_2
REMARK    2  A    between atoms: C_2  and  C_3
REMARK    3  A    between atoms: C_3  and  N_47
REMARK    4  A    between atoms: C_4  and  C_5
REMARK    5  A    between atoms: C_4  and  N_47
REMARK    6  A    between atoms: N_7  and  C_8
REMARK    7  A    between atoms: C_17  and  C_18
REMARK    8  A    between atoms: C_17  and  N_47
REMARK    9  A    between atoms: N_20  and  C_21
REMARK                            x       y       z     vdW  Elec       q    Type
REMARK                         _______ _______ _______ _____ _____    ______ ____
ROOT
ATOM      1  N   UNL     1       3.603   5.968  -0.467  0.00  0.00    +0.391 N 
ATOM      2  H   UNL     1       4.043   5.601  -1.319  0.00  0.00    -0.080 HD
ENDROOT
BRANCH   1   3
ATOM      3  C   UNL     1       4.296   5.406   0.712  0.00  0.00    -0.078 C 
BRANCH   3   5
ATOM      4  C   UNL     1       5.229   3.306   1.692  0.00  0.00    +0.002 C 
ATOM      5  C   UNL     1       4.592   3.928   0.448  0.00  0.00    -0.022 C 
ENDBRANCH   3   5
ENDBRANCH   1   3
BRANCH   1   6
ATOM      6  C   UNL     1       2.180   5.569  -0.453  0.00  0.00    +0.020 C 
BRANCH   6   7
ATOM      7  C   UNL     1       1.627   5.706  -1.848  0.00  0.00    +0.201 C 
ATOM      8  O   UNL     1       2.365   5.991  -2.767  0.00  0.00    -0.278 OA
ATOM      9  N   UNL     1       0.312   5.513  -2.074  0.00  0.00    -0.285 N 
ATOM     10  H   UNL     1      -0.287   5.339  -1.331  0.00  0.00    +0.155 HD
BRANCH   9  11
ATOM     11  C   UNL     1      -0.189   5.563  -3.381  0.00  0.00    +0.072 A 
ATOM     12  C   UNL     1       0.414   6.383  -4.326  0.00  0.00    +0.029 A 
ATOM     13  C   UNL     1      -0.080   6.432  -5.615  0.00  0.00    +0.043 A 
ATOM     14  C   UNL     1      -1.178   5.665  -5.967  0.00  0.00    +0.161 A 
ATOM     15  C   UNL     1      -1.784   4.846  -5.027  0.00  0.00    +0.195 A 
ATOM     16  C   UNL     1      -1.291   4.793  -3.734  0.00  0.00    +0.182 A 
ATOM     17  F   UNL     1      -1.884   4.000  -2.816  0.00  0.00    -0.200 F 
ATOM     18  F   UNL     1      -2.855   4.099  -5.373  0.00  0.00    -0.199 F 
ATOM     19  F   UNL     1      -1.659   5.715  -7.229  0.00  0.00    -0.202 F 
ENDBRANCH   9  11
ENDBRANCH   6   7
ENDBRANCH   1   6
BRANCH   1  20
ATOM     20  C   UNL     1       3.715   7.441  -0.464  0.00  0.00    +0.020 C 
BRANCH  20  21
ATOM     21  C   UNL     1       5.155   7.820  -0.700  0.00  0.00    +0.201 C 
ATOM     22  O   UNL     1       5.994   6.955  -0.837  0.00  0.00    -0.278 OA
ATOM     23  N   UNL     1       5.509   9.119  -0.759  0.00  0.00    -0.285 N 
ATOM     24  H   UNL     1       4.852   9.809  -0.580  0.00  0.00    +0.155 HD
BRANCH  23  25
ATOM     25  C   UNL     1       6.827   9.472  -1.078  0.00  0.00    +0.072 A 
ATOM     26  C   UNL     1       7.619   8.604  -1.819  0.00  0.00    +0.029 A 
ATOM     27  C   UNL     1       8.916   8.955  -2.138  0.00  0.00    +0.043 A 
ATOM     28  C   UNL     1       9.433  10.167  -1.711  0.00  0.00    +0.161 A 
ATOM     29  C   UNL     1       8.648  11.034  -0.967  0.00  0.00    +0.195 A 
ATOM     30  C   UNL     1       7.345  10.688  -0.649  0.00  0.00    +0.182 A 
ATOM     31  F   UNL     1       6.579  11.532   0.076  0.00  0.00    -0.200 F 
ATOM     32  F   UNL     1       9.154  12.215  -0.551  0.00  0.00    -0.199 F 
ATOM     33  F   UNL     1      10.704  10.505  -2.021  0.00  0.00    -0.202 F 
ENDBRANCH  23  25
ENDBRANCH  20  21
ENDBRANCH   1  20
TORSDOF 8
