REMARK  Name = ZINC20370419
REMARK  13 active torsions:
REMARK  status: ('A' for Active; 'I' for Inactive)
REMARK    1  A    between atoms: C_1  and  C_2
REMARK    2  A    between atoms: C_2  and  C_3
REMARK    3  A    between atoms: C_3  and  C_4
REMARK    4  A    between atoms: C_4  and  N_5
REMARK    5  A    between atoms: N_5  and  S_6
REMARK    6  A    between atoms: S_6  and  C_9
REMARK    7  A    between atoms: C_12  and  N_15
REMARK    8  A    between atoms: C_16  and  C_18
REMARK    9  A    between atoms: C_21  and  N_24
REMARK   10  A    between atoms: C_25  and  C_27
REMARK   11  A    between atoms: N_32  and  C_34
REMARK   12  A    between atoms: C_34  and  C_35
REMARK   13  A    between atoms: C_34  and  C_36
REMARK                            x       y       z     vdW  Elec       q    Type
REMARK                         _______ _______ _______ _____ _____    ______ ____
ROOT
ATOM      1  N   UNL     1      -1.842   4.765  -5.079  0.00  0.00    -0.282 N 
ATOM      2  C   UNL     1      -1.478   6.061  -5.137  0.00  0.00    +0.248 C 
ATOM      3  O   UNL     1      -0.989   6.600  -4.163  0.00  0.00    -0.270 OA
ATOM      4  H   UNL     1      -2.206   4.255  -5.983  0.00  0.00    +0.155 HD
ENDROOT
BRANCH   1   8
ATOM      5  C   UNL     1      -1.592   2.691  -1.475  0.00  0.00    +0.105 A 
ATOM      6  C   UNL     1      -1.910   4.037  -1.476  0.00  0.00    +0.030 A 
ATOM      7  C   UNL     1      -1.988   4.729  -2.669  0.00  0.00    +0.025 A 
ATOM      8  C   UNL     1      -1.758   4.069  -3.869  0.00  0.00    +0.034 A 
ATOM      9  C   UNL     1      -1.444   2.716  -3.865  0.00  0.00    +0.025 A 
ATOM     10  C   UNL     1      -1.361   2.031  -2.668  0.00  0.00    +0.030 A 
BRANCH   5  11
ATOM     11  S   UNL     1      -1.486   1.814   0.049  0.00  0.00    +0.058 S 
ATOM     12  O   UNL     1      -1.715   0.445  -0.253  0.00  0.00    -0.153 OA
ATOM     13  O   UNL     1      -2.279   2.530   0.986  0.00  0.00    -0.153 OA
BRANCH  11  14
ATOM     14  N   UNL     1       0.081   1.928   0.572  0.00  0.00    -0.190 NA
ATOM     15  H   UNL     1       0.741   1.052   0.486  0.00  0.00    +0.148 HD
BRANCH  14  16
ATOM     16  C   UNL     1       0.639   3.232   0.936  0.00  0.00    +0.106 C 
BRANCH  16  17
ATOM     17  C   UNL     1       1.940   3.031   1.717  0.00  0.00    +0.017 C 
BRANCH  17  19
ATOM     18  C   UNL     1       3.822   4.192   2.878  0.00  0.00    +0.004 C 
ATOM     19  C   UNL     1       2.522   4.394   2.098  0.00  0.00    -0.002 C 
ENDBRANCH  17  19
ENDBRANCH  16  17
ENDBRANCH  14  16
ENDBRANCH  11  14
ENDBRANCH   5  11
ENDBRANCH   1   8
BRANCH   2  20
ATOM     20  C   UNL     1      -1.672   6.827  -6.384  0.00  0.00    +0.037 A 
ATOM     21  C   UNL     1      -2.228   6.208  -7.507  0.00  0.00    +0.015 A 
ATOM     22  C   UNL     1      -2.414   6.927  -8.666  0.00  0.00    +0.024 A 
ATOM     23  C   UNL     1      -2.037   8.264  -8.725  0.00  0.00    +0.033 A 
ATOM     24  C   UNL     1      -1.477   8.882  -7.611  0.00  0.00    +0.024 A 
ATOM     25  C   UNL     1      -1.294   8.171  -6.446  0.00  0.00    +0.015 A 
BRANCH  23  26
ATOM     26  N   UNL     1      -2.221   8.988  -9.902  0.00  0.00    -0.285 N 
ATOM     27  C   UNL     1      -1.319   9.920 -10.268  0.00  0.00    +0.222 C 
ATOM     28  O   UNL     1      -0.392  10.189  -9.533  0.00  0.00    -0.275 OA
ATOM     29  H   UNL     1      -3.102   8.798 -10.533  0.00  0.00    +0.155 HD
BRANCH  27  30
ATOM     30  C   UNL     1      -1.462  10.629 -11.591  0.00  0.00    +0.101 C 
ATOM     31  C   UNL     1      -1.383   9.627 -12.766  0.00  0.00    +0.110 C 
ATOM     32  C   UNL     1       0.077   9.634 -13.162  0.00  0.00    +0.217 C 
ATOM     33  O   UNL     1       0.614   8.791 -13.849  0.00  0.00    -0.276 OA
ATOM     34  N   UNL     1       0.692  10.710 -12.641  0.00  0.00    -0.298 N 
ATOM     35  C   UNL     1      -0.242  11.535 -11.867  0.00  0.00    +0.121 C 
BRANCH  34  36
ATOM     36  C   UNL     1       2.113  11.017 -12.822  0.00  0.00    +0.070 C 
ATOM     37  C   UNL     1       2.959   9.874 -12.257  0.00  0.00    +0.028 C 
ATOM     38  C   UNL     1       2.413  11.184 -14.313  0.00  0.00    +0.028 C 
ENDBRANCH  34  36
ENDBRANCH  27  30
ENDBRANCH  23  26
ENDBRANCH   2  20
TORSDOF 10
