REMARK  Name = ZINC20753740
REMARK  5 active torsions:
REMARK  status: ('A' for Active; 'I' for Inactive)
REMARK    1  A    between atoms: C_1  and  C_2
REMARK    2  A    between atoms: C_2  and  C_4
REMARK    3  A    between atoms: C_4  and  O_5
REMARK    4  A    between atoms: O_5  and  C_6
REMARK    5  A    between atoms: C_19  and  C_22
REMARK                            x       y       z     vdW  Elec       q    Type
REMARK                         _______ _______ _______ _____ _____    ______ ____
ROOT
ATOM      1  C   UNL     1       0.922   5.232  -0.371  0.00  0.00    +0.121 A 
ATOM      2  C   UNL     1       1.468   5.430  -1.631  0.00  0.00    +0.047 A 
ATOM      3  C   UNL     1       1.997   4.357  -2.321  0.00  0.00    +0.027 A 
ATOM      4  C   UNL     1       1.983   3.089  -1.755  0.00  0.00    +0.032 A 
ATOM      5  C   UNL     1       1.439   2.885  -0.496  0.00  0.00    -0.016 A 
ATOM      6  C   UNL     1       0.909   3.968   0.191  0.00  0.00    +0.051 A 
ATOM      7  C   UNL     1       1.402   1.537   0.151  0.00  0.00    +0.049 C 
ATOM      8  C   UNL     1       0.013   0.947   0.116  0.00  0.00    -0.023 C 
ATOM      9  C   UNL     1       0.075  -0.350  -0.064  0.00  0.00    -0.030 C 
ATOM     10  C   UNL     1       1.519  -0.803  -0.168  0.00  0.00    +0.033 C 
ATOM     11  C   UNL     1       2.275   0.496  -0.577  0.00  0.00    +0.029 C 
ATOM     12  C   UNL     1       2.123   0.653  -2.092  0.00  0.00    +0.106 C 
ATOM     13  N   UNL     1       2.523   2.012  -2.471  0.00  0.00    -0.336 N 
ATOM     14  H   UNL     1       3.231   2.166  -3.299  0.00  0.00    +0.147 HD
ENDROOT
BRANCH  12  15
ATOM     15  C   UNL     1       0.685   0.423  -2.482  0.00  0.00    -0.012 A 
ATOM     16  C   UNL     1       0.298  -0.788  -3.052  0.00  0.00    -0.012 A 
ATOM     17  C   UNL     1       1.232  -1.825  -3.265  0.00  0.00    +0.009 A 
ATOM     18  C   UNL     1       0.820  -2.994  -3.817  0.00  0.00    +0.001 A 
ATOM     19  C   UNL     1      -0.511  -3.207  -4.178  0.00  0.00    +0.001 A 
ATOM     20  C   UNL     1      -1.461  -2.255  -3.995  0.00  0.00    +0.008 A 
ATOM     21  C   UNL     1      -1.103  -1.014  -3.425  0.00  0.00    -0.017 A 
ATOM     22  C   UNL     1      -2.052  -0.014  -3.223  0.00  0.00    +0.017 A 
ATOM     23  C   UNL     1      -1.664   1.200  -2.659  0.00  0.00    -0.017 A 
ATOM     24  C   UNL     1      -0.265   1.423  -2.280  0.00  0.00    -0.012 A 
ATOM     25  C   UNL     1       0.094   2.664  -1.710  0.00  0.00    +0.009 A 
ATOM     26  C   UNL     1      -0.856   3.616  -1.526  0.00  0.00    +0.001 A 
ATOM     27  C   UNL     1      -2.188   3.403  -1.886  0.00  0.00    +0.001 A 
ATOM     28  C   UNL     1      -2.599   2.234  -2.439  0.00  0.00    +0.008 A 
ENDBRANCH  12  15
BRANCH   1  29
ATOM     29  O   UNL     1       0.398   6.285   0.313  0.00  0.00    -0.488 OA
BRANCH  29  30
ATOM     30  C   UNL     1       0.444   7.562  -0.326  0.00  0.00    +0.259 C 
BRANCH  30  32
ATOM     31  C   UNL     1      -0.253  10.035   0.131  0.00  0.00    +0.042 C 
ATOM     32  C   UNL     1      -0.177   8.597   0.575  0.00  0.00    -0.043 C 
ATOM     33  C   UNL     1      -0.652   8.248   1.745  0.00  0.00    +0.011 C 
ENDBRANCH  30  32
ENDBRANCH  29  30
ENDBRANCH   1  29
TORSDOF 4
