REMARK  Name = ZINC21703979
REMARK  8 active torsions:
REMARK  status: ('A' for Active; 'I' for Inactive)
REMARK    1  A    between atoms: C_1  and  C_2
REMARK    2  A    between atoms: C_2  and  O_3
REMARK    3  A    between atoms: O_3  and  C_4
REMARK    4  A    between atoms: C_4  and  C_6
REMARK    5  A    between atoms: C_12  and  C_14
REMARK    6  A    between atoms: C_22  and  C_34
REMARK    7  A    between atoms: C_25  and  N_30
REMARK    8  A    between atoms: C_31  and  C_33
REMARK                            x       y       z     vdW  Elec       q    Type
REMARK                         _______ _______ _______ _____ _____    ______ ____
ROOT
ATOM      1  C   UNL     1      -0.961 -10.820  -1.759  0.00  0.00    +0.078 C 
ATOM      2  C   UNL     1      -0.049 -10.242  -0.673  0.00  0.00    +0.032 C 
ATOM      3  C   UNL     1      -0.126  -8.714  -0.710  0.00  0.00    +0.107 C 
ATOM      4  N   UNL     1      -1.513  -8.287  -0.487  0.00  0.00    -0.317 N 
ATOM      5  C   UNL     1      -2.399  -8.790  -1.544  0.00  0.00    +0.107 C 
ATOM      6  C   UNL     1      -2.391 -10.320  -1.532  0.00  0.00    +0.032 C 
ATOM      7  C   UNL     1      -1.597  -6.905  -0.384  0.00  0.00    +0.099 A 
ATOM      8  C   UNL     1      -2.848  -6.310  -0.169  0.00  0.00    +0.045 A 
ATOM      9  C   UNL     1      -2.946  -4.955  -0.066  0.00  0.00    -0.038 A 
ATOM     10  C   UNL     1      -1.767  -4.189  -0.180  0.00  0.00    +0.003 A 
ATOM     11  C   UNL     1      -1.798  -2.790  -0.082  0.00  0.00    +0.033 A 
ATOM     12  C   UNL     1      -0.626  -2.076  -0.198  0.00  0.00    +0.034 A 
ATOM     13  C   UNL     1       0.589  -2.734  -0.417  0.00  0.00    +0.025 A 
ATOM     14  C   UNL     1       0.643  -4.090  -0.510  0.00  0.00    +0.028 A 
ATOM     15  C   UNL     1      -0.533  -4.850  -0.396  0.00  0.00    +0.048 A 
ATOM     16  N   UNL     1      -0.500  -6.185  -0.489  0.00  0.00    -0.343 N 
ATOM     17  C   UNL     1      -4.279  -4.292   0.165  0.00  0.00    +0.044 C 
ATOM     18  H   UNL     1       0.469  -6.679  -0.656  0.00  0.00    +0.167 HD
ENDROOT
BRANCH   1  25
ATOM     19  C   UNL     1      -1.372 -14.387  -5.215  0.00  0.00    +0.101 C 
ATOM     20  C   UNL     1      -0.591 -14.949  -4.025  0.00  0.00    +0.033 C 
ATOM     21  C   UNL     1      -1.273 -14.518  -2.723  0.00  0.00    +0.108 C 
ATOM     22  N   UNL     1      -1.406 -13.055  -2.720  0.00  0.00    -0.301 N 
ATOM     23  C   UNL     1      -2.066 -12.404  -3.859  0.00  0.00    +0.108 C 
ATOM     24  C   UNL     1      -1.371 -12.858  -5.152  0.00  0.00    +0.033 C 
ATOM     25  C   UNL     1      -0.937 -12.325  -1.689  0.00  0.00    +0.219 C 
ATOM     26  O   UNL     1      -0.494 -12.879  -0.705  0.00  0.00    -0.275 OA
BRANCH  19  27
ATOM     27  C   UNL     1      -0.724 -14.837  -6.499  0.00  0.00    +0.310 C 
ATOM     28  O   UNL     1       0.262 -15.535  -6.466  0.00  0.00    -0.251 OA
BRANCH  27  29
ATOM     29  O   UNL     1      -1.241 -14.461  -7.679  0.00  0.00    -0.465 OA
BRANCH  29  31
ATOM     30  C   UNL     1      -1.293 -14.406 -10.114  0.00  0.00    +0.048 C 
ATOM     31  C   UNL     1      -0.564 -14.932  -8.875  0.00  0.00    +0.229 C 
ENDBRANCH  29  31
ENDBRANCH  27  29
ENDBRANCH  19  27
ENDBRANCH   1  25
BRANCH  12  32
ATOM     32  N   UNL     1      -0.651  -0.679  -0.102  0.00  0.00    -0.286 N 
ATOM     33  C   UNL     1       0.389  -0.023   0.449  0.00  0.00    +0.214 C 
ATOM     34  O   UNL     1       1.313  -0.645   0.929  0.00  0.00    -0.276 OA
ATOM     35  C   UNL     1       0.404   1.484   0.469  0.00  0.00    +0.109 C 
ATOM     36  H   UNL     1      -1.520  -0.118  -0.476  0.00  0.00    +0.155 HD
ENDBRANCH  12  32
TORSDOF 5
