REMARK  Name = ZINC00921406
REMARK  2 active torsions:
REMARK  status: ('A' for Active; 'I' for Inactive)
REMARK    1  A    between atoms: C_4  and  C_27
REMARK    2  A    between atoms: C_5  and  C_7
REMARK                            x       y       z     vdW  Elec       q    Type
REMARK                         _______ _______ _______ _____ _____    ______ ____
ROOT
ATOM      1  C   UNL     1      -0.116   4.221   0.601  0.00  0.00    +0.093 C 
ATOM      2  C   UNL     1      -1.130   5.244   0.180  0.00  0.00    +0.067 A 
ATOM      3  C   UNL     1      -1.136   6.490   0.731  0.00  0.00    +0.113 A 
ATOM      4  N   UNL     1      -2.081   7.404   0.330  0.00  0.00    -0.295 N 
ATOM      5  H   UNL     1      -2.090   8.319   0.734  0.00  0.00    +0.172 HD
ATOM      6  C   UNL     1      -2.994   7.074  -0.602  0.00  0.00    +0.328 A 
ATOM      7  O   UNL     1      -3.824   7.893  -0.944  0.00  0.00    -0.247 OA
ATOM      8  N   UNL     1      -3.000   5.850  -1.161  0.00  0.00    -0.275 N 
ATOM      9  H   UNL     1      -3.686   5.625  -1.853  0.00  0.00    +0.173 HD
ATOM     10  C   UNL     1      -2.091   4.924  -0.796  0.00  0.00    +0.260 A 
ATOM     11  O   UNL     1      -2.102   3.818  -1.307  0.00  0.00    -0.267 OA
ATOM     12  N   UNL     1      -0.202   6.830   1.677  0.00  0.00    -0.303 N 
ATOM     13  C   UNL     1       0.959   6.115   1.801  0.00  0.00    +0.017 C 
ATOM     14  C   UNL     1       1.052   4.864   1.304  0.00  0.00    +0.024 C 
ATOM     15  C   UNL     1       2.239   4.121   1.429  0.00  0.00    +0.162 C 
ATOM     16  O   UNL     1       2.296   3.003   0.958  0.00  0.00    -0.292 OA
ATOM     17  C   UNL     1       3.441   4.685   2.136  0.00  0.00    +0.080 C 
ATOM     18  C   UNL     1       2.972   5.691   3.192  0.00  0.00    +0.014 C 
ATOM     19  C   UNL     1       2.128   6.763   2.500  0.00  0.00    +0.051 C 
ATOM     20  H   UNL     1      -0.367   7.585   2.264  0.00  0.00    +0.153 HD
ENDROOT
BRANCH   1  25
ATOM     21  C   UNL     1      -1.881   2.753   3.598  0.00  0.00    +0.000 A 
ATOM     22  C   UNL     1      -1.964   1.419   3.244  0.00  0.00    +0.001 A 
ATOM     23  C   UNL     1      -1.451   0.993   2.033  0.00  0.00    +0.012 A 
ATOM     24  C   UNL     1      -0.857   1.900   1.176  0.00  0.00    +0.059 A 
ATOM     25  C   UNL     1      -0.770   3.233   1.532  0.00  0.00    -0.024 A 
ATOM     26  C   UNL     1      -1.286   3.660   2.742  0.00  0.00    +0.005 A 
BRANCH  24  27
ATOM     27  C   UNL     1      -0.298   1.435  -0.144  0.00  0.00    +0.418 C 
ATOM     28  F   UNL     1      -0.374   0.040  -0.217  0.00  0.00    -0.166 F 
ATOM     29  F   UNL     1       1.038   1.836  -0.252  0.00  0.00    -0.166 F 
ATOM     30  F   UNL     1      -1.040   1.997  -1.188  0.00  0.00    -0.166 F 
ENDBRANCH  24  27
ENDBRANCH   1  25
TORSDOF 2
