REMARK  Name = ZINC36743197
REMARK  4 active torsions:
REMARK  status: ('A' for Active; 'I' for Inactive)
REMARK    1  A    between atoms: C_5  and  N_8
REMARK    2  A    between atoms: C_6  and  N_7
REMARK    3  A    between atoms: N_8  and  S_9
REMARK    4  A    between atoms: S_9  and  C_12
REMARK                            x       y       z     vdW  Elec       q    Type
REMARK                         _______ _______ _______ _____ _____    ______ ____
ROOT
ATOM      1  C   UNL     1      -0.249   1.251   0.477  0.00  0.00    +0.040 A 
ATOM      2  C   UNL     1       0.842   2.064   0.224  0.00  0.00    +0.021 A 
ATOM      3  C   UNL     1       2.063   1.506  -0.108  0.00  0.00    +0.032 A 
ATOM      4  C   UNL     1       2.199   0.131  -0.191  0.00  0.00    +0.045 A 
ATOM      5  C   UNL     1       1.111  -0.690   0.061  0.00  0.00    +0.109 A 
ATOM      6  C   UNL     1      -0.120  -0.127   0.397  0.00  0.00    +0.051 A 
ATOM      7 BR   UNL     1       3.870  -0.627  -0.647  0.00  0.00    -0.048 Br
ATOM      8 BR   UNL     1       0.663   3.943   0.334  0.00  0.00    -0.050 Br
ENDROOT
BRANCH   6   9
ATOM      9  N   UNL     1      -1.223  -0.951   0.653  0.00  0.00    -0.356 N 
ATOM     10  H   UNL     1      -2.079  -0.558   0.886  0.00  0.00    +0.142 HD
ATOM     11  H   UNL     1      -1.131  -1.915   0.596  0.00  0.00    +0.142 HD
ENDBRANCH   6   9
BRANCH   5  12
ATOM     12  N   UNL     1       1.247  -2.082  -0.022  0.00  0.00    -0.094 NA
BRANCH  12  13
ATOM     13  S   UNL     1       2.096  -2.902   1.139  0.00  0.00    +0.125 S 
ATOM     14  O   UNL     1       3.434  -2.445   1.000  0.00  0.00    -0.148 OA
ATOM     15  O   UNL     1       1.374  -2.677   2.342  0.00  0.00    -0.148 OA
BRANCH  13  16
ATOM     16  C   UNL     1       1.978  -4.647   0.657  0.00  0.00    +0.501 C 
ATOM     17  F   UNL     1       2.540  -4.819  -0.612  0.00  0.00    -0.182 F 
ATOM     18  F   UNL     1       2.671  -5.434   1.584  0.00  0.00    -0.182 F 
ENDBRANCH  13  16
ENDBRANCH  12  13
ENDBRANCH   5  12
TORSDOF 4
