REMARK  Name = ZINC43222452
REMARK  10 active torsions:
REMARK  status: ('A' for Active; 'I' for Inactive)
REMARK    1  A    between atoms: C_1  and  C_2
REMARK    2  A    between atoms: C_2  and  C_4
REMARK    3  A    between atoms: C_2  and  C_32
REMARK    4  A    between atoms: C_4  and  N_5
REMARK    5  A    between atoms: C_6  and  C_8
REMARK    6  A    between atoms: C_13  and  C_15
REMARK    7  A    between atoms: N_17  and  C_18
REMARK    8  A    between atoms: N_17  and  C_25
REMARK    9  A    between atoms: C_18  and  C_19
REMARK   10  A    between atoms: C_25  and  C_26
REMARK                            x       y       z     vdW  Elec       q    Type
REMARK                         _______ _______ _______ _____ _____    ______ ____
ROOT
ATOM      1  C   UNL     1       4.303  -0.328   2.095  0.00  0.00    +0.068 C 
ATOM      2  C   UNL     1       4.298   1.192   1.822  0.00  0.00    -0.069 C 
ATOM      3  N   UNL     1       4.656   1.807   3.126  0.00  0.00    +0.380 N 
ATOM      4  C   UNL     1       5.703   0.910   3.678  0.00  0.00    -0.069 C 
ATOM      5  C   UNL     1       5.227  -0.516   3.315  0.00  0.00    +0.068 C 
ATOM      6  H   UNL     1       5.024   2.736   2.988  0.00  0.00    -0.086 HD
ATOM      7  H   UNL     1       3.853   1.831   3.737  0.00  0.00    -0.086 HD
ENDROOT
BRANCH   1   9
ATOM      8  N   UNL     1       1.933  -0.704   1.491  0.00  0.00    -0.315 N 
ATOM      9  C   UNL     1       2.910  -0.806   2.415  0.00  0.00    +0.215 C 
ATOM     10  O   UNL     1       2.667  -1.282   3.503  0.00  0.00    -0.276 OA
ATOM     11  H   UNL     1       2.127  -0.324   0.620  0.00  0.00    +0.149 HD
BRANCH   8  12
ATOM     12  C   UNL     1       0.579  -1.169   1.802  0.00  0.00    +0.112 C 
BRANCH  12  14
ATOM     13  C   UNL     1      -0.466   0.560   0.333  0.00  0.00    +0.014 C 
ATOM     14  C   UNL     1      -0.329  -0.941   0.592  0.00  0.00    +0.033 C 
BRANCH  14  15
ATOM     15  C   UNL     1      -1.689  -1.530   0.867  0.00  0.00    -0.043 A 
ATOM     16  C   UNL     1      -2.439  -1.069   1.932  0.00  0.00    +0.004 A 
ATOM     17  C   UNL     1      -3.686  -1.609   2.184  0.00  0.00    +0.000 A 
ATOM     18  C   UNL     1      -4.184  -2.609   1.370  0.00  0.00    +0.000 A 
ATOM     19  C   UNL     1      -3.434  -3.069   0.303  0.00  0.00    +0.000 A 
ATOM     20  C   UNL     1      -2.188  -2.526   0.049  0.00  0.00    +0.004 A 
ENDBRANCH  14  15
ENDBRANCH  12  14
ENDBRANCH   8  12
ENDBRANCH   1   9
BRANCH   5  21
ATOM     21  C   UNL     1       6.403  -1.385   2.952  0.00  0.00    +0.218 C 
ATOM     22  O   UNL     1       6.596  -1.692   1.794  0.00  0.00    -0.275 OA
ATOM     23  N   UNL     1       7.241  -1.822   3.913  0.00  0.00    -0.293 N 
BRANCH  23  24
ATOM     24  C   UNL     1       8.432  -2.594   3.551  0.00  0.00    +0.143 C 
BRANCH  24  25
ATOM     25  C   UNL     1       9.588  -1.655   3.323  0.00  0.00    -0.030 A 
ATOM     26  C   UNL     1       9.818  -1.136   2.062  0.00  0.00    +0.005 A 
ATOM     27  C   UNL     1      10.879  -0.274   1.853  0.00  0.00    +0.000 A 
ATOM     28  C   UNL     1      11.709   0.069   2.903  0.00  0.00    +0.000 A 
ATOM     29  C   UNL     1      11.479  -0.450   4.164  0.00  0.00    +0.000 A 
ATOM     30  C   UNL     1      10.416  -1.308   4.375  0.00  0.00    +0.005 A 
ENDBRANCH  24  25
ENDBRANCH  23  24
BRANCH  23  31
ATOM     31  C   UNL     1       6.960  -1.525   5.320  0.00  0.00    +0.143 C 
BRANCH  31  32
ATOM     32  C   UNL     1       6.238  -2.691   5.945  0.00  0.00    -0.030 A 
ATOM     33  C   UNL     1       4.858  -2.686   6.027  0.00  0.00    +0.005 A 
ATOM     34  C   UNL     1       4.196  -3.756   6.600  0.00  0.00    +0.000 A 
ATOM     35  C   UNL     1       4.913  -4.830   7.091  0.00  0.00    +0.000 A 
ATOM     36  C   UNL     1       6.293  -4.835   7.008  0.00  0.00    +0.000 A 
ATOM     37  C   UNL     1       6.955  -3.768   6.431  0.00  0.00    +0.005 A 
ENDBRANCH  31  32
ENDBRANCH  23  31
ENDBRANCH   5  21
TORSDOF 9
