REMARK  Name = ZINC59782495
REMARK  11 active torsions:
REMARK  status: ('A' for Active; 'I' for Inactive)
REMARK    1  A    between atoms: C_1  and  C_2
REMARK    2  A    between atoms: C_2  and  C_4
REMARK    3  A    between atoms: C_2  and  S_24
REMARK    4  A    between atoms: N_6  and  C_7
REMARK    5  A    between atoms: C_7  and  C_8
REMARK    6  A    between atoms: C_8  and  C_10
REMARK    7  A    between atoms: C_8  and  N_18
REMARK    8  A    between atoms: C_15  and  O_16
REMARK    9  A    between atoms: O_16  and  C_17
REMARK   10  A    between atoms: S_24  and  C_25
REMARK   11  A    between atoms: C_28  and  N_31
REMARK                            x       y       z     vdW  Elec       q    Type
REMARK                         _______ _______ _______ _____ _____    ______ ____
ROOT
ATOM      1  C   UNL     1       3.146  -0.243   1.512  0.00  0.00    +0.093 C 
ENDROOT
BRANCH   1   4
ATOM      2  C   UNL     1       1.445  -1.982   1.647  0.00  0.00    +0.226 C 
ATOM      3  O   UNL     1       0.605  -1.138   1.417  0.00  0.00    -0.275 OA
ATOM      4  N   UNL     1       2.746  -1.638   1.716  0.00  0.00    -0.316 N 
ATOM      5  H   UNL     1       3.417  -2.313   1.900  0.00  0.00    +0.149 HD
BRANCH   2   7
ATOM      6  C   UNL     1       1.271  -4.209   0.570  0.00  0.00    +0.029 C 
ATOM      7  C   UNL     1       1.033  -3.417   1.857  0.00  0.00    +0.134 C 
BRANCH   7   8
ATOM      8  S   UNL     1      -0.727  -3.484   2.291  0.00  0.00    -0.113 S 
BRANCH   8   9
ATOM      9  C   UNL     1      -0.794  -2.784   3.907  0.00  0.00    +0.009 A 
ATOM     10  C   UNL     1       0.370  -2.337   4.521  0.00  0.00    +0.017 A 
ATOM     11  C   UNL     1       0.313  -1.789   5.788  0.00  0.00    +0.034 A 
ATOM     12  C   UNL     1      -0.899  -1.685   6.445  0.00  0.00    +0.126 A 
ATOM     13  C   UNL     1      -2.059  -2.130   5.837  0.00  0.00    +0.034 A 
ATOM     14  C   UNL     1      -2.011  -2.673   4.568  0.00  0.00    +0.017 A 
BRANCH  12  15
ATOM     15  N   UNL     1      -0.956  -1.098   7.802  0.00  0.00    +0.056 N 
ATOM     16  O   UNL     1       0.057  -0.709   8.335  0.00  0.00    -0.126 OA
ATOM     17  O   UNL     1      -2.015  -1.006   8.377  0.00  0.00    -0.126 OA
ENDBRANCH  12  15
ENDBRANCH   8   9
ENDBRANCH   7   8
ENDBRANCH   2   7
ENDBRANCH   1   4
BRANCH   1  18
ATOM     18  C   UNL     1       4.673  -0.145   1.513  0.00  0.00    -0.017 C 
BRANCH  18  19
ATOM     19  N   UNL     1       5.224  -1.083   0.525  0.00  0.00    +0.385 N 
ATOM     20  C   UNL     1       6.677  -0.896   0.434  0.00  0.00    -0.078 C 
ATOM     21  C   UNL     1       7.268  -1.925  -0.533  0.00  0.00    -0.019 C 
ATOM     22  C   UNL     1       6.639  -1.735  -1.917  0.00  0.00    -0.004 C 
ATOM     23  C   UNL     1       5.118  -1.858  -1.797  0.00  0.00    -0.019 C 
ATOM     24  C   UNL     1       4.607  -0.832  -0.783  0.00  0.00    -0.078 C 
ATOM     25  H   UNL     1       5.026  -2.029   0.814  0.00  0.00    -0.081 HD
ENDBRANCH  18  19
BRANCH  18  26
ATOM     26  C   UNL     1       5.197  -0.492   2.882  0.00  0.00    -0.018 A 
ATOM     27  C   UNL     1       5.711  -1.751   3.128  0.00  0.00    +0.005 A 
ATOM     28  C   UNL     1       6.192  -2.070   4.384  0.00  0.00    +0.000 A 
ATOM     29  C   UNL     1       6.161  -1.130   5.398  0.00  0.00    +0.004 A 
ATOM     30  C   UNL     1       5.649   0.130   5.158  0.00  0.00    +0.046 A 
ATOM     31  C   UNL     1       5.171   0.454   3.896  0.00  0.00    +0.122 A 
BRANCH  31  32
ATOM     32  O   UNL     1       4.672   1.696   3.656  0.00  0.00    -0.495 OA
ATOM     33  C   UNL     1       4.676   2.619   4.746  0.00  0.00    +0.277 C 
ENDBRANCH  31  32
ENDBRANCH  18  26
ENDBRANCH   1  18
TORSDOF 9
