REMARK  Name = ZINC35704958
REMARK  12 active torsions:
REMARK  status: ('A' for Active; 'I' for Inactive)
REMARK    1  A    between atoms: C_1  and  C_2
REMARK    2  A    between atoms: C_5  and  C_9
REMARK    3  A    between atoms: C_6  and  C_8
REMARK    4  A    between atoms: C_9  and  N_10
REMARK    5  A    between atoms: N_10  and  C_11
REMARK    6  A    between atoms: N_10  and  C_23
REMARK    7  A    between atoms: C_11  and  C_12
REMARK    8  A    between atoms: C_12  and  C_13
REMARK    9  A    between atoms: C_23  and  C_24
REMARK   10  A    between atoms: C_26  and  C_29
REMARK   11  A    between atoms: N_31  and  C_32
REMARK   12  A    between atoms: C_32  and  C_33
REMARK                            x       y       z     vdW  Elec       q    Type
REMARK                         _______ _______ _______ _____ _____    ______ ____
ROOT
ATOM      1  N   UNL     1      -1.271  -4.777   0.344  0.00  0.00    +0.388 N 
ATOM      2  H   UNL     1      -1.550  -4.261   1.165  0.00  0.00    -0.081 HD
ENDROOT
BRANCH   1   3
ATOM      3  C   UNL     1       0.079  -4.359  -0.060  0.00  0.00    -0.042 C 
BRANCH   3   8
ATOM      4  C   UNL     1       0.199   1.379  -0.727  0.00  0.00    +0.044 C 
ATOM      5  C   UNL     1       0.167  -0.117  -0.553  0.00  0.00    -0.050 A 
ATOM      6  C   UNL     1       0.062  -0.940  -1.660  0.00  0.00    +0.003 A 
ATOM      7  C   UNL     1       0.033  -2.312  -1.500  0.00  0.00    +0.002 A 
ATOM      8  C   UNL     1       0.111  -2.863  -0.234  0.00  0.00    -0.061 A 
ATOM      9  C   UNL     1       0.217  -2.041   0.872  0.00  0.00    -0.049 A 
ATOM     10  C   UNL     1       0.250  -0.668   0.712  0.00  0.00    +0.007 A 
ATOM     11  C   UNL     1       0.301  -2.641   2.251  0.00  0.00    +0.044 C 
ENDBRANCH   3   8
ENDBRANCH   1   3
BRANCH   1  12
ATOM     12  C   UNL     1      -2.215  -4.507  -0.748  0.00  0.00    -0.073 C 
BRANCH  12  13
ATOM     13  C   UNL     1      -3.639  -4.807  -0.277  0.00  0.00    +0.019 C 
BRANCH  13  14
ATOM     14  C   UNL     1      -4.618  -4.407  -1.351  0.00  0.00    -0.024 A 
ATOM     15  C   UNL     1      -5.270  -3.237  -1.442  0.00  0.00    +0.087 A 
ATOM     16  N   UNL     1      -6.074  -3.236  -2.549  0.00  0.00    -0.360 N 
ATOM     17  H   UNL     1      -6.642  -2.499  -2.824  0.00  0.00    +0.165 HD
ATOM     18  C   UNL     1      -5.956  -4.435  -3.215  0.00  0.00    +0.047 A 
ATOM     19  C   UNL     1      -5.034  -5.219  -2.497  0.00  0.00    +0.003 A 
ATOM     20  C   UNL     1      -4.710  -6.500  -2.947  0.00  0.00    +0.010 A 
ATOM     21  C   UNL     1      -5.288  -6.986  -4.086  0.00  0.00    +0.001 A 
ATOM     22  C   UNL     1      -6.195  -6.215  -4.800  0.00  0.00    +0.002 A 
ATOM     23  C   UNL     1      -6.536  -4.951  -4.369  0.00  0.00    +0.026 A 
ENDBRANCH  13  14
ENDBRANCH  12  13
ENDBRANCH   1  12
BRANCH   1  24
ATOM     24  C   UNL     1      -1.269  -6.214   0.646  0.00  0.00    +0.019 C 
BRANCH  24  25
ATOM     25  C   UNL     1      -0.395  -6.474   1.846  0.00  0.00    +0.179 A 
ATOM     26  N   UNL     1      -0.795  -6.476   3.082  0.00  0.00    -0.210 NA
ATOM     27  C   UNL     1       0.273  -6.749   3.881  0.00  0.00    +0.163 A 
ATOM     28  C   UNL     1       1.350  -6.915   3.066  0.00  0.00    +0.230 A 
ATOM     29  O   UNL     1       0.918  -6.746   1.806  0.00  0.00    -0.449 OA
BRANCH  27  30
ATOM     30  C   UNL     1       0.264  -6.847   5.351  0.00  0.00    +0.266 C 
ATOM     31  O   UNL     1       1.292  -7.099   5.950  0.00  0.00    -0.268 OA
ATOM     32  N   UNL     1      -0.883  -6.658   6.033  0.00  0.00    -0.306 N 
ATOM     33  H   UNL     1      -1.703  -6.457   5.555  0.00  0.00    +0.149 HD
BRANCH  32  34
ATOM     34  C   UNL     1      -0.892  -6.755   7.494  0.00  0.00    +0.141 C 
BRANCH  34  35
ATOM     35  C   UNL     1      -2.287  -6.503   8.006  0.00  0.00    -0.012 A 
ATOM     36  C   UNL     1      -2.698  -5.216   8.319  0.00  0.00    +0.008 A 
ATOM     37  C   UNL     1      -3.990  -5.032   8.786  0.00  0.00    +0.020 A 
ATOM     38  C   UNL     1      -4.819  -6.129   8.925  0.00  0.00    +0.111 A 
ATOM     39  N   UNL     1      -4.394  -7.339   8.619  0.00  0.00    -0.263 NA
ATOM     40  C   UNL     1      -3.174  -7.551   8.165  0.00  0.00    +0.115 A 
ENDBRANCH  34  35
ENDBRANCH  32  34
ENDBRANCH  27  30
ENDBRANCH  24  25
ENDBRANCH   1  24
TORSDOF 10
