REMARK  Name = ZINC63280627
REMARK  9 active torsions:
REMARK  status: ('A' for Active; 'I' for Inactive)
REMARK    1  A    between atoms: C_1  and  O_2
REMARK    2  A    between atoms: O_2  and  C_3
REMARK    3  A    between atoms: C_9  and  C_12
REMARK    4  A    between atoms: C_12  and  C_13
REMARK    5  A    between atoms: C_13  and  N_14
REMARK    6  A    between atoms: C_15  and  C_17
REMARK    7  A    between atoms: C_17  and  C_18
REMARK    8  A    between atoms: C_18  and  N_19
REMARK    9  A    between atoms: C_20  and  C_22
REMARK                            x       y       z     vdW  Elec       q    Type
REMARK                         _______ _______ _______ _____ _____    ______ ____
ROOT
ATOM      1  C   UNL     1       0.535  -8.564   2.584  0.00  0.00    +0.114 C 
ENDROOT
BRANCH   1   3
ATOM      2  N   UNL     1      -0.759  -6.798   1.434  0.00  0.00    -0.315 N 
ATOM      3  C   UNL     1      -0.408  -7.389   2.593  0.00  0.00    +0.215 C 
ATOM      4  O   UNL     1      -0.851  -6.975   3.644  0.00  0.00    -0.276 OA
ATOM      5  H   UNL     1      -0.405  -7.128   0.594  0.00  0.00    +0.149 HD
BRANCH   2   6
ATOM      6  C   UNL     1      -1.676  -5.655   1.443  0.00  0.00    +0.108 C 
BRANCH   6   7
ATOM      7  C   UNL     1      -1.908  -5.176   0.009  0.00  0.00    +0.052 C 
BRANCH   7  14
ATOM      8  C   UNL     1      -1.200  -0.637   0.010  0.00  0.00    +0.121 A 
ATOM      9  C   UNL     1      -2.375   0.135   0.020  0.00  0.00    +0.047 A 
ATOM     10  C   UNL     1      -3.607  -0.415   0.028  0.00  0.00    +0.029 A 
ATOM     11  C   UNL     1      -3.753  -1.875   0.027  0.00  0.00    +0.043 A 
ATOM     12  N   UNL     1      -4.809  -2.650   0.034  0.00  0.00    -0.380 N 
ATOM     13  C   UNL     1      -4.362  -4.047   0.029  0.00  0.00    +0.144 C 
ATOM     14  C   UNL     1      -2.851  -4.000   0.018  0.00  0.00    -0.040 C 
ATOM     15  C   UNL     1      -2.516  -2.690   0.016  0.00  0.00    +0.002 A 
ATOM     16  C   UNL     1      -1.226  -1.992   0.003  0.00  0.00    +0.055 A 
ATOM     17  H   UNL     1      -5.731  -2.350   0.042  0.00  0.00    +0.160 HD
BRANCH   8  19
ATOM     18  C   UNL     1      -0.017   1.425   0.010  0.00  0.00    +0.277 C 
ATOM     19  O   UNL     1       0.002  -0.004   0.002  0.00  0.00    -0.495 OA
ENDBRANCH   8  19
ENDBRANCH   7  14
ENDBRANCH   6   7
ENDBRANCH   2   6
ENDBRANCH   1   3
BRANCH   1  20
ATOM     20  C   UNL     1       0.767  -9.043   4.019  0.00  0.00    +0.113 C 
BRANCH  20  21
ATOM     21  N   UNL     1       1.683 -10.186   4.010  0.00  0.00    -0.313 N 
ATOM     22  C   UNL     1       2.034 -10.777   5.169  0.00  0.00    +0.234 C 
ATOM     23  O   UNL     1       1.591 -10.363   6.219  0.00  0.00    -0.274 OA
ATOM     24  H   UNL     1       2.038 -10.517   3.170  0.00  0.00    +0.149 HD
BRANCH  22  25
ATOM     25  C   UNL     1       2.977 -11.953   5.160  0.00  0.00    +0.173 C 
ATOM     26  C   UNL     1       2.359 -13.077   4.297  0.00  0.00    +0.103 C 
ATOM     27  S   UNL     1       2.029 -14.378   5.564  0.00  0.00    -0.131 S 
ATOM     28  C   UNL     1       2.191 -13.291   7.044  0.00  0.00    +0.166 C 
ATOM     29  N   UNL     1       3.236 -12.357   6.543  0.00  0.00    -0.269 N 
ATOM     30  C   UNL     1       4.110 -12.207   7.562  0.00  0.00    +0.249 C 
ATOM     31  O   UNL     1       4.870 -11.269   7.701  0.00  0.00    -0.270 OA
ATOM     32  C   UNL     1       4.002 -13.358   8.480  0.00  0.00    +0.043 A 
ATOM     33  C   UNL     1       2.814 -14.050   8.180  0.00  0.00    -0.005 A 
ATOM     34  C   UNL     1       2.454 -15.176   8.883  0.00  0.00    +0.007 A 
ATOM     35  C   UNL     1       3.253 -15.632   9.918  0.00  0.00    +0.000 A 
ATOM     36  C   UNL     1       4.412 -14.956  10.252  0.00  0.00    +0.001 A 
ATOM     37  C   UNL     1       4.804 -13.808   9.529  0.00  0.00    +0.013 A 
ENDBRANCH  22  25
ENDBRANCH  20  21
ENDBRANCH   1  20
TORSDOF 8
