REMARK  Name = ZINC17180781
REMARK  12 active torsions:
REMARK  status: ('A' for Active; 'I' for Inactive)
REMARK    1  A    between atoms: C_1  and  N_63
REMARK    2  A    between atoms: C_9  and  O_35
REMARK    3  A    between atoms: C_11  and  C_14
REMARK    4  A    between atoms: C_18  and  O_20
REMARK    5  A    between atoms: O_20  and  C_21
REMARK    6  A    between atoms: C_21  and  C_23
REMARK    7  A    between atoms: C_25  and  O_33
REMARK    8  A    between atoms: C_26  and  O_31
REMARK    9  A    between atoms: C_27  and  O_29
REMARK   10  A    between atoms: O_29  and  C_30
REMARK   11  A    between atoms: O_31  and  C_32
REMARK   12  A    between atoms: O_33  and  C_34
REMARK                            x       y       z     vdW  Elec       q    Type
REMARK                         _______ _______ _______ _____ _____    ______ ____
ROOT
ATOM      1  C   UNL     1       1.825   2.027   1.392  0.00  0.00    -0.002 A 
ATOM      2  C   UNL     1       0.925   2.217   2.424  0.00  0.00    +0.007 A 
ATOM      3  C   UNL     1       1.379   2.396   3.718  0.00  0.00    +0.004 A 
ATOM      4  C   UNL     1       2.736   2.397   3.980  0.00  0.00    +0.046 A 
ATOM      5  C   UNL     1       3.642   2.212   2.946  0.00  0.00    +0.132 A 
ATOM      6  C   UNL     1       3.182   2.026   1.650  0.00  0.00    +0.053 A 
ENDROOT
BRANCH   1  17
ATOM      7  C   UNL     1       0.051  -6.538   0.308  0.00  0.00    -0.096 C 
ATOM      8  C   UNL     1       1.687  -4.757   0.164  0.00  0.00    -0.074 C 
ATOM      9  C   UNL     1       1.997  -3.442  -0.555  0.00  0.00    +0.018 C 
ATOM     10  C   UNL     1       0.947  -2.415  -0.144  0.00  0.00    -0.027 A 
ATOM     11  C   UNL     1      -0.216  -2.825   0.417  0.00  0.00    -0.021 A 
ATOM     12  S   UNL     1      -1.121  -1.334   0.730  0.00  0.00    -0.080 S 
ATOM     13  C   UNL     1       0.015  -0.203   0.129  0.00  0.00    +0.080 A 
ATOM     14  C   UNL     1       1.095  -0.982  -0.308  0.00  0.00    +0.067 A 
ATOM     15  C   UNL     1       2.264  -0.264  -0.878  0.00  0.00    +0.220 C 
ATOM     16  N   UNL     1       2.299   1.034  -0.756  0.00  0.00    -0.223 NA
ATOM     17  C   UNL     1       1.326   1.827  -0.015  0.00  0.00    +0.224 C 
ATOM     18  N   UNL     1       0.008   1.167   0.031  0.00  0.00    -0.313 N 
ATOM     19  C   UNL     1      -0.619  -4.239   0.696  0.00  0.00    -0.036 C 
ATOM     20  H   UNL     1      -0.819   1.673  -0.009  0.00  0.00    +0.149 HD
ATOM     21  N   UNL     1       0.278  -5.129  -0.080  0.00  0.00    +0.381 N 
ATOM     22  H   UNL     1       0.072  -5.021  -1.080  0.00  0.00    -0.082 HD
BRANCH  15  23
ATOM     23  O   UNL     1       3.259  -0.935  -1.504  0.00  0.00    -0.492 OA
ATOM     24  H   UNL     1       3.968  -0.367  -1.835  0.00  0.00    +0.294 HD
ENDBRANCH  15  23
ENDBRANCH   1  17
BRANCH   5  25
ATOM     25  O   UNL     1       4.976   2.211   3.202  0.00  0.00    -0.422 OA
BRANCH  25  26
ATOM     26  C   UNL     1       5.690   3.252   2.731  0.00  0.00    +0.345 C 
ATOM     27  O   UNL     1       5.123   4.187   2.200  0.00  0.00    -0.245 OA
BRANCH  26  28
ATOM     28  C   UNL     1       7.159   3.258   2.858  0.00  0.00    +0.067 A 
ATOM     29  C   UNL     1       7.812   2.186   3.473  0.00  0.00    +0.064 A 
ATOM     30  C   UNL     1       9.190   2.191   3.588  0.00  0.00    +0.166 A 
ATOM     31  C   UNL     1       9.926   3.268   3.100  0.00  0.00    +0.204 A 
ATOM     32  C   UNL     1       9.277   4.339   2.491  0.00  0.00    +0.166 A 
ATOM     33  C   UNL     1       7.901   4.337   2.370  0.00  0.00    +0.064 A 
BRANCH  32  34
ATOM     34  O   UNL     1       9.999   5.389   2.016  0.00  0.00    -0.491 OA
ATOM     35  C   UNL     1       9.270   6.455   1.404  0.00  0.00    +0.277 C 
ENDBRANCH  32  34
BRANCH  31  36
ATOM     36  O   UNL     1      11.279   3.273   3.219  0.00  0.00    -0.488 OA
ATOM     37  C   UNL     1      11.825   3.855   4.404  0.00  0.00    +0.277 C 
ENDBRANCH  31  36
BRANCH  30  38
ATOM     38  O   UNL     1       9.826   1.147   4.182  0.00  0.00    -0.491 OA
ATOM     39  C   UNL     1       9.009   0.076   4.660  0.00  0.00    +0.277 C 
ENDBRANCH  30  38
ENDBRANCH  26  28
ENDBRANCH  25  26
ENDBRANCH   5  25
TORSDOF 8
