REMARK  Name = ZINC39656882
REMARK  9 active torsions:
REMARK  status: ('A' for Active; 'I' for Inactive)
REMARK    1  A    between atoms: C_1  and  C_2
REMARK    2  A    between atoms: C_2  and  C_4
REMARK    3  A    between atoms: C_2  and  N_11
REMARK    4  A    between atoms: C_12  and  C_14
REMARK    5  A    between atoms: C_25  and  C_27
REMARK    6  A    between atoms: C_30  and  O_35
REMARK    7  A    between atoms: C_32  and  O_33
REMARK    8  A    between atoms: O_33  and  C_34
REMARK    9  A    between atoms: O_35  and  C_36
REMARK                            x       y       z     vdW  Elec       q    Type
REMARK                         _______ _______ _______ _____ _____    ______ ____
ROOT
ATOM      1  C   UNL     1      -3.459  -1.168  -1.129  0.00  0.00    +0.100 C 
ATOM      2  C   UNL     1      -3.481  -2.658  -0.720  0.00  0.00    +0.121 C 
ATOM      3  N   UNL     1      -4.545  -3.260  -1.556  0.00  0.00    -0.296 N 
ATOM      4  C   UNL     1      -4.389  -2.607  -2.878  0.00  0.00    +0.115 C 
ATOM      5  C   UNL     1      -4.055  -1.139  -2.546  0.00  0.00    -0.004 C 
ATOM      6  C   UNL     1      -3.033  -0.595  -3.539  0.00  0.00    -0.010 C 
ATOM      7  C   UNL     1      -3.667  -0.521  -4.931  0.00  0.00    -0.082 C 
ATOM      8  N   UNL     1      -4.848   0.350  -4.886  0.00  0.00    +0.379 N 
ATOM      9  C   UNL     1      -5.865  -0.230  -4.000  0.00  0.00    -0.082 C 
ATOM     10  C   UNL     1      -5.323  -0.291  -2.569  0.00  0.00    -0.010 C 
ATOM     11  C   UNL     1      -5.451  -4.192  -1.196  0.00  0.00    +0.250 C 
ATOM     12  O   UNL     1      -5.515  -4.562  -0.040  0.00  0.00    -0.270 OA
ATOM     13  H   UNL     1      -4.581   1.259  -4.540  0.00  0.00    -0.086 HD
ATOM     14  H   UNL     1      -5.229   0.446  -5.816  0.00  0.00    -0.086 HD
ENDROOT
BRANCH  11  15
ATOM     15  C   UNL     1      -6.363  -4.760  -2.204  0.00  0.00    +0.079 A 
ATOM     16  C   UNL     1      -5.921  -4.962  -3.516  0.00  0.00    +0.020 A 
ATOM     17  C   UNL     1      -6.775  -5.494  -4.454  0.00  0.00    +0.046 A 
ATOM     18  C   UNL     1      -8.079  -5.832  -4.103  0.00  0.00    +0.124 A 
ATOM     19  C   UNL     1      -8.527  -5.635  -2.805  0.00  0.00    +0.092 A 
ATOM     20  C   UNL     1      -7.675  -5.107  -1.851  0.00  0.00    +0.136 A 
BRANCH  20  21
ATOM     21  O   UNL     1      -8.110  -4.919  -0.579  0.00  0.00    -0.494 OA
ATOM     22  C   UNL     1      -9.459  -5.295  -0.293  0.00  0.00    +0.277 C 
ENDBRANCH  20  21
BRANCH  18  23
ATOM     23  O   UNL     1      -8.915  -6.356  -5.035  0.00  0.00    -0.495 OA
ATOM     24  C   UNL     1      -8.390  -6.532  -6.352  0.00  0.00    +0.277 C 
ENDBRANCH  18  23
ENDBRANCH  11  15
BRANCH   1  26
ATOM     25  N   UNL     1      -1.812   0.676  -1.061  0.00  0.00    -0.308 N 
ATOM     26  C   UNL     1      -2.045  -0.649  -1.144  0.00  0.00    +0.219 C 
ATOM     27  O   UNL     1      -1.115  -1.423  -1.231  0.00  0.00    -0.275 OA
ATOM     28  H   UNL     1      -2.555   1.296  -0.991  0.00  0.00    +0.149 HD
BRANCH  25  30
ATOM     29  C   UNL     1       0.033   1.338  -2.523  0.00  0.00    +0.033 C 
ATOM     30  C   UNL     1      -0.437   1.181  -1.076  0.00  0.00    +0.100 C 
BRANCH  30  31
ATOM     31  C   UNL     1      -0.385   2.518  -0.383  0.00  0.00    -0.027 A 
ATOM     32  C   UNL     1      -1.403   3.434  -0.572  0.00  0.00    +0.006 A 
ATOM     33  C   UNL     1      -1.357   4.661   0.064  0.00  0.00    +0.015 A 
ATOM     34  C   UNL     1      -0.291   4.971   0.889  0.00  0.00    +0.018 A 
ATOM     35  C   UNL     1       0.727   4.055   1.078  0.00  0.00    +0.015 A 
ATOM     36  C   UNL     1       0.677   2.826   0.447  0.00  0.00    +0.006 A 
ATOM     37 BR   UNL     1      -0.226   6.649   1.759  0.00  0.00    -0.050 Br
ENDBRANCH  30  31
ENDBRANCH  25  30
ENDBRANCH   1  26
TORSDOF 6
