REMARK  Name = ZINC20911796
REMARK  7 active torsions:
REMARK  status: ('A' for Active; 'I' for Inactive)
REMARK    1  A    between atoms: C_1  and  C_2
REMARK    2  A    between atoms: C_6  and  C_12
REMARK    3  A    between atoms: C_12  and  N_13
REMARK    4  A    between atoms: C_14  and  C_16
REMARK    5  A    between atoms: C_16  and  C_17
REMARK    6  A    between atoms: N_24  and  C_25
REMARK    7  A    between atoms: C_25  and  C_26
REMARK                            x       y       z     vdW  Elec       q    Type
REMARK                         _______ _______ _______ _____ _____    ______ ____
ROOT
ATOM      1  C   UNL     1       1.095   2.408   2.307  0.00  0.00    +0.089 C 
ENDROOT
BRANCH   1   2
ATOM      2  C   UNL     1      -0.014   1.358   2.391  0.00  0.00    +0.028 C 
ATOM      3  C   UNL     1      -0.668   1.430   3.743  0.00  0.00    +0.200 C 
ATOM      4  O   UNL     1       0.036   1.560   4.722  0.00  0.00    -0.278 OA
ATOM      5  N   UNL     1      -1.992   1.356   3.910  0.00  0.00    -0.318 N 
ATOM      6  C   UNL     1      -2.928   1.235   2.796  0.00  0.00    +0.085 C 
ATOM      7  C   UNL     1      -2.191   0.762   1.542  0.00  0.00    -0.059 C 
ATOM      8  N   UNL     1      -1.007   1.613   1.339  0.00  0.00    +0.389 N 
ATOM      9  H   UNL     1      -2.369   1.390   4.943  0.00  0.00    +0.149 HD
ATOM     10  H   UNL     1      -1.318   2.667   1.403  0.00  0.00    -0.081 HD
BRANCH   8  11
ATOM     11  C   UNL     1      -0.428   1.401   0.006  0.00  0.00    -0.074 C 
BRANCH  11  12
ATOM     12  C   UNL     1      -1.046   2.393  -0.982  0.00  0.00    -0.028 C 
ATOM     13  C   UNL     1      -2.539   2.097  -1.136  0.00  0.00    +0.002 C 
ATOM     14  C   UNL     1      -3.156   3.089  -2.124  0.00  0.00    +0.000 C 
ATOM     15  C   UNL     1      -2.466   2.952  -3.483  0.00  0.00    +0.000 C 
ATOM     16  C   UNL     1      -0.973   3.249  -3.328  0.00  0.00    +0.000 C 
ATOM     17  C   UNL     1      -0.355   2.257  -2.340  0.00  0.00    +0.002 C 
ENDBRANCH  11  12
ENDBRANCH   8  11
ENDBRANCH   1   2
BRANCH   1  19
ATOM     18  N   UNL     1       1.300   4.864   2.518  0.00  0.00    -0.311 N 
ATOM     19  C   UNL     1       0.497   3.784   2.450  0.00  0.00    +0.212 C 
ATOM     20  O   UNL     1      -0.707   3.919   2.503  0.00  0.00    -0.276 OA
ATOM     21  H   UNL     1       2.392   4.742   2.470  0.00  0.00    +0.149 HD
BRANCH  18  22
ATOM     22  C   UNL     1       0.718   6.202   2.656  0.00  0.00    +0.139 C 
BRANCH  22  28
ATOM     23  C   UNL     1       5.859  11.252   0.579  0.00  0.00    +0.063 C 
ATOM     24  C   UNL     1       4.907  10.285   1.236  0.00  0.00    +0.014 A 
ATOM     25  C   UNL     1       4.010   9.526   0.587  0.00  0.00    +0.030 A 
ATOM     26  C   UNL     1       3.300   8.741   1.600  0.00  0.00    +0.000 A 
ATOM     27  C   UNL     1       2.278   7.792   1.552  0.00  0.00    +0.015 A 
ATOM     28  C   UNL     1       1.822   7.226   2.709  0.00  0.00    -0.030 A 
ATOM     29  C   UNL     1       2.364   7.593   3.934  0.00  0.00    +0.007 A 
ATOM     30  C   UNL     1       3.377   8.523   4.004  0.00  0.00    +0.026 A 
ATOM     31  C   UNL     1       3.857   9.112   2.838  0.00  0.00    +0.047 A 
ATOM     32  N   UNL     1       4.830  10.051   2.582  0.00  0.00    -0.358 N 
ATOM     33  H   UNL     1       5.495  10.589   3.273  0.00  0.00    +0.166 HD
ENDBRANCH  22  28
ENDBRANCH  18  22
ENDBRANCH   1  19
TORSDOF 6
