REMARK  Name = ZINC67409021
REMARK  11 active torsions:
REMARK  status: ('A' for Active; 'I' for Inactive)
REMARK    1  A    between atoms: C_1  and  C_2
REMARK    2  A    between atoms: C_2  and  C_4
REMARK    3  A    between atoms: C_2  and  N_12
REMARK    4  A    between atoms: C_4  and  C_5
REMARK    5  A    between atoms: C_8  and  O_11
REMARK    6  A    between atoms: N_15  and  C_16
REMARK    7  A    between atoms: C_16  and  C_18
REMARK    8  A    between atoms: C_16  and  C_19
REMARK    9  A    between atoms: C_23  and  S_25
REMARK   10  A    between atoms: S_25  and  N_28
REMARK   11  A    between atoms: N_28  and  C_29
REMARK                            x       y       z     vdW  Elec       q    Type
REMARK                         _______ _______ _______ _____ _____    ______ ____
ROOT
ATOM      1  N   UNL     1       0.711  -0.489   1.189  0.00  0.00    -0.297 N 
ATOM      2  C   UNL     1       0.051  -0.633   2.355  0.00  0.00    +0.300 C 
ATOM      3  O   UNL     1      -1.132  -0.361   2.423  0.00  0.00    -0.253 OA
ATOM      4  N   UNL     1       0.703  -1.080   3.447  0.00  0.00    -0.293 N 
ATOM      5  H   UNL     1       1.654  -0.707   1.135  0.00  0.00    +0.151 HD
ATOM      6  H   UNL     1       1.647  -1.298   3.394  0.00  0.00    +0.151 HD
ENDROOT
BRANCH   1   8
ATOM      7  C   UNL     1      -0.019   1.526   0.010  0.00  0.00    +0.028 C 
ATOM      8  C   UNL     1       0.002  -0.004   0.002  0.00  0.00    +0.076 C 
BRANCH   8   9
ATOM      9  C   UNL     1       0.718  -0.497  -1.257  0.00  0.00    +0.057 C 
BRANCH   9  10
ATOM     10  C   UNL     1       0.632  -2.000  -1.327  0.00  0.00    -0.045 A 
ATOM     11  C   UNL     1       1.613  -2.777  -0.738  0.00  0.00    +0.007 A 
ATOM     12  C   UNL     1       1.536  -4.154  -0.802  0.00  0.00    +0.045 A 
ATOM     13  C   UNL     1       0.473  -4.759  -1.458  0.00  0.00    +0.117 A 
ATOM     14  C   UNL     1      -0.510  -3.978  -2.048  0.00  0.00    +0.045 A 
ATOM     15  C   UNL     1      -0.431  -2.601  -1.977  0.00  0.00    +0.007 A 
BRANCH  13  16
ATOM     16  O   UNL     1       0.395  -6.114  -1.522  0.00  0.00    -0.507 OA
ATOM     17  H   UNL     1      -0.087  -6.516  -0.787  0.00  0.00    +0.292 HD
ENDBRANCH  13  16
ENDBRANCH   9  10
ENDBRANCH   8   9
ENDBRANCH   1   8
BRANCH   4  18
ATOM     18  C   UNL     1      -0.014  -1.237   4.715  0.00  0.00    +0.102 C 
ATOM     19  C   UNL     1      -0.037   0.102   5.457  0.00  0.00    +0.033 C 
BRANCH  18  20
ATOM     20  C   UNL     1       0.685  -2.268   5.563  0.00  0.00    -0.026 A 
ATOM     21  C   UNL     1       2.066  -2.304   5.611  0.00  0.00    +0.005 A 
ATOM     22  C   UNL     1       2.706  -3.251   6.388  0.00  0.00    +0.002 A 
ATOM     23  C   UNL     1       1.966  -4.161   7.119  0.00  0.00    +0.028 A 
ATOM     24  C   UNL     1       0.585  -4.125   7.072  0.00  0.00    +0.106 A 
ATOM     25  C   UNL     1      -0.056  -3.176   6.297  0.00  0.00    +0.034 A 
BRANCH  24  26
ATOM     26  S   UNL     1      -0.359  -5.286   8.002  0.00  0.00    +0.058 S 
ATOM     27  O   UNL     1      -1.623  -5.389   7.361  0.00  0.00    -0.153 OA
ATOM     28  O   UNL     1       0.481  -6.412   8.217  0.00  0.00    -0.153 OA
BRANCH  26  29
ATOM     29  N   UNL     1      -0.637  -4.612   9.489  0.00  0.00    -0.193 NA
ATOM     30  C   UNL     1      -1.458  -3.404   9.604  0.00  0.00    +0.127 C 
ATOM     31  H   UNL     1      -0.256  -5.016  10.284  0.00  0.00    +0.148 HD
ENDBRANCH  26  29
ENDBRANCH  24  26
ENDBRANCH  18  20
ENDBRANCH   4  18
TORSDOF 8
