REMARK  Name = ZINC09257560
REMARK  7 active torsions:
REMARK  status: ('A' for Active; 'I' for Inactive)
REMARK    1  A    between atoms: C_1  and  C_2
REMARK    2  A    between atoms: C_3  and  C_27
REMARK    3  A    between atoms: C_4  and  N_13
REMARK    4  A    between atoms: C_6  and  C_7
REMARK    5  A    between atoms: C_14  and  C_16
REMARK    6  A    between atoms: C_16  and  N_63
REMARK    7  A    between atoms: C_20  and  C_22
REMARK                            x       y       z     vdW  Elec       q    Type
REMARK                         _______ _______ _______ _____ _____    ______ ____
ROOT
ATOM      1  C   UNL     1       0.136   1.386   0.270  0.00  0.00    +0.046 C 
ATOM      2  C   UNL     1       0.129  -0.116   0.139  0.00  0.00    -0.022 A 
ATOM      3  C   UNL     1       0.131  -0.731  -1.113  0.00  0.00    +0.069 A 
ATOM      4  C   UNL     1       0.129  -2.123  -1.149  0.00  0.00    +0.085 A 
ATOM      5  S   UNL     1       0.113  -2.554   0.530  0.00  0.00    -0.072 S 
ATOM      6  C   UNL     1       0.116  -0.918   1.238  0.00  0.00    +0.025 A 
ENDROOT
BRANCH   3   7
ATOM      7  C   UNL     1       0.139   0.061  -2.348  0.00  0.00    +0.249 C 
ATOM      8  O   UNL     1       1.196   0.385  -2.856  0.00  0.00    -0.270 OA
ATOM      9  N   UNL     1      -1.025   0.430  -2.919  0.00  0.00    -0.293 N 
ATOM     10  C   UNL     1      -2.315   0.046  -2.326  0.00  0.00    +0.136 C 
ATOM     11  C   UNL     1      -3.182   1.310  -2.204  0.00  0.00    +0.179 C 
ATOM     12  O   UNL     1      -3.237   1.965  -3.473  0.00  0.00    -0.377 OA
ATOM     13  C   UNL     1      -1.970   2.426  -3.949  0.00  0.00    +0.179 C 
ATOM     14  C   UNL     1      -1.042   1.224  -4.158  0.00  0.00    +0.136 C 
ENDBRANCH   3   7
BRANCH   6  15
ATOM     15  C   UNL     1       0.105  -0.530   2.664  0.00  0.00    -0.011 A 
ATOM     16  C   UNL     1       0.997   0.435   3.134  0.00  0.00    +0.009 A 
ATOM     17  C   UNL     1       0.978   0.796   4.466  0.00  0.00    +0.001 A 
ATOM     18  C   UNL     1       0.086   0.197   5.336  0.00  0.00    +0.000 A 
ATOM     19  C   UNL     1      -0.797  -0.765   4.878  0.00  0.00    +0.001 A 
ATOM     20  C   UNL     1      -0.792  -1.132   3.548  0.00  0.00    +0.009 A 
ENDBRANCH   6  15
BRANCH   4  21
ATOM     21  N   UNL     1       0.134  -2.958  -2.254  0.00  0.00    -0.281 N 
ATOM     22  C   UNL     1       0.125  -4.296  -2.089  0.00  0.00    +0.201 C 
ATOM     23  O   UNL     1       0.113  -4.768  -0.972  0.00  0.00    -0.278 OA
ATOM     24  H   UNL     1       0.144  -2.580  -3.148  0.00  0.00    +0.155 HD
BRANCH  22  25
ATOM     25  C   UNL     1       0.131  -5.204  -3.292  0.00  0.00    +0.020 C 
BRANCH  25  30
ATOM     26  C   UNL     1       1.564  -6.843  -2.214  0.00  0.00    -0.077 C 
ATOM     27  C   UNL     1       1.975  -8.285  -2.564  0.00  0.00    -0.020 C 
ATOM     28  C   UNL     1       0.834  -8.825  -3.458  0.00  0.00    -0.012 C 
ATOM     29  C   UNL     1       0.182  -7.531  -4.006  0.00  0.00    -0.030 C 
ATOM     30  N   UNL     1       0.261  -6.626  -2.853  0.00  0.00    +0.390 N 
ATOM     31  H   UNL     1      -0.492  -6.844  -2.190  0.00  0.00    -0.080 HD
BRANCH  29  32
ATOM     32  C   UNL     1      -1.250  -7.783  -4.401  0.00  0.00    -0.024 A 
ATOM     33  C   UNL     1      -1.787  -7.890  -5.641  0.00  0.00    +0.009 A 
ATOM     34  C   UNL     1      -3.143  -8.127  -5.766  0.00  0.00    +0.008 A 
ATOM     35  C   UNL     1      -3.896  -8.246  -4.644  0.00  0.00    +0.045 A 
ATOM     36  S   UNL     1      -2.678  -8.027  -3.357  0.00  0.00    -0.103 S 
ENDBRANCH  29  32
ENDBRANCH  25  30
ENDBRANCH  22  25
ENDBRANCH   4  21
TORSDOF 6
