REMARK  Name = ZINC08623000
REMARK  10 active torsions:
REMARK  status: ('A' for Active; 'I' for Inactive)
REMARK    1  A    between atoms: C_1  and  C_2
REMARK    2  A    between atoms: C_2  and  C_3
REMARK    3  A    between atoms: C_3  and  C_4
REMARK    4  A    between atoms: C_3  and  C_6
REMARK    5  A    between atoms: C_4  and  C_5
REMARK    6  A    between atoms: C_8  and  C_18
REMARK    7  A    between atoms: C_10  and  C_12
REMARK    8  A    between atoms: C_26  and  C_28
REMARK    9  A    between atoms: C_28  and  N_29
REMARK   10  A    between atoms: C_30  and  C_32
REMARK                            x       y       z     vdW  Elec       q    Type
REMARK                         _______ _______ _______ _____ _____    ______ ____
ROOT
ATOM      1  C   UNL     1       2.940   5.678   2.929  0.00  0.00    +0.024 C 
ATOM      2  C   UNL     1       3.120   4.160   2.842  0.00  0.00    -0.068 C 
ATOM      3  C   UNL     1       5.268   4.421   1.754  0.00  0.00    -0.078 C 
ATOM      4  C   UNL     1       5.154   5.965   1.800  0.00  0.00    -0.015 C 
ATOM      5  C   UNL     1       3.666   6.332   1.746  0.00  0.00    -0.007 C 
ATOM      6  C   UNL     1       3.073   5.781   0.444  0.00  0.00    -0.010 C 
ATOM      7  C   UNL     1       3.248   4.260   0.425  0.00  0.00    -0.051 C 
ATOM      8  N   UNL     1       3.929   3.803   1.656  0.00  0.00    +0.383 N 
ATOM      9  H   UNL     1       4.034   2.783   1.620  0.00  0.00    -0.081 HD
ENDROOT
BRANCH   1  12
ATOM     10  C   UNL     1      -0.802   5.550   3.409  0.00  0.00    +0.048 A 
ATOM     11  C   UNL     1       0.538   5.199   3.484  0.00  0.00    +0.047 A 
ATOM     12  C   UNL     1       1.474   6.020   2.873  0.00  0.00    +0.047 A 
ATOM     13  N   UNL     1       1.063   7.108   2.244  0.00  0.00    -0.232 NA
ATOM     14  C   UNL     1      -0.225   7.412   2.186  0.00  0.00    +0.160 A 
ATOM     15  N   UNL     1      -1.145   6.649   2.760  0.00  0.00    -0.232 NA
BRANCH  14  16
ATOM     16  C   UNL     1      -0.648   8.639   1.467  0.00  0.00    +0.022 A 
ATOM     17  C   UNL     1       0.291   9.472   0.854  0.00  0.00    +0.031 A 
ATOM     18  C   UNL     1      -0.146  10.602   0.192  0.00  0.00    +0.111 A 
ATOM     19  N   UNL     1      -1.429  10.903   0.142  0.00  0.00    -0.263 NA
ATOM     20  C   UNL     1      -2.347  10.147   0.711  0.00  0.00    +0.111 A 
ATOM     21  C   UNL     1      -1.997   8.997   1.389  0.00  0.00    +0.031 A 
ENDBRANCH  14  16
BRANCH  10  22
ATOM     22  C   UNL     1      -1.854   4.688   4.058  0.00  0.00    +0.037 C 
BRANCH  22  24
ATOM     23  C   UNL     1      -3.399   2.756   3.708  0.00  0.00    +0.004 C 
ATOM     24  C   UNL     1      -2.229   3.543   3.114  0.00  0.00    +0.006 C 
ENDBRANCH  22  24
BRANCH  22  25
ATOM     25  C   UNL     1      -1.306   4.111   5.365  0.00  0.00    +0.006 C 
ATOM     26  C   UNL     1      -1.050   5.249   6.356  0.00  0.00    +0.004 C 
ENDBRANCH  22  25
ENDBRANCH  10  22
ENDBRANCH   1  12
BRANCH   7  27
ATOM     27  C   UNL     1       1.877   3.588   0.337  0.00  0.00    +0.089 C 
BRANCH  27  28
ATOM     28  N   UNL     1       2.037   2.135   0.437  0.00  0.00    -0.317 N 
ATOM     29  C   UNL     1       0.969   1.328   0.283  0.00  0.00    +0.216 C 
ATOM     30  O   UNL     1      -0.138   1.805   0.148  0.00  0.00    -0.276 OA
ATOM     31  H   UNL     1       2.911   1.755   0.614  0.00  0.00    +0.149 HD
BRANCH  29  32
ATOM     32  C   UNL     1       1.151  -0.168   0.273  0.00  0.00    +0.075 C 
ATOM     33  C   UNL     1       1.582  -0.727  -1.093  0.00  0.00    +0.013 C 
ATOM     34  C   UNL     1       0.623  -1.900  -0.828  0.00  0.00    +0.001 C 
ATOM     35  C   UNL     1      -0.162  -0.947   0.089  0.00  0.00    +0.013 C 
ENDBRANCH  29  32
ENDBRANCH  27  28
ENDBRANCH   7  27
TORSDOF 8
