REMARK  Name = ZINC65305989
REMARK  8 active torsions:
REMARK  status: ('A' for Active; 'I' for Inactive)
REMARK    1  A    between atoms: C_1  and  C_2
REMARK    2  A    between atoms: C_2  and  C_3
REMARK    3  A    between atoms: C_3  and  C_5
REMARK    4  A    between atoms: C_3  and  C_6
REMARK    5  A    between atoms: C_6  and  C_8
REMARK    6  A    between atoms: C_6  and  N_20
REMARK    7  A    between atoms: N_10  and  C_11
REMARK    8  A    between atoms: C_21  and  C_23
REMARK                            x       y       z     vdW  Elec       q    Type
REMARK                         _______ _______ _______ _____ _____    ______ ____
ROOT
ATOM      1  C   UNL     1      -2.214  -0.195   1.406  0.00  0.00    +0.162 C 
ENDROOT
BRANCH   1   2
ATOM      2  C   UNL     1      -3.542  -0.846   1.697  0.00  0.00    +0.236 C 
ATOM      3  O   UNL     1      -4.500  -0.163   1.994  0.00  0.00    -0.274 OA
ATOM      4  N   UNL     1      -3.665  -2.186   1.628  0.00  0.00    -0.277 N 
ATOM      5  H   UNL     1      -2.884  -2.737   1.462  0.00  0.00    +0.152 HD
BRANCH   4   6
ATOM      6  C   UNL     1      -4.978  -2.811   1.803  0.00  0.00    +0.269 C 
ATOM      7  N   UNL     1      -5.328  -2.857   3.228  0.00  0.00    -0.348 N 
ATOM      8  C   UNL     1      -5.474  -4.109   3.554  0.00  0.00    +0.061 A 
ATOM      9  C   UNL     1      -5.817  -4.779   4.816  0.00  0.00    +0.027 A 
ATOM     10  C   UNL     1      -5.898  -6.124   4.854  0.00  0.00    +0.002 A 
ATOM     11  C   UNL     1      -5.665  -6.930   3.725  0.00  0.00    +0.002 A 
ATOM     12  C   UNL     1      -5.343  -6.418   2.520  0.00  0.00    +0.027 A 
ATOM     13  C   UNL     1      -5.228  -4.962   2.359  0.00  0.00    +0.061 A 
ATOM     14  N   UNL     1      -4.939  -4.204   1.341  0.00  0.00    -0.348 N 
ATOM     15  H   UNL     1      -5.432  -2.095   3.818  0.00  0.00    +0.163 HD
ATOM     16  H   UNL     1      -4.736  -4.505   0.441  0.00  0.00    +0.163 HD
ENDBRANCH   4   6
ENDBRANCH   1   2
BRANCH   1  17
ATOM     17  N   UNL     1      -2.335   1.256   1.569  0.00  0.00    -0.300 N 
ATOM     18  C   UNL     1      -1.306   1.966   2.073  0.00  0.00    +0.245 C 
ATOM     19  O   UNL     1      -0.247   1.417   2.309  0.00  0.00    -0.270 OA
ATOM     20  H   UNL     1      -3.156   1.706   1.314  0.00  0.00    +0.150 HD
BRANCH  18  21
ATOM     21  C   UNL     1      -1.465   3.411   2.339  0.00  0.00    +0.037 A 
ATOM     22  C   UNL     1      -2.682   4.043   2.075  0.00  0.00    +0.013 A 
ATOM     23  C   UNL     1      -2.824   5.392   2.325  0.00  0.00    +0.001 A 
ATOM     24  C   UNL     1      -1.764   6.119   2.838  0.00  0.00    +0.000 A 
ATOM     25  C   UNL     1      -0.555   5.499   3.102  0.00  0.00    +0.001 A 
ATOM     26  C   UNL     1      -0.402   4.149   2.861  0.00  0.00    +0.013 A 
ENDBRANCH  18  21
ENDBRANCH   1  17
BRANCH   1  27
ATOM     27  C   UNL     1      -1.794  -0.514  -0.030  0.00  0.00    +0.015 C 
ATOM     28  C   UNL     1      -0.367  -0.016  -0.267  0.00  0.00    +0.010 C 
BRANCH  27  30
ATOM     29  C   UNL     1      -4.138  -0.440  -0.892  0.00  0.00    +0.004 C 
ATOM     30  C   UNL     1      -2.745   0.182  -1.006  0.00  0.00    +0.002 C 
ENDBRANCH  27  30
ENDBRANCH   1  27
TORSDOF 6
