REMARK  Name = ZINC06195457
REMARK  15 active torsions:
REMARK  status: ('A' for Active; 'I' for Inactive)
REMARK    1  A    between atoms: C_1  and  C_2
REMARK    2  A    between atoms: C_2  and  O_3
REMARK    3  A    between atoms: O_3  and  C_4
REMARK    4  A    between atoms: C_4  and  C_5
REMARK    5  A    between atoms: C_5  and  O_6
REMARK    6  A    between atoms: O_6  and  C_7
REMARK    7  A    between atoms: C_7  and  C_9
REMARK    8  A    between atoms: C_10  and  C_39
REMARK    9  A    between atoms: C_14  and  C_16
REMARK   10  A    between atoms: C_20  and  C_22
REMARK   11  A    between atoms: C_26  and  C_29
REMARK   12  A    between atoms: C_32  and  O_37
REMARK   13  A    between atoms: C_33  and  O_35
REMARK   14  A    between atoms: O_35  and  C_36
REMARK   15  A    between atoms: O_37  and  C_38
REMARK                            x       y       z     vdW  Elec       q    Type
REMARK                         _______ _______ _______ _____ _____    ______ ____
ROOT
ATOM      1  C   UNL     1      -4.160   2.969   2.153  0.00  0.00    +0.154 C 
ATOM      2  C   UNL     1      -4.741   2.653   0.983  0.00  0.00    +0.031 C 
ATOM      3  N   UNL     1      -4.114   1.818   0.101  0.00  0.00    -0.260 NA
ATOM      4  C   UNL     1      -2.765   1.601   0.183  0.00  0.00    +0.049 C 
ATOM      5  C   UNL     1      -2.095   1.878   1.321  0.00  0.00    +0.025 C 
ATOM      6  C   UNL     1      -2.818   2.416   2.530  0.00  0.00    +0.073 C 
ATOM      7  C   UNL     1      -0.704   1.675   1.415  0.00  0.00    +0.162 C 
ATOM      8  O   UNL     1      -0.131   1.925   2.456  0.00  0.00    -0.292 OA
ATOM      9  C   UNL     1       0.084   1.155   0.244  0.00  0.00    +0.088 C 
ATOM     10  C   UNL     1      -0.613   1.573  -1.055  0.00  0.00    +0.032 C 
ATOM     11  C   UNL     1      -2.051   1.045  -1.024  0.00  0.00    +0.064 C 
ATOM     12  C   UNL     1      -6.093   3.225   0.640  0.00  0.00    +0.061 C 
ENDROOT
BRANCH   6  13
ATOM     13  C   UNL     1      -3.011   1.302   3.527  0.00  0.00    -0.038 A 
ATOM     14  C   UNL     1      -3.732   0.176   3.174  0.00  0.00    +0.004 A 
ATOM     15  C   UNL     1      -3.909  -0.846   4.088  0.00  0.00    +0.001 A 
ATOM     16  C   UNL     1      -3.365  -0.741   5.355  0.00  0.00    +0.003 A 
ATOM     17  C   UNL     1      -2.644   0.384   5.708  0.00  0.00    -0.050 A 
ATOM     18  C   UNL     1      -2.464   1.404   4.792  0.00  0.00    +0.007 A 
ATOM     19  C   UNL     1      -2.051   0.497   7.088  0.00  0.00    +0.044 C 
ENDBRANCH   6  13
BRANCH  10  20
ATOM     20  C   UNL     1       0.117   0.982  -2.234  0.00  0.00    -0.040 A 
ATOM     21  C   UNL     1       0.248  -0.390  -2.348  0.00  0.00    +0.008 A 
ATOM     22  C   UNL     1       0.911  -0.936  -3.430  0.00  0.00    +0.049 A 
ATOM     23  C   UNL     1       1.457  -0.109  -4.398  0.00  0.00    +0.161 A 
ATOM     24  C   UNL     1       1.331   1.272  -4.281  0.00  0.00    +0.162 A 
ATOM     25  C   UNL     1       0.659   1.813  -3.196  0.00  0.00    +0.053 A 
BRANCH  24  26
ATOM     26  O   UNL     1       1.864   2.088  -5.229  0.00  0.00    -0.491 OA
ATOM     27  C   UNL     1       1.696   3.495  -5.043  0.00  0.00    +0.277 C 
ENDBRANCH  24  26
BRANCH  23  28
ATOM     28  O   UNL     1       2.116  -0.645  -5.460  0.00  0.00    -0.491 OA
ATOM     29  C   UNL     1       2.207  -2.070  -5.515  0.00  0.00    +0.277 C 
ENDBRANCH  23  28
ENDBRANCH  10  20
BRANCH   1  30
ATOM     30  C   UNL     1      -4.826   3.842   3.045  0.00  0.00    +0.317 C 
ATOM     31  O   UNL     1      -5.863   4.382   2.707  0.00  0.00    -0.250 OA
BRANCH  30  32
ATOM     32  O   UNL     1      -4.311   4.076   4.270  0.00  0.00    -0.462 OA
BRANCH  32  33
ATOM     33  C   UNL     1      -5.036   4.968   5.119  0.00  0.00    +0.260 C 
BRANCH  33  34
ATOM     34  C   UNL     1      -4.305   5.108   6.455  0.00  0.00    +0.201 C 
BRANCH  34  35
ATOM     35  O   UNL     1      -3.038   5.735   6.242  0.00  0.00    -0.377 OA
BRANCH  35  37
ATOM     36  C   UNL     1      -0.942   6.590   7.087  0.00  0.00    +0.034 C 
ATOM     37  C   UNL     1      -2.270   5.914   7.433  0.00  0.00    +0.156 C 
ENDBRANCH  35  37
ENDBRANCH  34  35
ENDBRANCH  33  34
ENDBRANCH  32  33
ENDBRANCH  30  32
ENDBRANCH   1  30
TORSDOF 10
