REMARK  Name = ZINC00861326
REMARK  11 active torsions:
REMARK  status: ('A' for Active; 'I' for Inactive)
REMARK    1  A    between atoms: C_1  and  C_2
REMARK    2  A    between atoms: C_3  and  C_30
REMARK    3  A    between atoms: C_4  and  C_21
REMARK    4  A    between atoms: C_10  and  C_15
REMARK    5  A    between atoms: C_24  and  O_28
REMARK    6  A    between atoms: O_28  and  C_29
REMARK    7  A    between atoms: C_30  and  O_32
REMARK    8  A    between atoms: O_32  and  C_33
REMARK    9  A    between atoms: C_33  and  C_34
REMARK   10  A    between atoms: C_34  and  C_35
REMARK   11  A    between atoms: C_34  and  C_36
REMARK                            x       y       z     vdW  Elec       q    Type
REMARK                         _______ _______ _______ _____ _____    ______ ____
ROOT
ATOM      1  C   UNL     1      -0.021   1.052   0.017  0.00  0.00    +0.061 C 
ATOM      2  C   UNL     1      -0.722   1.556   1.252  0.00  0.00    +0.016 C 
ATOM      3  C   UNL     1      -0.034   1.702   2.398  0.00  0.00    +0.065 C 
ATOM      4  C   UNL     1      -0.696   2.210   3.644  0.00  0.00    +0.092 C 
ATOM      5  C   UNL     1      -2.197   2.098   3.545  0.00  0.00    +0.024 C 
ATOM      6  C   UNL     1      -2.798   1.932   2.348  0.00  0.00    +0.016 C 
ATOM      7  N   UNL     1      -2.052   1.867   1.199  0.00  0.00    -0.321 N 
ATOM      8  C   UNL     1      -4.298   1.815   2.240  0.00  0.00    +0.059 C 
ATOM      9  C   UNL     1      -4.958   2.621   3.361  0.00  0.00    +0.032 C 
ATOM     10  C   UNL     1      -4.451   2.088   4.705  0.00  0.00    +0.088 C 
ATOM     11  C   UNL     1      -2.950   2.172   4.730  0.00  0.00    +0.162 C 
ATOM     12  O   UNL     1      -2.377   2.308   5.793  0.00  0.00    -0.292 OA
ATOM     13  H   UNL     1      -2.532   2.067   0.230  0.00  0.00    +0.152 HD
ENDROOT
BRANCH   4  14
ATOM     14  C   UNL     1      -0.322   3.656   3.849  0.00  0.00    -0.034 A 
ATOM     15  C   UNL     1       0.342   4.040   4.999  0.00  0.00    +0.008 A 
ATOM     16  C   UNL     1       0.687   5.365   5.189  0.00  0.00    +0.047 A 
ATOM     17  C   UNL     1       0.366   6.309   4.225  0.00  0.00    +0.134 A 
ATOM     18  C   UNL     1      -0.301   5.921   3.072  0.00  0.00    +0.060 A 
ATOM     19  C   UNL     1      -0.639   4.593   2.884  0.00  0.00    +0.023 A 
ATOM     20 BR   UNL     1      -0.742   7.205   1.755  0.00  0.00    -0.047 Br
BRANCH  17  21
ATOM     21  O   UNL     1       0.704   7.613   4.410  0.00  0.00    -0.494 OA
ATOM     22  C   UNL     1       1.388   7.940   5.621  0.00  0.00    +0.277 C 
ENDBRANCH  17  21
ENDBRANCH   4  14
BRANCH   9  23
ATOM     23  C   UNL     1      -6.455   2.462   3.285  0.00  0.00    -0.044 A 
ATOM     24  C   UNL     1      -7.022   1.205   3.373  0.00  0.00    +0.004 A 
ATOM     25  C   UNL     1      -8.395   1.060   3.308  0.00  0.00    +0.000 A 
ATOM     26  C   UNL     1      -9.200   2.171   3.145  0.00  0.00    +0.000 A 
ATOM     27  C   UNL     1      -8.633   3.429   3.052  0.00  0.00    +0.000 A 
ATOM     28  C   UNL     1      -7.260   3.574   3.122  0.00  0.00    +0.004 A 
ENDBRANCH   9  23
BRANCH   3  29
ATOM     29  C   UNL     1       1.341   1.370   2.429  0.00  0.00    +0.338 C 
ATOM     30  O   UNL     1       1.915   1.059   1.402  0.00  0.00    -0.245 OA
BRANCH  29  31
ATOM     31  O   UNL     1       2.016   1.398   3.597  0.00  0.00    -0.461 OA
BRANCH  31  32
ATOM     32  C   UNL     1       3.401   1.052   3.554  0.00  0.00    +0.235 C 
BRANCH  32  33
ATOM     33  C   UNL     1       3.993   1.140   4.962  0.00  0.00    +0.020 C 
ATOM     34  C   UNL     1       3.339   0.086   5.857  0.00  0.00    +0.010 C 
ATOM     35  C   UNL     1       5.501   0.891   4.898  0.00  0.00    +0.010 C 
ENDBRANCH  32  33
ENDBRANCH  31  32
ENDBRANCH  29  31
ENDBRANCH   3  29
TORSDOF 7
