REMARK  Name = ZINC13500649
REMARK  11 active torsions:
REMARK  status: ('A' for Active; 'I' for Inactive)
REMARK    1  A    between atoms: C_1  and  C_2
REMARK    2  A    between atoms: C_9  and  C_14
REMARK    3  A    between atoms: C_14  and  N_72
REMARK    4  A    between atoms: C_15  and  N_72
REMARK    5  A    between atoms: C_21  and  C_23
REMARK    6  A    between atoms: C_21  and  C_35
REMARK    7  A    between atoms: C_21  and  N_72
REMARK    8  A    between atoms: N_27  and  C_28
REMARK    9  A    between atoms: C_28  and  C_29
REMARK   10  A    between atoms: C_35  and  C_36
REMARK   11  A    between atoms: C_35  and  C_37
REMARK                            x       y       z     vdW  Elec       q    Type
REMARK                         _______ _______ _______ _____ _____    ______ ____
ROOT
ATOM      1  N   UNL     1       4.757   1.558  -2.949  0.00  0.00    +0.391 N 
ATOM      2  H   UNL     1       3.893   1.626  -3.499  0.00  0.00    -0.080 HD
ENDROOT
BRANCH   1   3
ATOM      3  C   UNL     1       5.871   2.133  -3.732  0.00  0.00    -0.067 C 
ATOM      4  C   UNL     1       5.667   1.776  -5.206  0.00  0.00    -0.015 C 
ATOM      5  C   UNL     1       6.802   2.377  -6.038  0.00  0.00    -0.002 C 
ATOM      6  C   UNL     1       8.141   1.812  -5.557  0.00  0.00    -0.000 C 
ATOM      7  C   UNL     1       8.345   2.169  -4.084  0.00  0.00    -0.002 C 
ATOM      8  C   UNL     1       7.210   1.568  -3.252  0.00  0.00    -0.015 C 
ENDBRANCH   1   3
BRANCH   1   9
ATOM      9  C   UNL     1       5.028   0.135  -2.655  0.00  0.00    -0.036 C 
BRANCH   9  18
ATOM     10  C   UNL     1       7.638  -3.854  -8.391  0.00  0.00    +0.044 C 
ATOM     11  C   UNL     1       6.490  -3.245  -7.628  0.00  0.00    -0.050 A 
ATOM     12  C   UNL     1       5.191  -3.417  -8.086  0.00  0.00    +0.005 A 
ATOM     13  C   UNL     1       4.126  -2.870  -7.404  0.00  0.00    +0.026 A 
ATOM     14  C   UNL     1       4.353  -2.136  -6.244  0.00  0.00    +0.049 A 
ATOM     15  C   UNL     1       5.671  -1.964  -5.782  0.00  0.00    -0.001 A 
ATOM     16  C   UNL     1       6.737  -2.529  -6.491  0.00  0.00    +0.013 A 
ATOM     17  C   UNL     1       5.899  -1.190  -4.561  0.00  0.00    +0.017 A 
ATOM     18  C   UNL     1       4.828  -0.666  -3.916  0.00  0.00    +0.001 A 
ATOM     19  C   UNL     1       3.525  -0.873  -4.418  0.00  0.00    +0.251 A 
ATOM     20  O   UNL     1       2.575  -0.398  -3.820  0.00  0.00    -0.268 OA
ATOM     21  N   UNL     1       3.306  -1.577  -5.542  0.00  0.00    -0.322 N 
ATOM     22  H   UNL     1       2.398  -1.697  -5.862  0.00  0.00    +0.169 HD
ENDBRANCH   9  18
ENDBRANCH   1   9
BRANCH   1  23
ATOM     23  C   UNL     1       4.585   2.310  -1.689  0.00  0.00    +0.006 C 
BRANCH  23  24
ATOM     24  C   UNL     1       3.881   1.440  -0.680  0.00  0.00    +0.139 A 
ATOM     25  N   UNL     1       2.856   0.655  -0.903  0.00  0.00    -0.115 NA
ATOM     26  N   UNL     1       2.541   0.085   0.208  0.00  0.00    -0.023 NA
ATOM     27  N   UNL     1       3.342   0.481   1.134  0.00  0.00    -0.044 NA
ATOM     28  N   UNL     1       4.185   1.315   0.626  0.00  0.00    -0.226 N 
BRANCH  28  29
ATOM     29  C   UNL     1       5.266   2.002   1.337  0.00  0.00    +0.182 C 
BRANCH  29  30
ATOM     30  C   UNL     1       6.482   1.113   1.383  0.00  0.00    -0.026 A 
ATOM     31  C   UNL     1       7.474   1.247   0.429  0.00  0.00    +0.005 A 
ATOM     32  C   UNL     1       8.589   0.431   0.472  0.00  0.00    +0.000 A 
ATOM     33  C   UNL     1       8.710  -0.523   1.465  0.00  0.00    +0.000 A 
ATOM     34  C   UNL     1       7.720  -0.653   2.422  0.00  0.00    +0.000 A 
ATOM     35  C   UNL     1       6.606   0.163   2.380  0.00  0.00    +0.005 A 
ENDBRANCH  29  30
ENDBRANCH  28  29
ENDBRANCH  23  24
BRANCH  23  36
ATOM     36  C   UNL     1       3.736   3.551  -1.972  0.00  0.00    -0.024 C 
ATOM     37  C   UNL     1       4.514   4.503  -2.884  0.00  0.00    +0.006 C 
ATOM     38  C   UNL     1       2.436   3.133  -2.662  0.00  0.00    +0.006 C 
ENDBRANCH  23  36
ENDBRANCH   1  23
TORSDOF 8
