REMARK  Name = ZINC67037504
REMARK  6 active torsions:
REMARK  status: ('A' for Active; 'I' for Inactive)
REMARK    1  A    between atoms: C_1  and  C_2
REMARK    2  A    between atoms: C_2  and  C_4
REMARK    3  A    between atoms: C_2  and  N_12
REMARK    4  A    between atoms: C_9  and  O_10
REMARK    5  A    between atoms: O_10  and  C_11
REMARK    6  A    between atoms: C_19  and  C_22
REMARK                            x       y       z     vdW  Elec       q    Type
REMARK                         _______ _______ _______ _____ _____    ______ ____
ROOT
ATOM      1  N   UNL     1       0.711  -0.490   1.189  0.00  0.00    -0.293 N 
ATOM      2  C   UNL     1       2.054  -0.600   1.174  0.00  0.00    +0.303 C 
ATOM      3  O   UNL     1       2.670  -0.384   0.148  0.00  0.00    -0.253 OA
ATOM      4  N   UNL     1       2.714  -0.949   2.296  0.00  0.00    -0.281 N 
ATOM      5  C   UNL     1       4.185  -0.965   2.335  0.00  0.00    +0.137 C 
ATOM      6  C   UNL     1       4.644  -0.170   3.564  0.00  0.00    +0.179 C 
ATOM      7  O   UNL     1       3.972  -0.668   4.723  0.00  0.00    -0.369 OA
ATOM      8  C   UNL     1       2.551  -0.515   4.688  0.00  0.00    +0.168 C 
ATOM      9  C   UNL     1       1.985  -1.321   3.519  0.00  0.00    +0.145 C 
ATOM     10  H   UNL     1       0.213  -0.733   1.985  0.00  0.00    +0.151 HD
ENDROOT
BRANCH   8  11
ATOM     11  C   UNL     1       1.958  -1.013   5.980  0.00  0.00    +0.018 A 
ATOM     12  C   UNL     1       2.637  -1.951   6.736  0.00  0.00    +0.009 A 
ATOM     13  C   UNL     1       2.094  -2.409   7.921  0.00  0.00    +0.001 A 
ATOM     14  C   UNL     1       0.871  -1.929   8.353  0.00  0.00    +0.003 A 
ATOM     15  C   UNL     1       0.191  -0.991   7.600  0.00  0.00    +0.039 A 
ATOM     16  C   UNL     1       0.737  -0.528   6.415  0.00  0.00    +0.129 A 
ATOM     17  F   UNL     1       0.075   0.392   5.680  0.00  0.00    -0.205 F 
ENDBRANCH   8  11
BRANCH   1  19
ATOM     18  C   UNL     1      -0.019   1.527   0.013  0.00  0.00    +0.033 C 
ATOM     19  C   UNL     1       0.002  -0.003   0.003  0.00  0.00    +0.105 C 
BRANCH  19  20
ATOM     20  C   UNL     1      -1.411  -0.524   0.012  0.00  0.00    +0.014 A 
ATOM     21  C   UNL     1      -2.015  -0.865   1.208  0.00  0.00    +0.009 A 
ATOM     22  C   UNL     1      -3.312  -1.344   1.217  0.00  0.00    +0.001 A 
ATOM     23  C   UNL     1      -4.008  -1.483   0.031  0.00  0.00    +0.004 A 
ATOM     24  C   UNL     1      -3.410  -1.144  -1.167  0.00  0.00    +0.046 A 
ATOM     25  C   UNL     1      -2.110  -0.658  -1.179  0.00  0.00    +0.125 A 
BRANCH  25  26
ATOM     26  O   UNL     1      -1.521  -0.319  -2.355  0.00  0.00    -0.495 OA
ATOM     27  C   UNL     1      -2.300  -0.482  -3.542  0.00  0.00    +0.277 C 
ENDBRANCH  25  26
ENDBRANCH  19  20
ENDBRANCH   1  19
TORSDOF 4
