REMARK  Name = ZINC31055792
REMARK  10 active torsions:
REMARK  status: ('A' for Active; 'I' for Inactive)
REMARK    1  A    between atoms: C_1  and  C_2
REMARK    2  A    between atoms: C_2  and  C_3
REMARK    3  A    between atoms: C_2  and  C_4
REMARK    4  A    between atoms: C_4  and  C_5
REMARK    5  A    between atoms: C_5  and  C_7
REMARK    6  A    between atoms: C_5  and  N_13
REMARK    7  A    between atoms: C_14  and  C_16
REMARK    8  A    between atoms: N_21  and  C_23
REMARK    9  A    between atoms: C_23  and  C_24
REMARK   10  A    between atoms: C_26  and  C_29
REMARK                            x       y       z     vdW  Elec       q    Type
REMARK                         _______ _______ _______ _____ _____    ______ ____
ROOT
ATOM      1  C   UNL     1      -2.124   7.518   2.424  0.00  0.00    +0.058 C 
ATOM      2  C   UNL     1      -3.456   7.561   1.671  0.00  0.00    +0.009 C 
ATOM      3  C   UNL     1      -4.542   8.108   2.601  0.00  0.00    -0.018 C 
ATOM      4  C   UNL     1      -4.130   9.496   3.097  0.00  0.00    -0.078 C 
ATOM      5  N   UNL     1      -2.850   9.402   3.812  0.00  0.00    +0.386 N 
ATOM      6  C   UNL     1      -1.782   8.923   2.926  0.00  0.00    -0.065 C 
ATOM      7  H   UNL     1      -2.971   8.665   4.620  0.00  0.00    -0.081 HD
ENDROOT
BRANCH   1   9
ATOM      8  N   UNL     1      -1.127   5.816   0.932  0.00  0.00    -0.308 N 
ATOM      9  C   UNL     1      -1.038   7.036   1.498  0.00  0.00    +0.215 C 
ATOM     10  O   UNL     1      -0.083   7.746   1.262  0.00  0.00    -0.276 OA
ATOM     11  H   UNL     1      -1.992   5.172   1.147  0.00  0.00    +0.149 HD
BRANCH   8  12
ATOM     12  C   UNL     1      -0.070   5.347   0.032  0.00  0.00    +0.103 C 
BRANCH  12  13
ATOM     13  C   UNL     1      -0.050   3.840   0.023  0.00  0.00    -0.027 A 
ATOM     14  C   UNL     1       1.156   3.165   0.008  0.00  0.00    +0.005 A 
ATOM     15  C   UNL     1       1.175   1.783   0.000  0.00  0.00    +0.000 A 
ATOM     16  C   UNL     1      -0.013   1.076   0.008  0.00  0.00    +0.000 A 
ATOM     17  C   UNL     1      -1.219   1.751   0.017  0.00  0.00    +0.000 A 
ATOM     18  C   UNL     1      -1.238   3.133   0.030  0.00  0.00    +0.005 A 
ENDBRANCH  12  13
BRANCH  12  19
ATOM     19  C   UNL     1      -0.341   5.862  -1.383  0.00  0.00    +0.030 C 
BRANCH  19  21
ATOM     20  C   UNL     1       1.199   7.806  -1.085  0.00  0.00    +0.007 C 
ATOM     21  C   UNL     1      -0.239   7.388  -1.399  0.00  0.00    -0.015 C 
ATOM     22  C   UNL     1      -0.631   7.911  -2.783  0.00  0.00    +0.007 C 
ENDBRANCH  19  21
ENDBRANCH  12  19
ENDBRANCH   8  12
ENDBRANCH   1   9
BRANCH   5  23
ATOM     23  C   UNL     1      -2.492  10.689   4.421  0.00  0.00    +0.022 C 
BRANCH  23  24
ATOM     24  C   UNL     1      -3.695  11.266   5.122  0.00  0.00    +0.211 A 
ATOM     25  N   UNL     1      -4.041  11.062   6.368  0.00  0.00    -0.193 NA
ATOM     26  C   UNL     1      -5.175  11.777   6.552  0.00  0.00    +0.203 A 
ATOM     27  N   UNL     1      -5.451  12.360   5.414  0.00  0.00    -0.056 NA
ATOM     28  O   UNL     1      -4.612  12.077   4.586  0.00  0.00    -0.340 OA
BRANCH  26  29
ATOM     29  C   UNL     1      -5.960  11.876   7.806  0.00  0.00    +0.041 A 
ATOM     30  C   UNL     1      -7.118  12.650   7.847  0.00  0.00    +0.014 A 
ATOM     31  C   UNL     1      -7.845  12.739   9.016  0.00  0.00    +0.021 A 
ATOM     32  C   UNL     1      -7.427  12.060  10.149  0.00  0.00    +0.042 A 
ATOM     33  C   UNL     1      -6.278  11.289  10.114  0.00  0.00    +0.040 A 
ATOM     34  C   UNL     1      -5.546  11.189   8.947  0.00  0.00    +0.053 A 
ATOM     35 CL   UNL     1      -4.109  10.216   8.903  0.00  0.00    -0.083 Cl
ATOM     36 CL   UNL     1      -8.347  12.176  11.616  0.00  0.00    -0.083 Cl
ENDBRANCH  26  29
ENDBRANCH  23  24
ENDBRANCH   5  23
TORSDOF 8
