REMARK  Name = ZINC09178498
REMARK  14 active torsions:
REMARK  status: ('A' for Active; 'I' for Inactive)
REMARK    1  A    between atoms: C_1  and  C_2
REMARK    2  A    between atoms: C_2  and  N_59
REMARK    3  A    between atoms: C_3  and  C_4
REMARK    4  A    between atoms: C_3  and  N_59
REMARK    5  A    between atoms: C_5  and  C_6
REMARK    6  A    between atoms: C_5  and  N_59
REMARK    7  A    between atoms: C_6  and  N_7
REMARK    8  A    between atoms: C_8  and  C_22
REMARK    9  A    between atoms: C_11  and  C_12
REMARK   10  A    between atoms: C_11  and  O_17
REMARK   11  A    between atoms: C_25  and  O_30
REMARK   12  A    between atoms: C_26  and  O_28
REMARK   13  A    between atoms: O_28  and  C_29
REMARK   14  A    between atoms: O_30  and  C_31
REMARK                            x       y       z     vdW  Elec       q    Type
REMARK                         _______ _______ _______ _____ _____    ______ ____
ROOT
ATOM      1  N   UNL     1       1.384   3.032   1.214  0.00  0.00    -0.285 N 
ATOM      2  C   UNL     1       2.753   3.175   1.718  0.00  0.00    +0.145 C 
ATOM      3  C   UNL     1       3.079   4.650   1.671  0.00  0.00    +0.072 C 
ATOM      4  C   UNL     1       4.270   5.253   2.050  0.00  0.00    +0.140 C 
ATOM      5  C   UNL     1       1.937   5.286   1.174  0.00  0.00    +0.249 C 
ATOM      6  O   UNL     1       1.808   6.485   0.995  0.00  0.00    -0.282 OA
ATOM      7  C   UNL     1       0.907   4.249   0.902  0.00  0.00    +0.288 C 
ATOM      8  O   UNL     1      -0.203   4.470   0.462  0.00  0.00    -0.266 OA
ENDROOT
BRANCH   2   9
ATOM      9  C   UNL     1       2.837   2.670   3.135  0.00  0.00    -0.019 A 
ATOM     10  C   UNL     1       1.812   2.935   4.024  0.00  0.00    +0.009 A 
ATOM     11  C   UNL     1       1.885   2.474   5.325  0.00  0.00    +0.050 A 
ATOM     12  C   UNL     1       2.986   1.743   5.740  0.00  0.00    +0.162 A 
ATOM     13  C   UNL     1       4.018   1.475   4.846  0.00  0.00    +0.162 A 
ATOM     14  C   UNL     1       3.937   1.936   3.541  0.00  0.00    +0.055 A 
BRANCH  13  15
ATOM     15  O   UNL     1       5.101   0.758   5.249  0.00  0.00    -0.491 OA
ATOM     16  C   UNL     1       6.121   0.521   4.276  0.00  0.00    +0.277 C 
ENDBRANCH  13  15
BRANCH  12  17
ATOM     17  O   UNL     1       3.059   1.288   7.020  0.00  0.00    -0.491 OA
ATOM     18  C   UNL     1       1.963   1.600   7.883  0.00  0.00    +0.277 C 
ENDBRANCH  12  17
ENDBRANCH   2   9
BRANCH   4  19
ATOM     19  C   UNL     1       4.372   6.665   2.075  0.00  0.00    +0.054 A 
ATOM     20  C   UNL     1       5.362   7.483   1.538  0.00  0.00    +0.019 A 
ATOM     21  C   UNL     1       5.211   8.835   1.705  0.00  0.00    +0.008 A 
ATOM     22  C   UNL     1       4.128   9.304   2.383  0.00  0.00    +0.046 A 
ATOM     23  S   UNL     1       3.269   7.860   2.809  0.00  0.00    -0.094 S 
ENDBRANCH   4  19
BRANCH   4  24
ATOM     24  O   UNL     1       5.332   4.493   2.396  0.00  0.00    -0.505 OA
ATOM     25  H   UNL     1       6.100   5.085   2.640  0.00  0.00    +0.292 HD
ENDBRANCH   4  24
BRANCH   1  26
ATOM     26  C   UNL     1       0.653   1.770   1.079  0.00  0.00    +0.090 C 
BRANCH  26  27
ATOM     27  C   UNL     1       0.902   1.183  -0.312  0.00  0.00    -0.060 C 
BRANCH  27  28
ATOM     28  N   UNL     1       0.175  -0.099  -0.425  0.00  0.00    +0.380 N 
ATOM     29  H   UNL     1       0.418  -0.692   0.377  0.00  0.00    -0.082 HD
BRANCH  28  31
ATOM     30  C   UNL     1      -1.681   1.046  -1.588  0.00  0.00    -0.017 C 
ATOM     31  C   UNL     1      -1.282   0.144  -0.419  0.00  0.00    -0.082 C 
ENDBRANCH  28  31
BRANCH  28  32
ATOM     32  C   UNL     1       0.566  -0.793  -1.670  0.00  0.00    -0.082 C 
ATOM     33  C   UNL     1       0.098  -2.248  -1.590  0.00  0.00    -0.017 C 
ENDBRANCH  28  32
ENDBRANCH  27  28
ENDBRANCH  26  27
ENDBRANCH   1  26
TORSDOF 10
