REMARK  Name = ZINC20608542
REMARK  7 active torsions:
REMARK  status: ('A' for Active; 'I' for Inactive)
REMARK    1  A    between atoms: C_1  and  C_2
REMARK    2  A    between atoms: C_2  and  C_3
REMARK    3  A    between atoms: C_3  and  N_4
REMARK    4  A    between atoms: C_5  and  C_17
REMARK    5  A    between atoms: N_9  and  C_10
REMARK    6  A    between atoms: C_20  and  S_23
REMARK    7  A    between atoms: S_23  and  N_26
REMARK                            x       y       z     vdW  Elec       q    Type
REMARK                         _______ _______ _______ _____ _____    ______ ____
ROOT
ATOM      1  N   UNL     1       5.006   1.881  -1.010  0.00  0.00    -0.321 N 
ATOM      2  C   UNL     1       5.911   2.518  -0.204  0.00  0.00    +0.058 A 
ATOM      3  C   UNL     1       5.484   3.457   0.665  0.00  0.00    +0.075 A 
ATOM      4  S   UNL     1       3.725   3.480   0.358  0.00  0.00    -0.059 S 
ATOM      5  C   UNL     1       3.678   2.221  -0.909  0.00  0.00    +0.152 A 
ATOM      6  N   UNL     1       2.643   1.748  -1.575  0.00  0.00    -0.336 N 
ATOM      7  H   UNL     1       2.776   0.909  -2.275  0.00  0.00    +0.168 HD
ENDROOT
BRANCH   6   8
ATOM      8  C   UNL     1       1.404   2.299  -1.396  0.00  0.00    +0.041 A 
ATOM      9  C   UNL     1       1.024   3.426  -2.128  0.00  0.00    +0.027 A 
ATOM     10  C   UNL     1      -0.224   3.981  -1.938  0.00  0.00    +0.022 A 
ATOM     11  C   UNL     1      -1.105   3.415  -1.032  0.00  0.00    +0.041 A 
ATOM     12  C   UNL     1      -0.736   2.297  -0.302  0.00  0.00    +0.022 A 
ATOM     13  C   UNL     1       0.512   1.736  -0.479  0.00  0.00    +0.027 A 
ATOM     14 CL   UNL     1      -2.678   4.115  -0.803  0.00  0.00    -0.084 Cl
ENDBRANCH   6   8
BRANCH   2  15
ATOM     15  C   UNL     1       7.348   2.177  -0.285  0.00  0.00    -0.001 A 
ATOM     16  C   UNL     1       7.760   0.849  -0.175  0.00  0.00    +0.012 A 
ATOM     17  C   UNL     1       9.102   0.537  -0.255  0.00  0.00    +0.029 A 
ATOM     18  C   UNL     1      10.038   1.540  -0.435  0.00  0.00    +0.106 A 
ATOM     19  C   UNL     1       9.636   2.860  -0.540  0.00  0.00    +0.029 A 
ATOM     20  C   UNL     1       8.297   3.184  -0.466  0.00  0.00    +0.012 A 
BRANCH  18  21
ATOM     21  S   UNL     1      11.750   1.135  -0.531  0.00  0.00    +0.061 S 
ATOM     22  O   UNL     1      11.824  -0.221  -0.952  0.00  0.00    -0.153 OA
ATOM     23  O   UNL     1      12.378   2.189  -1.247  0.00  0.00    -0.153 OA
BRANCH  21  24
ATOM     24  N   UNL     1      12.352   1.185   1.011  0.00  0.00    -0.177 NA
ATOM     25  C   UNL     1      12.911   2.430   1.556  0.00  0.00    +0.109 C 
ATOM     26  C   UNL     1      12.208   2.740   2.885  0.00  0.00    +0.017 C 
ATOM     27  C   UNL     1      12.336   1.533   3.818  0.00  0.00    +0.003 C 
ATOM     28  C   UNL     1      11.651   0.321   3.182  0.00  0.00    +0.017 C 
ATOM     29  C   UNL     1      12.343  -0.015   1.858  0.00  0.00    +0.109 C 
ENDBRANCH  21  24
ENDBRANCH  18  21
ENDBRANCH   2  15
BRANCH   1  30
ATOM     30  C   UNL     1       5.445   0.857  -1.962  0.00  0.00    +0.124 C 
BRANCH  30  32
ATOM     31  C   UNL     1       6.375   0.461  -4.247  0.00  0.00    +0.005 C 
ATOM     32  C   UNL     1       5.917   1.530  -3.253  0.00  0.00    +0.018 C 
ENDBRANCH  30  32
ENDBRANCH   1  30
TORSDOF 6
