REMARK  Name = ZINC65011088
REMARK  8 active torsions:
REMARK  status: ('A' for Active; 'I' for Inactive)
REMARK    1  A    between atoms: C_1  and  C_2
REMARK    2  A    between atoms: C_2  and  C_3
REMARK    3  A    between atoms: C_3  and  C_4
REMARK    4  A    between atoms: C_5  and  C_16
REMARK    5  A    between atoms: C_19  and  C_31
REMARK    6  A    between atoms: C_20  and  S_22
REMARK    7  A    between atoms: S_22  and  N_25
REMARK    8  A    between atoms: N_25  and  C_26
REMARK                            x       y       z     vdW  Elec       q    Type
REMARK                         _______ _______ _______ _____ _____    ______ ____
ROOT
ATOM      1  C   UNL     1      -2.331  -2.832  -2.973  0.00  0.00    -0.011 A 
ATOM      2  C   UNL     1      -3.298  -1.947  -3.448  0.00  0.00    +0.009 A 
ATOM      3  C   UNL     1      -3.023  -1.151  -4.541  0.00  0.00    +0.006 A 
ATOM      4  C   UNL     1      -1.790  -1.230  -5.165  0.00  0.00    -0.024 A 
ATOM      5  C   UNL     1      -0.828  -2.107  -4.699  0.00  0.00    +0.109 A 
ATOM      6  C   UNL     1      -1.089  -2.903  -3.602  0.00  0.00    +0.037 A 
ATOM      7  C   UNL     1      -1.496  -0.358  -6.359  0.00  0.00    +0.046 C 
ENDROOT
BRANCH   1   9
ATOM      8  C   UNL     1      -2.864  -3.249  -0.485  0.00  0.00    +0.073 A 
ATOM      9  C   UNL     1      -2.621  -3.690  -1.799  0.00  0.00    +0.045 A 
ATOM     10  C   UNL     1      -2.701  -5.079  -1.794  0.00  0.00    +0.139 A 
ATOM     11  N   UNL     1      -3.043  -5.450  -0.534  0.00  0.00    -0.185 N 
ATOM     12  N   UNL     1      -3.086  -4.289   0.264  0.00  0.00    -0.167 NA
ATOM     13  C   UNL     1      -3.368  -6.669  -0.052  0.00  0.00    +0.250 C 
ATOM     14  O   UNL     1      -3.527  -6.795   1.139  0.00  0.00    -0.271 OA
ATOM     15  C   UNL     1      -3.537  -7.853  -0.914  0.00  0.00    +0.110 C 
ATOM     16  C   UNL     1      -4.092  -7.560  -2.283  0.00  0.00    +0.105 C 
ATOM     17  C   UNL     1      -3.045  -7.020  -3.199  0.00  0.00    +0.219 C 
ATOM     18  O   UNL     1      -2.739  -7.631  -4.201  0.00  0.00    -0.275 OA
ATOM     19  N   UNL     1      -2.438  -5.849  -2.909  0.00  0.00    -0.270 N 
ATOM     20  H   UNL     1      -1.768  -5.525  -3.530  0.00  0.00    +0.156 HD
BRANCH   8  21
ATOM     21  C   UNL     1      -2.861  -1.814  -0.022  0.00  0.00    +0.058 C 
BRANCH  21  23
ATOM     22  C   UNL     1      -1.448   0.032   0.890  0.00  0.00    +0.004 C 
ATOM     23  C   UNL     1      -1.450  -1.424   0.421  0.00  0.00    +0.003 C 
ENDBRANCH  21  23
ENDBRANCH   8  21
ENDBRANCH   1   9
BRANCH   5  24
ATOM     24  S   UNL     1       0.738  -2.201  -5.500  0.00  0.00    +0.059 S 
ATOM     25  O   UNL     1       1.524  -3.116  -4.750  0.00  0.00    -0.153 OA
ATOM     26  O   UNL     1       0.476  -2.380  -6.885  0.00  0.00    -0.153 OA
BRANCH  24  27
ATOM     27  N   UNL     1       1.459  -0.718  -5.343  0.00  0.00    -0.187 NA
ATOM     28  H   UNL     1       1.614  -0.169  -6.127  0.00  0.00    +0.148 HD
BRANCH  27  29
ATOM     29  C   UNL     1       1.863  -0.237  -4.019  0.00  0.00    +0.077 C 
ATOM     30  C   UNL     1       0.778   0.695  -3.442  0.00  0.00    +0.020 C 
ATOM     31  C   UNL     1       1.578   1.792  -2.695  0.00  0.00    +0.002 C 
ATOM     32  C   UNL     1       2.800   2.014  -3.621  0.00  0.00    +0.002 C 
ATOM     33  C   UNL     1       3.148   0.601  -4.133  0.00  0.00    +0.020 C 
ENDBRANCH  27  29
ENDBRANCH  24  27
ENDBRANCH   5  24
TORSDOF 6
