REMARK  Name = ZINC12498799
REMARK  7 active torsions:
REMARK  status: ('A' for Active; 'I' for Inactive)
REMARK    1  A    between atoms: C_1  and  C_2
REMARK    2  A    between atoms: C_2  and  N_3
REMARK    3  A    between atoms: C_4  and  C_32
REMARK    4  A    between atoms: C_10  and  C_12
REMARK    5  A    between atoms: N_14  and  N_15
REMARK    6  A    between atoms: C_16  and  C_17
REMARK    7  A    between atoms: C_16  and  C_18
REMARK                            x       y       z     vdW  Elec       q    Type
REMARK                         _______ _______ _______ _____ _____    ______ ____
ROOT
ATOM      1  N   UNL     1      -3.675  -2.055   0.018  0.00  0.00    -0.184 NA
ATOM      2  C   UNL     1      -3.683  -0.757   0.028  0.00  0.00    +0.063 C 
ATOM      3  C   UNL     1      -4.993  -0.012   0.044  0.00  0.00    +0.068 C 
ENDROOT
BRANCH   2   4
ATOM      4  C   UNL     1      -2.412  -0.012   0.022  0.00  0.00    -0.001 A 
ATOM      5  C   UNL     1      -2.419   1.385   0.031  0.00  0.00    +0.011 A 
ATOM      6  C   UNL     1      -1.226   2.075   0.031  0.00  0.00    +0.017 A 
ATOM      7  C   UNL     1      -0.017   1.390   0.010  0.00  0.00    +0.034 A 
ATOM      8  C   UNL     1       0.002  -0.004   0.002  0.00  0.00    +0.046 A 
ATOM      9  C   UNL     1      -1.197  -0.702   0.007  0.00  0.00    +0.034 A 
ATOM     10  N   UNL     1       1.194  -0.724  -0.007  0.00  0.00    -0.313 N 
ATOM     11  C   UNL     1       2.417  -0.239  -0.463  0.00  0.00    +0.045 A 
ATOM     12  C   UNL     1       3.384  -1.148  -0.881  0.00  0.00    +0.024 A 
ATOM     13  C   UNL     1       4.611  -0.702  -1.333  0.00  0.00    +0.002 A 
ATOM     14  C   UNL     1       4.888   0.651  -1.375  0.00  0.00    +0.001 A 
ATOM     15  C   UNL     1       3.933   1.563  -0.965  0.00  0.00    +0.017 A 
ATOM     16  C   UNL     1       2.698   1.123  -0.510  0.00  0.00    +0.034 A 
ATOM     17  S   UNL     1       1.492   2.301   0.000  0.00  0.00    -0.086 S 
ATOM     18  H   UNL     1       1.171  -1.633   0.331  0.00  0.00    +0.152 HD
ENDBRANCH   2   4
BRANCH   1  21
ATOM     19  C   UNL     1      -4.876  -4.111   0.014  0.00  0.00    +0.263 C 
ATOM     20  O   UNL     1      -3.819  -4.713   0.001  0.00  0.00    -0.268 OA
ATOM     21  N   UNL     1      -4.884  -2.764   0.024  0.00  0.00    -0.203 N 
ATOM     22  H   UNL     1      -5.727  -2.284   0.034  0.00  0.00    +0.178 HD
BRANCH  19  30
ATOM     23  N   UNL     1      -9.558  -7.180   0.034  0.00  0.00    -0.328 N 
ATOM     24  C   UNL     1      -8.958  -8.402   0.020  0.00  0.00    +0.108 A 
ATOM     25  N   UNL     1      -7.665  -8.266   0.009  0.00  0.00    -0.233 NA
ATOM     26  C   UNL     1      -7.346  -6.945   0.015  0.00  0.00    +0.090 A 
ATOM     27  C   UNL     1      -8.559  -6.231   0.031  0.00  0.00    +0.069 A 
ATOM     28  C   UNL     1      -8.550  -4.841   0.041  0.00  0.00    +0.029 A 
ATOM     29  C   UNL     1      -7.366  -4.163   0.035  0.00  0.00    +0.015 A 
ATOM     30  C   UNL     1      -6.150  -4.857   0.020  0.00  0.00    +0.040 A 
ATOM     31  C   UNL     1      -6.139  -6.249   0.004  0.00  0.00    +0.043 A 
ATOM     32  C   UNL     1      -9.687  -9.721   0.017  0.00  0.00    +0.086 C 
BRANCH  23  34
ATOM     33  C   UNL     1     -11.515  -6.822  -1.388  0.00  0.00    +0.027 C 
ATOM     34  C   UNL     1     -11.000  -6.922   0.049  0.00  0.00    +0.120 C 
ENDBRANCH  23  34
ENDBRANCH  19  30
ENDBRANCH   1  21
TORSDOF 4
