REMARK  Name = ZINC38585260
REMARK  5 active torsions:
REMARK  status: ('A' for Active; 'I' for Inactive)
REMARK    1  A    between atoms: C_1  and  C_2
REMARK    2  A    between atoms: C_4  and  C_9
REMARK    3  A    between atoms: C_9  and  N_11
REMARK    4  A    between atoms: C_18  and  O_22
REMARK    5  A    between atoms: O_22  and  C_23
REMARK                            x       y       z     vdW  Elec       q    Type
REMARK                         _______ _______ _______ _____ _____    ______ ____
ROOT
ATOM      1  N   UNL     1      -3.079  -0.760  -1.880  0.00  0.00    -0.156 NA
ATOM      2  C   UNL     1      -3.416  -1.138  -3.111  0.00  0.00    +0.164 A 
ATOM      3  N   UNL     1      -4.624  -1.018  -3.717  0.00  0.00    -0.335 N 
ATOM      4  H   UNL     1      -5.368  -0.615  -3.242  0.00  0.00    +0.168 HD
ATOM      5  C   UNL     1      -4.792  -1.470  -5.014  0.00  0.00    +0.055 A 
ATOM      6  C   UNL     1      -5.939  -1.445  -5.818  0.00  0.00    +0.030 A 
ATOM      7  C   UNL     1      -5.911  -1.949  -7.097  0.00  0.00    +0.048 A 
ATOM      8  C   UNL     1      -4.750  -2.496  -7.628  0.00  0.00    +0.131 A 
ATOM      9  C   UNL     1      -3.600  -2.532  -6.851  0.00  0.00    +0.063 A 
ATOM     10  C   UNL     1      -3.632  -2.027  -5.572  0.00  0.00    +0.042 A 
ATOM     11  S   UNL     1      -2.440  -1.866  -4.269  0.00  0.00    -0.052 S 
ENDROOT
BRANCH   1  12
ATOM     12  C   UNL     1      -1.839  -0.950  -1.443  0.00  0.00    +0.254 C 
ATOM     13  O   UNL     1      -1.011  -1.468  -2.168  0.00  0.00    -0.272 OA
BRANCH  12  16
ATOM     14  C   UNL     1      -0.019   1.526   0.010  0.00  0.00    +0.027 C 
ATOM     15  C   UNL     1       0.002  -0.004   0.002  0.00  0.00    +0.090 C 
ATOM     16  C   UNL     1      -1.457  -0.522  -0.049  0.00  0.00    +0.169 C 
ATOM     17  S   UNL     1      -1.316  -1.972   1.085  0.00  0.00    -0.051 S 
ATOM     18  N   UNL     1      -0.007  -1.306   2.121  0.00  0.00    -0.199 NA
ATOM     19  N   UNL     1       0.732  -0.470   1.176  0.00  0.00    -0.243 NA
ATOM     20  H   UNL     1      -0.388  -0.751   2.873  0.00  0.00    +0.154 HD
ATOM     21  H   UNL     1       1.182   0.299   1.650  0.00  0.00    +0.142 HD
ENDBRANCH  12  16
ENDBRANCH   1  12
BRANCH   8  22
ATOM     22  O   UNL     1      -4.739  -2.991  -8.895  0.00  0.00    -0.406 OA
BRANCH  22  23
ATOM     23  C   UNL     1      -5.962  -2.918  -9.630  0.00  0.00    +0.575 C 
ATOM     24  F   UNL     1      -6.353  -1.580  -9.753  0.00  0.00    -0.133 F 
ATOM     25  F   UNL     1      -5.774  -3.467 -10.903  0.00  0.00    -0.133 F 
ATOM     26  F   UNL     1      -6.956  -3.634  -8.955  0.00  0.00    -0.133 F 
ENDBRANCH  22  23
ENDBRANCH   8  22
TORSDOF 4
