REMARK  Name = ZINC41251207
REMARK  9 active torsions:
REMARK  status: ('A' for Active; 'I' for Inactive)
REMARK    1  A    between atoms: C_1  and  C_2
REMARK    2  A    between atoms: C_2  and  C_4
REMARK    3  A    between atoms: C_2  and  C_30
REMARK    4  A    between atoms: C_4  and  N_5
REMARK    5  A    between atoms: C_6  and  C_8
REMARK    6  A    between atoms: N_11  and  C_14
REMARK    7  A    between atoms: C_14  and  C_15
REMARK    8  A    between atoms: C_17  and  C_20
REMARK    9  A    between atoms: C_23  and  C_26
REMARK                            x       y       z     vdW  Elec       q    Type
REMARK                         _______ _______ _______ _____ _____    ______ ____
ROOT
ATOM      1  C   UNL     1      -4.078  -0.112  -2.723  0.00  0.00    +0.071 C 
ATOM      2  C   UNL     1      -3.331  -0.713  -3.916  0.00  0.00    -0.006 C 
ATOM      3  C   UNL     1      -4.082  -0.373  -5.205  0.00  0.00    -0.077 C 
ATOM      4  N   UNL     1      -5.439  -0.929  -5.145  0.00  0.00    +0.386 N 
ATOM      5  C   UNL     1      -6.186  -0.304  -4.047  0.00  0.00    -0.077 C 
ATOM      6  C   UNL     1      -5.515  -0.641  -2.713  0.00  0.00    -0.006 C 
ATOM      7  H   UNL     1      -5.388  -1.925  -4.992  0.00  0.00    -0.081 HD
ENDROOT
BRANCH   1   9
ATOM      8  N   UNL     1      -2.105  -0.148  -1.230  0.00  0.00    -0.315 N 
ATOM      9  C   UNL     1      -3.387  -0.508  -1.443  0.00  0.00    +0.216 C 
ATOM     10  O   UNL     1      -3.983  -1.151  -0.606  0.00  0.00    -0.276 OA
ATOM     11  H   UNL     1      -1.628   0.366  -1.901  0.00  0.00    +0.149 HD
BRANCH   8  12
ATOM     12  C   UNL     1      -1.433  -0.534   0.013  0.00  0.00    +0.112 C 
BRANCH  12  14
ATOM     13  C   UNL     1      -0.019   1.526   0.010  0.00  0.00    +0.014 C 
ATOM     14  C   UNL     1       0.002  -0.004   0.002  0.00  0.00    +0.033 C 
BRANCH  14  15
ATOM     15  C   UNL     1       0.731  -0.503   1.223  0.00  0.00    -0.043 A 
ATOM     16  C   UNL     1       0.263  -0.187   2.485  0.00  0.00    +0.004 A 
ATOM     17  C   UNL     1       0.931  -0.645   3.605  0.00  0.00    +0.000 A 
ATOM     18  C   UNL     1       2.068  -1.419   3.463  0.00  0.00    +0.000 A 
ATOM     19  C   UNL     1       2.535  -1.736   2.201  0.00  0.00    +0.000 A 
ATOM     20  C   UNL     1       1.864  -1.282   1.081  0.00  0.00    +0.004 A 
ENDBRANCH  14  15
ENDBRANCH  12  14
ENDBRANCH   8  12
ENDBRANCH   1   9
BRANCH   4  21
ATOM     21  C   UNL     1      -6.130  -0.668  -6.415  0.00  0.00    +0.022 C 
BRANCH  21  22
ATOM     22  C   UNL     1      -7.478  -1.343  -6.402  0.00  0.00    +0.211 A 
ATOM     23  N   UNL     1      -8.591  -0.811  -5.986  0.00  0.00    -0.193 NA
ATOM     24  C   UNL     1      -9.599  -1.692  -6.117  0.00  0.00    +0.202 A 
ATOM     25  N   UNL     1      -9.122  -2.802  -6.623  0.00  0.00    -0.056 NA
ATOM     26  O   UNL     1      -7.733  -2.589  -6.822  0.00  0.00    -0.340 OA
BRANCH  24  27
ATOM     27  C   UNL     1     -11.016  -1.447  -5.748  0.00  0.00    +0.022 A 
ATOM     28  C   UNL     1     -11.398  -0.216  -5.220  0.00  0.00    +0.012 A 
ATOM     29  C   UNL     1     -12.717   0.006  -4.878  0.00  0.00    +0.013 A 
ATOM     30  C   UNL     1     -13.658  -0.991  -5.059  0.00  0.00    +0.055 A 
ATOM     31  C   UNL     1     -13.284  -2.216  -5.582  0.00  0.00    +0.013 A 
ATOM     32  C   UNL     1     -11.969  -2.446  -5.933  0.00  0.00    +0.012 A 
BRANCH  30  33
ATOM     33  C   UNL     1     -15.096  -0.743  -4.683  0.00  0.00    +0.417 C 
ATOM     34  F   UNL     1     -15.782  -0.219  -5.784  0.00  0.00    -0.166 F 
ATOM     35  F   UNL     1     -15.691  -1.948  -4.293  0.00  0.00    -0.166 F 
ATOM     36  F   UNL     1     -15.151   0.168  -3.622  0.00  0.00    -0.166 F 
ENDBRANCH  30  33
ENDBRANCH  24  27
ENDBRANCH  21  22
ENDBRANCH   4  21
TORSDOF 8
