REMARK  Name = ZINC06408587
REMARK  9 active torsions:
REMARK  status: ('A' for Active; 'I' for Inactive)
REMARK    1  A    between atoms: C_1  and  C_2
REMARK    2  A    between atoms: C_9  and  C_14
REMARK    3  A    between atoms: C_14  and  C_16
REMARK    4  A    between atoms: C_14  and  N_67
REMARK    5  A    between atoms: N_20  and  C_21
REMARK    6  A    between atoms: C_26  and  C_27
REMARK    7  A    between atoms: C_26  and  N_67
REMARK    8  A    between atoms: C_33  and  C_34
REMARK    9  A    between atoms: C_33  and  N_67
REMARK                            x       y       z     vdW  Elec       q    Type
REMARK                         _______ _______ _______ _____ _____    ______ ____
ROOT
ATOM      1  C   UNL     1       6.306  -1.151  -1.702  0.00  0.00    +0.040 C 
ENDROOT
BRANCH   1  10
ATOM      2  C   UNL     1      10.085  -4.980  -6.866  0.00  0.00    +0.044 C 
ATOM      3  C   UNL     1       9.533  -3.683  -6.335  0.00  0.00    -0.050 A 
ATOM      4  C   UNL     1       9.744  -2.505  -7.039  0.00  0.00    +0.005 A 
ATOM      5  C   UNL     1       9.247  -1.308  -6.572  0.00  0.00    +0.026 A 
ATOM      6  C   UNL     1       8.529  -1.276  -5.381  0.00  0.00    +0.049 A 
ATOM      7  C   UNL     1       8.317  -2.472  -4.669  0.00  0.00    -0.001 A 
ATOM      8  C   UNL     1       8.830  -3.676  -5.163  0.00  0.00    +0.013 A 
ATOM      9  C   UNL     1       7.565  -2.427  -3.414  0.00  0.00    +0.017 A 
ATOM     10  C   UNL     1       7.088  -1.232  -2.987  0.00  0.00    +0.011 A 
ATOM     11  C   UNL     1       7.328  -0.061  -3.739  0.00  0.00    +0.251 A 
ATOM     12  O   UNL     1       6.894   1.004  -3.334  0.00  0.00    -0.268 OA
ATOM     13  N   UNL     1       8.022  -0.092  -4.890  0.00  0.00    -0.322 N 
ATOM     14  H   UNL     1       8.169   0.732  -5.381  0.00  0.00    +0.169 HD
ENDBRANCH   1  10
BRANCH   1  15
ATOM     15  C   UNL     1       7.076  -0.336  -0.695  0.00  0.00    +0.143 A 
ATOM     16  N   UNL     1       6.976   0.955  -0.492  0.00  0.00    -0.115 NA
ATOM     17  N   UNL     1       7.795   1.274   0.449  0.00  0.00    -0.023 NA
ATOM     18  N   UNL     1       8.415   0.221   0.853  0.00  0.00    -0.044 NA
ATOM     19  N   UNL     1       7.995  -0.794   0.175  0.00  0.00    -0.227 N 
BRANCH  19  20
ATOM     20  C   UNL     1       8.439  -2.182   0.322  0.00  0.00    +0.111 C 
ATOM     21  C   UNL     1       8.333  -2.617   1.799  0.00  0.00    +0.027 C 
ATOM     22  C   UNL     1       9.572  -3.523   2.017  0.00  0.00    +0.002 C 
ATOM     23  C   UNL     1      10.667  -2.811   1.185  0.00  0.00    +0.002 C 
ATOM     24  C   UNL     1       9.922  -2.306  -0.068  0.00  0.00    +0.027 C 
ENDBRANCH  19  20
ENDBRANCH   1  15
BRANCH   1  25
ATOM     25  N   UNL     1       5.013  -0.487  -1.968  0.00  0.00    +0.395 N 
ATOM     26  H   UNL     1       5.190   0.465  -2.309  0.00  0.00    -0.079 HD
BRANCH  25  27
ATOM     27  C   UNL     1       4.219  -0.410  -0.723  0.00  0.00    -0.041 C 
BRANCH  27  28
ATOM     28  C   UNL     1       3.996  -1.787  -0.152  0.00  0.00    -0.064 A 
ATOM     29  C   UNL     1       4.902  -2.318   0.746  0.00  0.00    +0.002 A 
ATOM     30  C   UNL     1       4.698  -3.581   1.269  0.00  0.00    +0.000 A 
ATOM     31  C   UNL     1       3.587  -4.313   0.894  0.00  0.00    +0.000 A 
ATOM     32  C   UNL     1       2.680  -3.782  -0.004  0.00  0.00    +0.000 A 
ATOM     33  C   UNL     1       2.885  -2.519  -0.528  0.00  0.00    +0.002 A 
ENDBRANCH  27  28
ENDBRANCH  25  27
BRANCH  25  34
ATOM     34  C   UNL     1       4.263  -1.235  -2.999  0.00  0.00    -0.034 C 
BRANCH  34  35
ATOM     35  C   UNL     1       3.188  -0.340  -3.559  0.00  0.00    -0.027 A 
ATOM     36  C   UNL     1       3.238   0.486  -4.632  0.00  0.00    +0.009 A 
ATOM     37  C   UNL     1       2.116   1.221  -4.965  0.00  0.00    +0.008 A 
ATOM     38  C   UNL     1       0.998   1.093  -4.209  0.00  0.00    +0.045 A 
ATOM     39  S   UNL     1       1.514  -0.099  -2.986  0.00  0.00    -0.103 S 
ENDBRANCH  34  35
ENDBRANCH  25  34
ENDBRANCH   1  25
TORSDOF 8
