REMARK  Name = ZINC65301173
REMARK  9 active torsions:
REMARK  status: ('A' for Active; 'I' for Inactive)
REMARK    1  A    between atoms: C_1  and  C_2
REMARK    2  A    between atoms: C_4  and  N_20
REMARK    3  A    between atoms: C_5  and  C_11
REMARK    4  A    between atoms: C_16  and  C_19
REMARK    5  A    between atoms: C_23  and  C_26
REMARK    6  A    between atoms: N_28  and  C_29
REMARK    7  A    between atoms: C_29  and  C_30
REMARK    8  A    between atoms: C_33  and  O_36
REMARK    9  A    between atoms: O_36  and  C_37
REMARK                            x       y       z     vdW  Elec       q    Type
REMARK                         _______ _______ _______ _____ _____    ______ ____
ROOT
ATOM      1  C   UNL     1      -0.625   0.939  -5.184  0.00  0.00    +0.067 C 
ATOM      2  C   UNL     1      -0.612  -0.528  -4.838  0.00  0.00    +0.058 A 
ATOM      3  C   UNL     1      -0.220  -0.935  -3.552  0.00  0.00    +0.050 A 
ATOM      4  C   UNL     1       0.197  -0.172  -2.429  0.00  0.00    +0.055 A 
ATOM      5  C   UNL     1       0.535  -0.850  -1.250  0.00  0.00    +0.074 A 
ATOM      6  C   UNL     1       0.457  -2.248  -1.200  0.00  0.00    +0.098 A 
ATOM      7  N   UNL     1       0.068  -2.933  -2.255  0.00  0.00    -0.353 N 
ATOM      8  C   UNL     1      -0.260  -2.339  -3.383  0.00  0.00    +0.107 A 
ATOM      9  S   UNL     1      -0.816  -2.889  -4.976  0.00  0.00    +0.030 S 
ATOM     10  N   UNL     1      -0.967  -1.400  -5.731  0.00  0.00    -0.213 NA
ATOM     11  H   UNL     1       0.021  -3.900  -2.199  0.00  0.00    +0.166 HD
ENDROOT
BRANCH   5  12
ATOM     12  C   UNL     1       0.972  -0.095  -0.065  0.00  0.00    +0.250 C 
ATOM     13  O   UNL     1       0.216   0.699   0.463  0.00  0.00    -0.270 OA
ATOM     14  N   UNL     1       2.209  -0.282   0.435  0.00  0.00    -0.297 N 
ATOM     15  C   UNL     1       2.698   0.540   1.550  0.00  0.00    +0.108 C 
ATOM     16  C   UNL     1       4.036   1.170   1.149  0.00  0.00    +0.022 C 
ATOM     17  C   UNL     1       5.003   0.068   0.710  0.00  0.00    -0.011 C 
ATOM     18  C   UNL     1       4.428  -0.662  -0.506  0.00  0.00    +0.022 C 
ATOM     19  C   UNL     1       3.093  -1.316  -0.120  0.00  0.00    +0.108 C 
ATOM     20  C   UNL     1       6.351   0.689   0.341  0.00  0.00    +0.007 C 
ENDBRANCH   5  12
BRANCH   4  21
ATOM     21  N   UNL     1       0.267   1.204  -2.498  0.00  0.00    -0.329 N 
ATOM     22  C   UNL     1      -0.934   2.026  -2.297  0.00  0.00    +0.106 C 
ATOM     23  C   UNL     1      -0.646   3.060  -1.203  0.00  0.00    +0.031 C 
ATOM     24  C   UNL     1       0.606   3.857  -1.577  0.00  0.00    +0.078 C 
ATOM     25  C   UNL     1       1.805   2.911  -1.674  0.00  0.00    +0.031 C 
ATOM     26  C   UNL     1       1.546   1.875  -2.767  0.00  0.00    +0.106 C 
BRANCH  24  27
ATOM     27  C   UNL     1       0.872   4.898  -0.520  0.00  0.00    +0.216 C 
ATOM     28  O   UNL     1       0.134   4.993   0.437  0.00  0.00    -0.276 OA
ATOM     29  N   UNL     1       1.931   5.723  -0.639  0.00  0.00    -0.311 N 
ATOM     30  H   UNL     1       2.522   5.647  -1.404  0.00  0.00    +0.149 HD
BRANCH  29  31
ATOM     31  C   UNL     1       2.190   6.735   0.389  0.00  0.00    +0.139 C 
BRANCH  31  32
ATOM     32  C   UNL     1       3.423   7.520   0.021  0.00  0.00    -0.030 A 
ATOM     33  C   UNL     1       4.666   7.092   0.449  0.00  0.00    +0.009 A 
ATOM     34  C   UNL     1       5.798   7.810   0.114  0.00  0.00    +0.046 A 
ATOM     35  C   UNL     1       5.686   8.961  -0.653  0.00  0.00    +0.120 A 
ATOM     36  C   UNL     1       4.438   9.387  -1.082  0.00  0.00    +0.046 A 
ATOM     37  C   UNL     1       3.310   8.663  -0.748  0.00  0.00    +0.009 A 
BRANCH  35  38
ATOM     38  O   UNL     1       6.798   9.669  -0.984  0.00  0.00    -0.495 OA
ATOM     39  C   UNL     1       6.608  10.843  -1.776  0.00  0.00    +0.277 C 
ENDBRANCH  35  38
ENDBRANCH  31  32
ENDBRANCH  29  31
ENDBRANCH  24  27
ENDBRANCH   4  21
TORSDOF 6
