REMARK  Name = ZINC19809741
REMARK  2 active torsions:
REMARK  status: ('A' for Active; 'I' for Inactive)
REMARK    1  A    between atoms: C_9  and  C_12
REMARK    2  A    between atoms: N_14  and  C_15
REMARK                            x       y       z     vdW  Elec       q    Type
REMARK                         _______ _______ _______ _____ _____    ______ ____
ROOT
ATOM      1  C   UNL     1      -1.410  -0.528  -0.037  0.00  0.00    +0.256 C 
ATOM      2  O   UNL     1      -1.800  -1.150  -1.003  0.00  0.00    -0.272 OA
ATOM      3  N   UNL     1      -2.241  -0.306   1.001  0.00  0.00    -0.309 N 
ATOM      4  H   UNL     1      -1.887   0.258   1.877  0.00  0.00    +0.149 HD
ENDROOT
BRANCH   1  13
ATOM      5  C   UNL     1       4.410   1.222  -1.940  0.00  0.00    +0.002 A 
ATOM      6  C   UNL     1       4.060   0.006  -2.498  0.00  0.00    +0.004 A 
ATOM      7  C   UNL     1       2.824  -0.552  -2.235  0.00  0.00    +0.047 A 
ATOM      8  C   UNL     1       1.926   0.106  -1.408  0.00  0.00    +0.142 A 
ATOM      9  C   UNL     1       2.281   1.329  -0.845  0.00  0.00    +0.070 A 
ATOM     10  C   UNL     1       3.522   1.885  -1.113  0.00  0.00    +0.026 A 
ATOM     11  N   UNL     1       1.379   1.995  -0.000  0.00  0.00    -0.337 N 
ATOM     12  C   UNL     1      -0.019   1.531   0.011  0.00  0.00    +0.155 C 
ATOM     13  C   UNL     1       0.002  -0.004   0.002  0.00  0.00    +0.275 C 
ATOM     14  O   UNL     1       0.711  -0.449  -1.157  0.00  0.00    -0.476 OA
ATOM     15  H   UNL     1       1.684   2.837   0.639  0.00  0.00    +0.146 HD
ENDBRANCH   1  13
BRANCH   3  16
ATOM     16  C   UNL     1      -3.614  -0.816   0.962  0.00  0.00    +0.073 C 
ATOM     17  C   UNL     1      -4.508   0.182   0.223  0.00  0.00    +0.022 C 
ATOM     18  C   UNL     1      -5.820  -0.500  -0.167  0.00  0.00    +0.002 C 
ATOM     19  C   UNL     1      -5.524  -1.891  -0.732  0.00  0.00    +0.000 C 
ATOM     20  C   UNL     1      -6.070  -2.955   0.222  0.00  0.00    +0.000 C 
ATOM     21  C   UNL     1      -5.146  -3.075   1.435  0.00  0.00    +0.000 C 
ATOM     22  C   UNL     1      -5.377  -1.887   2.372  0.00  0.00    +0.002 C 
ATOM     23  C   UNL     1      -4.129  -1.002   2.391  0.00  0.00    +0.022 C 
ENDBRANCH   3  16
TORSDOF 2
