REMARK  Name = ZINC15826257
REMARK  5 active torsions:
REMARK  status: ('A' for Active; 'I' for Inactive)
REMARK    1  A    between atoms: C_1  and  C_2
REMARK    2  A    between atoms: C_2  and  C_33
REMARK    3  A    between atoms: C_6  and  C_25
REMARK    4  A    between atoms: N_18  and  C_19
REMARK    5  A    between atoms: C_19  and  C_20
REMARK                            x       y       z     vdW  Elec       q    Type
REMARK                         _______ _______ _______ _____ _____    ______ ____
ROOT
ATOM      1  C   UNL     1      -3.746   0.324  -0.786  0.00  0.00    +0.011 C 
ATOM      2  C   UNL     1      -3.625   1.126   0.511  0.00  0.00    -0.023 C 
ATOM      3  C   UNL     1      -2.198   1.032   1.047  0.00  0.00    +0.058 C 
ATOM      4  C   UNL     1      -1.222   1.580   0.017  0.00  0.00    +0.017 C 
ATOM      5  C   UNL     1      -1.585   2.598  -0.774  0.00  0.00    +0.038 C 
ATOM      6  C   UNL     1      -0.712   3.271  -1.808  0.00  0.00    +0.155 C 
ATOM      7  N   UNL     1       0.522   2.567  -2.091  0.00  0.00    -0.242 N 
ATOM      8  C   UNL     1       1.500   2.407  -1.111  0.00  0.00    +0.060 A 
ATOM      9  C   UNL     1       2.731   3.037  -1.212  0.00  0.00    +0.025 A 
ATOM     10  C   UNL     1       3.646   2.914  -0.181  0.00  0.00    +0.002 A 
ATOM     11  C   UNL     1       3.339   2.168   0.943  0.00  0.00    +0.002 A 
ATOM     12  C   UNL     1       2.120   1.520   1.038  0.00  0.00    +0.025 A 
ATOM     13  C   UNL     1       1.212   1.628  -0.001  0.00  0.00    +0.053 A 
ATOM     14  N   UNL     1      -0.011   0.966   0.007  0.00  0.00    -0.316 N 
ATOM     15  C   UNL     1       0.728   2.060  -3.323  0.00  0.00    +0.308 C 
ATOM     16  O   UNL     1      -0.119   2.195  -4.185  0.00  0.00    -0.252 OA
ATOM     17  N   UNL     1       1.872   1.404  -3.599  0.00  0.00    -0.292 N 
ATOM     18  C   UNL     1      -2.891   3.137  -0.695  0.00  0.00    +0.163 C 
ATOM     19  O   UNL     1      -3.186   4.066  -1.421  0.00  0.00    -0.292 OA
ATOM     20  C   UNL     1      -3.925   2.605   0.237  0.00  0.00    +0.086 C 
ATOM     21  C   UNL     1      -4.606   0.583   1.552  0.00  0.00    +0.011 C 
ATOM     22  H   UNL     1       0.002  -0.004   0.002  0.00  0.00    +0.152 HD
ATOM     23  H   UNL     1       2.548   1.297  -2.911  0.00  0.00    +0.151 HD
ENDROOT
BRANCH   6  24
ATOM     24  C   UNL     1      -0.372   4.655  -1.320  0.00  0.00    +0.015 A 
ATOM     25  C   UNL     1      -0.978   5.833  -1.605  0.00  0.00    +0.013 A 
ATOM     26  C   UNL     1      -0.492   6.994  -1.033  0.00  0.00    +0.008 A 
ATOM     27  C   UNL     1       0.584   6.921  -0.212  0.00  0.00    +0.045 A 
ATOM     28  S   UNL     1       0.938   5.171  -0.222  0.00  0.00    -0.099 S 
ENDBRANCH   6  24
BRANCH  17  29
ATOM     29  C   UNL     1       2.096   0.853  -4.938  0.00  0.00    +0.180 C 
BRANCH  29  30
ATOM     30  C   UNL     1       3.441   0.174  -4.983  0.00  0.00    +0.122 A 
ATOM     31  C   UNL     1       3.680  -1.117  -4.692  0.00  0.00    +0.046 A 
ATOM     32  C   UNL     1       5.067  -1.326  -4.867  0.00  0.00    +0.041 A 
ATOM     33  C   UNL     1       5.594  -0.148  -5.246  0.00  0.00    +0.195 A 
ATOM     34  O   UNL     1       4.604   0.757  -5.314  0.00  0.00    -0.466 OA
ENDBRANCH  29  30
ENDBRANCH  17  29
TORSDOF 3
