REMARK  Name = ZINC01381833
REMARK  12 active torsions:
REMARK  status: ('A' for Active; 'I' for Inactive)
REMARK    1  A    between atoms: C_1  and  C_2
REMARK    2  A    between atoms: C_5  and  C_43
REMARK    3  A    between atoms: C_9  and  C_14
REMARK    4  A    between atoms: C_14  and  C_16
REMARK    5  A    between atoms: C_14  and  N_29
REMARK    6  A    between atoms: N_20  and  C_21
REMARK    7  A    between atoms: C_21  and  C_22
REMARK    8  A    between atoms: C_22  and  C_23
REMARK    9  A    between atoms: N_29  and  C_30
REMARK   10  A    between atoms: N_29  and  C_37
REMARK   11  A    between atoms: C_30  and  C_31
REMARK   12  A    between atoms: C_37  and  C_38
REMARK                            x       y       z     vdW  Elec       q    Type
REMARK                         _______ _______ _______ _____ _____    ______ ____
ROOT
ATOM      1  C   UNL     1       0.469  -0.557   5.216  0.00  0.00    +0.163 C 
ENDROOT
BRANCH   1  10
ATOM      2  C   UNL     1       0.315   1.141   0.295  0.00  0.00    +0.044 C 
ATOM      3  C   UNL     1       0.351  -0.365   0.249  0.00  0.00    -0.041 A 
ATOM      4  C   UNL     1       0.346  -1.014  -0.954  0.00  0.00    +0.004 A 
ATOM      5  C   UNL     1       0.380  -2.401  -1.008  0.00  0.00    +0.005 A 
ATOM      6  C   UNL     1       0.420  -3.149   0.149  0.00  0.00    -0.026 A 
ATOM      7  C   UNL     1       0.427  -2.510   1.385  0.00  0.00    +0.052 A 
ATOM      8  C   UNL     1       0.398  -1.103   1.435  0.00  0.00    +0.002 A 
ATOM      9  C   UNL     1       0.410  -0.440   2.740  0.00  0.00    +0.021 A 
ATOM     10  C   UNL     1       0.455  -1.208   3.857  0.00  0.00    +0.042 A 
ATOM     11  C   UNL     1       0.489  -2.615   3.751  0.00  0.00    +0.254 A 
ATOM     12  O   UNL     1       0.529  -3.286   4.768  0.00  0.00    -0.268 OA
ATOM     13  N   UNL     1       0.467  -3.233   2.557  0.00  0.00    -0.322 N 
ATOM     14  H   UNL     1       0.491  -4.202   2.521  0.00  0.00    +0.169 HD
ATOM     15  C   UNL     1       0.457  -4.654   0.076  0.00  0.00    +0.046 C 
ENDBRANCH   1  10
BRANCH   1  16
ATOM     16  C   UNL     1      -0.666  -1.100   6.045  0.00  0.00    +0.173 A 
ATOM     17  N   UNL     1      -0.748  -2.297   6.572  0.00  0.00    -0.111 NA
ATOM     18  N   UNL     1      -1.867  -2.377   7.206  0.00  0.00    -0.023 NA
ATOM     19  N   UNL     1      -2.501  -1.263   7.097  0.00  0.00    -0.044 NA
ATOM     20  N   UNL     1      -1.792  -0.447   6.392  0.00  0.00    -0.227 N 
BRANCH  20  21
ATOM     21  C   UNL     1      -2.145   0.928   6.035  0.00  0.00    +0.152 C 
BRANCH  21  22
ATOM     22  C   UNL     1      -3.021   0.920   4.780  0.00  0.00    +0.058 C 
BRANCH  22  23
ATOM     23  C   UNL     1      -3.385   2.336   4.413  0.00  0.00    -0.046 A 
ATOM     24  C   UNL     1      -4.528   2.913   4.933  0.00  0.00    +0.004 A 
ATOM     25  C   UNL     1      -4.862   4.211   4.596  0.00  0.00    +0.000 A 
ATOM     26  C   UNL     1      -4.053   4.933   3.739  0.00  0.00    +0.000 A 
ATOM     27  C   UNL     1      -2.909   4.356   3.219  0.00  0.00    +0.000 A 
ATOM     28  C   UNL     1      -2.573   3.059   3.560  0.00  0.00    +0.004 A 
ENDBRANCH  22  23
ENDBRANCH  21  22
ENDBRANCH  20  21
ENDBRANCH   1  16
BRANCH   1  29
ATOM     29  N   UNL     1       1.745  -0.846   5.884  0.00  0.00    -0.277 NA
BRANCH  29  30
ATOM     30  C   UNL     1       2.880  -0.392   5.070  0.00  0.00    +0.121 C 
BRANCH  30  31
ATOM     31  C   UNL     1       3.152  -1.399   3.982  0.00  0.00    -0.033 A 
ATOM     32  C   UNL     1       3.718  -2.620   4.296  0.00  0.00    +0.005 A 
ATOM     33  C   UNL     1       3.967  -3.544   3.298  0.00  0.00    +0.000 A 
ATOM     34  C   UNL     1       3.650  -3.246   1.986  0.00  0.00    +0.000 A 
ATOM     35  C   UNL     1       3.083  -2.025   1.672  0.00  0.00    +0.000 A 
ATOM     36  C   UNL     1       2.830  -1.103   2.670  0.00  0.00    +0.005 A 
ENDBRANCH  30  31
ENDBRANCH  29  30
BRANCH  29  37
ATOM     37  C   UNL     1       1.785  -0.245   7.224  0.00  0.00    +0.160 C 
BRANCH  37  38
ATOM     38  C   UNL     1       1.025  -1.118   8.189  0.00  0.00    +0.119 A 
ATOM     39  C   UNL     1       1.506  -2.211   8.807  0.00  0.00    +0.046 A 
ATOM     40  C   UNL     1       0.462  -2.718   9.615  0.00  0.00    +0.041 A 
ATOM     41  C   UNL     1      -0.595  -1.904   9.442  0.00  0.00    +0.195 A 
ATOM     42  O   UNL     1      -0.246  -0.933   8.582  0.00  0.00    -0.467 OA
ENDBRANCH  37  38
ENDBRANCH  29  37
ENDBRANCH   1  29
TORSDOF 10
