REMARK  Name = ZINC59248397
REMARK  9 active torsions:
REMARK  status: ('A' for Active; 'I' for Inactive)
REMARK    1  A    between atoms: C_1  and  C_2
REMARK    2  A    between atoms: C_2  and  C_4
REMARK    3  A    between atoms: C_2  and  N_11
REMARK    4  A    between atoms: C_12  and  C_14
REMARK    5  A    between atoms: C_14  and  N_15
REMARK    6  A    between atoms: C_18  and  C_22
REMARK    7  A    between atoms: C_18  and  C_23
REMARK    8  A    between atoms: C_26  and  S_29
REMARK    9  A    between atoms: S_29  and  C_32
REMARK                            x       y       z     vdW  Elec       q    Type
REMARK                         _______ _______ _______ _____ _____    ______ ____
ROOT
ATOM      1  N   UNL     1       4.223  -1.127   2.126  0.00  0.00    -0.215 N 
ATOM      2  C   UNL     1       4.875  -2.187   1.609  0.00  0.00    +0.251 C 
ATOM      3  O   UNL     1       4.400  -3.255   1.289  0.00  0.00    -0.272 OA
ATOM      4  C   UNL     1       6.328  -1.764   1.508  0.00  0.00    +0.135 C 
ATOM      5  N   UNL     1       6.324  -0.386   2.029  0.00  0.00    -0.281 N 
ATOM      6  C   UNL     1       5.051  -0.103   2.359  0.00  0.00    +0.310 C 
ATOM      7  O   UNL     1       4.694   0.963   2.821  0.00  0.00    -0.252 OA
ATOM      8  C   UNL     1       7.212  -2.664   2.373  0.00  0.00    +0.047 C 
ATOM      9  H   UNL     1       7.090   0.203   2.115  0.00  0.00    +0.152 HD
ENDROOT
BRANCH   4  10
ATOM     10  C   UNL     1       6.788  -1.786   0.073  0.00  0.00    -0.015 A 
ATOM     11  C   UNL     1       6.224  -2.678  -0.820  0.00  0.00    +0.008 A 
ATOM     12  C   UNL     1       6.646  -2.699  -2.136  0.00  0.00    +0.027 A 
ATOM     13  C   UNL     1       7.632  -1.827  -2.559  0.00  0.00    +0.088 A 
ATOM     14  C   UNL     1       8.196  -0.935  -1.667  0.00  0.00    +0.027 A 
ATOM     15  C   UNL     1       7.771  -0.911  -0.352  0.00  0.00    +0.008 A 
BRANCH  13  16
ATOM     16  S   UNL     1       8.171  -1.855  -4.237  0.00  0.00    -0.006 S 
ATOM     17  O   UNL     1       9.502  -1.358  -4.198  0.00  0.00    -0.170 OA
ATOM     18  O   UNL     1       7.904  -3.177  -4.682  0.00  0.00    -0.170 OA
ATOM     19  C   UNL     1       7.090  -0.676  -5.093  0.00  0.00    +0.200 C 
ENDBRANCH  13  16
ENDBRANCH   4  10
BRANCH   1  20
ATOM     20  C   UNL     1       2.783  -1.099   2.395  0.00  0.00    +0.213 C 
BRANCH  20  22
ATOM     21  N   UNL     1       0.711  -0.489   1.189  0.00  0.00    -0.307 N 
ATOM     22  C   UNL     1       2.054  -0.600   1.174  0.00  0.00    +0.231 C 
ATOM     23  O   UNL     1       2.676  -0.297   0.177  0.00  0.00    -0.274 OA
ATOM     24  H   UNL     1       0.213  -0.731   1.986  0.00  0.00    +0.149 HD
BRANCH  21  26
ATOM     25  C   UNL     1      -0.019   1.526   0.010  0.00  0.00    +0.033 C 
ATOM     26  C   UNL     1       0.002  -0.004   0.002  0.00  0.00    +0.102 C 
BRANCH  26  27
ATOM     27  C   UNL     1      -1.412  -0.526   0.013  0.00  0.00    -0.009 A 
ATOM     28  C   UNL     1      -2.015  -0.864   1.210  0.00  0.00    +0.007 A 
ATOM     29  C   UNL     1      -3.312  -1.342   1.220  0.00  0.00    +0.000 A 
ATOM     30  C   UNL     1      -4.006  -1.483   0.033  0.00  0.00    +0.001 A 
ATOM     31  C   UNL     1      -3.404  -1.145  -1.165  0.00  0.00    +0.020 A 
ATOM     32  C   UNL     1      -2.108  -0.661  -1.175  0.00  0.00    +0.046 A 
ATOM     33 CL   UNL     1      -1.354  -0.230  -2.678  0.00  0.00    -0.083 Cl
ENDBRANCH  26  27
ENDBRANCH  21  26
ENDBRANCH  20  22
ENDBRANCH   1  20
TORSDOF 6
