REMARK  Name = ZINC01079189
REMARK  10 active torsions:
REMARK  status: ('A' for Active; 'I' for Inactive)
REMARK    1  A    between atoms: C_1  and  C_2
REMARK    2  A    between atoms: C_5  and  N_8
REMARK    3  A    between atoms: N_8  and  C_9
REMARK    4  A    between atoms: N_8  and  S_20
REMARK    5  A    between atoms: C_9  and  C_10
REMARK    6  A    between atoms: N_12  and  C_13
REMARK    7  A    between atoms: S_20  and  C_23
REMARK    8  A    between atoms: C_25  and  C_31
REMARK    9  A    between atoms: C_28  and  O_29
REMARK   10  A    between atoms: O_29  and  C_30
REMARK                            x       y       z     vdW  Elec       q    Type
REMARK                         _______ _______ _______ _____ _____    ______ ____
ROOT
ATOM      1  N   UNL     1      -2.907   1.014   1.688  0.00  0.00    -0.194 N 
ENDROOT
BRANCH   1   6
ATOM      2  C   UNL     1      -5.526  -1.207   6.200  0.00  0.00    +0.044 C 
ATOM      3  C   UNL     1      -4.830  -0.617   5.001  0.00  0.00    -0.050 A 
ATOM      4  C   UNL     1      -5.474  -0.582   3.778  0.00  0.00    +0.005 A 
ATOM      5  C   UNL     1      -4.839  -0.041   2.677  0.00  0.00    +0.025 A 
ATOM      6  C   UNL     1      -3.552   0.467   2.799  0.00  0.00    +0.052 A 
ATOM      7  C   UNL     1      -2.906   0.425   4.028  0.00  0.00    +0.025 A 
ATOM      8  C   UNL     1      -3.549  -0.112   5.126  0.00  0.00    +0.005 A 
ENDBRANCH   1   6
BRANCH   1   9
ATOM      9  S   UNL     1      -2.624   0.078   0.351  0.00  0.00    +0.079 S 
ATOM     10  O   UNL     1      -2.344   0.971  -0.718  0.00  0.00    -0.150 OA
ATOM     11  O   UNL     1      -3.676  -0.875   0.292  0.00  0.00    -0.150 OA
BRANCH   9  12
ATOM     12  C   UNL     1      -1.142  -0.826   0.653  0.00  0.00    +0.150 A 
ATOM     13  C   UNL     1      -1.181  -2.204   0.751  0.00  0.00    +0.036 A 
ATOM     14  C   UNL     1      -0.019  -2.914   0.994  0.00  0.00    -0.048 A 
ATOM     15  C   UNL     1       1.185  -2.248   1.132  0.00  0.00    +0.007 A 
ATOM     16  C   UNL     1       1.230  -0.871   1.028  0.00  0.00    +0.048 A 
ATOM     17  C   UNL     1       0.065  -0.156   0.785  0.00  0.00    +0.147 A 
ATOM     18  C   UNL     1      -0.066  -4.416   1.107  0.00  0.00    +0.044 C 
BRANCH  17  19
ATOM     19  O   UNL     1       0.107   1.198   0.683  0.00  0.00    -0.493 OA
ATOM     20  C   UNL     1       1.383   1.821   0.837  0.00  0.00    +0.277 C 
ENDBRANCH  17  19
ENDBRANCH   9  12
ENDBRANCH   1   9
BRANCH   1  21
ATOM     21  C   UNL     1      -2.481   2.415   1.704  0.00  0.00    +0.227 C 
BRANCH  21  22
ATOM     22  C   UNL     1      -3.631   3.295   1.289  0.00  0.00    +0.236 C 
ATOM     23  O   UNL     1      -4.702   2.801   1.006  0.00  0.00    -0.274 OA
ATOM     24  N   UNL     1      -3.470   4.632   1.230  0.00  0.00    -0.283 N 
ATOM     25  H   UNL     1      -2.596   5.023   1.388  0.00  0.00    +0.155 HD
BRANCH  24  26
ATOM     26  C   UNL     1      -4.564   5.457   0.943  0.00  0.00    +0.047 A 
ATOM     27  C   UNL     1      -5.857   4.986   1.126  0.00  0.00    +0.024 A 
ATOM     28  C   UNL     1      -6.934   5.804   0.845  0.00  0.00    +0.002 A 
ATOM     29  C   UNL     1      -6.727   7.087   0.373  0.00  0.00    +0.001 A 
ATOM     30  C   UNL     1      -5.440   7.558   0.185  0.00  0.00    +0.017 A 
ATOM     31  C   UNL     1      -4.358   6.746   0.469  0.00  0.00    +0.039 A 
ATOM     32 BR   UNL     1      -2.599   7.390   0.210  0.00  0.00    -0.048 Br
ENDBRANCH  24  26
ENDBRANCH  21  22
ENDBRANCH   1  21
TORSDOF 7
