REMARK  Name = ZINC05891423
REMARK  3 active torsions:
REMARK  status: ('A' for Active; 'I' for Inactive)
REMARK    1  A    between atoms: C_3  and  C_8
REMARK    2  A    between atoms: C_8  and  C_10
REMARK    3  A    between atoms: C_11  and  N_24
REMARK                            x       y       z     vdW  Elec       q    Type
REMARK                         _______ _______ _______ _____ _____    ______ ____
ROOT
ATOM      1  C   UNL     1      -2.440   1.174   0.026  0.00  0.00    +0.083 A 
ATOM      2  C   UNL     1      -1.343   2.013  -0.009  0.00  0.00    +0.052 A 
ATOM      3  C   UNL     1      -0.017   1.413  -0.017  0.00  0.00    +0.030 A 
ATOM      4  C   UNL     1       1.240   2.055  -0.048  0.00  0.00    +0.025 A 
ATOM      5  C   UNL     1       2.394   1.275  -0.056  0.00  0.00    +0.039 A 
ATOM      6  C   UNL     1       2.306  -0.124  -0.029  0.00  0.00    +0.053 A 
ATOM      7  N   UNL     1       1.120  -0.701  -0.005  0.00  0.00    -0.244 NA
ATOM      8  C   UNL     1       0.003  -0.003   0.002  0.00  0.00    +0.111 A 
ATOM      9  S   UNL     1      -1.716  -0.454   0.036  0.00  0.00    -0.064 S 
ATOM     10  C   UNL     1       3.537  -0.990  -0.021  0.00  0.00    +0.056 C 
ATOM     11  C   UNL     1       4.740  -0.246  -0.594  0.00  0.00    +0.014 C 
ATOM     12  C   UNL     1       4.934   1.073   0.166  0.00  0.00    +0.080 C 
ATOM     13  C   UNL     1       3.713   1.930  -0.097  0.00  0.00    +0.165 C 
ATOM     14  O   UNL     1       3.819   3.115  -0.333  0.00  0.00    -0.292 OA
ENDROOT
BRANCH   2  15
ATOM     15  N   UNL     1      -1.501   3.389  -0.024  0.00  0.00    -0.356 N 
ATOM     16  H   UNL     1      -0.722   3.966  -0.041  0.00  0.00    +0.142 HD
ATOM     17  H   UNL     1      -2.391   3.775  -0.018  0.00  0.00    +0.142 HD
ENDBRANCH   2  15
BRANCH   1  18
ATOM     18  C   UNL     1      -3.810   1.524   0.044  0.00  0.00    +0.202 C 
ATOM     19  O   UNL     1      -4.140   2.692   0.150  0.00  0.00    -0.286 OA
BRANCH  18  22
ATOM     20  C   UNL     1      -5.513  -1.722  -0.784  0.00  0.00    +0.002 A 
ATOM     21  C   UNL     1      -4.546  -0.742  -0.689  0.00  0.00    +0.012 A 
ATOM     22  C   UNL     1      -4.844   0.470  -0.065  0.00  0.00    +0.024 A 
ATOM     23  C   UNL     1      -6.122   0.688   0.451  0.00  0.00    +0.027 A 
ATOM     24  C   UNL     1      -7.082  -0.299   0.346  0.00  0.00    +0.019 A 
ATOM     25  C   UNL     1      -6.778  -1.501  -0.270  0.00  0.00    +0.015 A 
ATOM     26 BR   UNL     1      -8.815  -0.008   1.044  0.00  0.00    -0.050 Br
ENDBRANCH  18  22
ENDBRANCH   1  18
TORSDOF 3
