REMARK  Name = ZINC22507252
REMARK  11 active torsions:
REMARK  status: ('A' for Active; 'I' for Inactive)
REMARK    1  A    between atoms: C_1  and  C_2
REMARK    2  A    between atoms: C_2  and  C_3
REMARK    3  A    between atoms: C_3  and  C_4
REMARK    4  A    between atoms: C_4  and  C_5
REMARK    5  A    between atoms: C_5  and  C_6
REMARK    6  A    between atoms: N_12  and  N_13
REMARK    7  A    between atoms: N_13  and  C_14
REMARK    8  A    between atoms: C_18  and  C_21
REMARK    9  A    between atoms: C_21  and  C_22
REMARK   10  A    between atoms: N_24  and  C_25
REMARK   11  A    between atoms: C_29  and  N_31
REMARK                            x       y       z     vdW  Elec       q    Type
REMARK                         _______ _______ _______ _____ _____    ______ ____
ROOT
ATOM      1  C   UNL     1       0.583  -4.711   3.459  0.00  0.00    +0.191 C 
ATOM      2  N   UNL     1       1.554  -3.995   2.909  0.00  0.00    -0.155 NA
ATOM      3  C   UNL     1       2.735  -3.821   3.437  0.00  0.00    +0.252 C 
ATOM      4  O   UNL     1       3.597  -3.155   2.898  0.00  0.00    -0.272 OA
ATOM      5  C   UNL     1       2.957  -4.510   4.778  0.00  0.00    +0.150 C 
ATOM      6  S   UNL     1       1.304  -5.297   4.987  0.00  0.00    -0.076 S 
ENDROOT
BRANCH   1   7
ATOM      7  N   UNL     1      -0.673  -4.942   2.976  0.00  0.00    -0.094 NA
BRANCH   7  13
ATOM      8  C   UNL     1      -2.809  -4.091  -0.010  0.00  0.00    +0.035 C 
ATOM      9  C   UNL     1      -4.252  -4.628  -0.114  0.00  0.00    +0.010 C 
ATOM     10  C   UNL     1      -4.246  -5.879   0.800  0.00  0.00    +0.006 C 
ATOM     11  C   UNL     1      -3.326  -5.434   1.964  0.00  0.00    +0.053 C 
ATOM     12  C   UNL     1      -2.240  -4.610   1.294  0.00  0.00    +0.042 C 
ATOM     13  N   UNL     1      -1.062  -4.394   1.747  0.00  0.00    -0.167 NA
BRANCH   8  14
ATOM     14  C   UNL     1      -2.820  -2.561  -0.004  0.00  0.00    +0.009 C 
BRANCH  14  15
ATOM     15  C   UNL     1      -1.381  -2.041  -0.012  0.00  0.00    +0.001 C 
BRANCH  15  16
ATOM     16  C   UNL     1      -1.391  -0.511  -0.006  0.00  0.00    -0.000 C 
BRANCH  16  18
ATOM     17  C   UNL     1       0.038   1.538  -0.008  0.00  0.00    +0.004 C 
ATOM     18  C   UNL     1       0.048   0.009  -0.014  0.00  0.00    -0.003 C 
ENDBRANCH  16  18
ENDBRANCH  15  16
ENDBRANCH  14  15
ENDBRANCH   8  14
ENDBRANCH   7  13
ENDBRANCH   1   7
BRANCH   5  19
ATOM     19  C   UNL     1       3.233  -3.495   5.889  0.00  0.00    +0.120 C 
BRANCH  19  20
ATOM     20  C   UNL     1       3.566  -4.225   7.165  0.00  0.00    +0.219 C 
ATOM     21  O   UNL     1       3.581  -5.438   7.184  0.00  0.00    -0.275 OA
ATOM     22  N   UNL     1       3.847  -3.531   8.285  0.00  0.00    -0.285 N 
ATOM     23  H   UNL     1       3.901  -2.563   8.255  0.00  0.00    +0.155 HD
BRANCH  22  24
ATOM     24  C   UNL     1       4.061  -4.206   9.492  0.00  0.00    +0.036 A 
ATOM     25  C   UNL     1       3.638  -3.643  10.689  0.00  0.00    +0.023 A 
ATOM     26  C   UNL     1       3.850  -4.312  11.878  0.00  0.00    +0.004 A 
ATOM     27  C   UNL     1       4.484  -5.541  11.878  0.00  0.00    +0.033 A 
ATOM     28  C   UNL     1       4.907  -6.104  10.688  0.00  0.00    +0.128 A 
ATOM     29  C   UNL     1       4.692  -5.443   9.495  0.00  0.00    +0.056 A 
BRANCH  28  30
ATOM     30  N   UNL     1       5.586  -7.419  10.693  0.00  0.00    +0.056 N 
ATOM     31  O   UNL     1       5.770  -8.001  11.736  0.00  0.00    -0.126 OA
ATOM     32  O   UNL     1       5.956  -7.912   9.653  0.00  0.00    -0.126 OA
ENDBRANCH  28  30
ENDBRANCH  22  24
ENDBRANCH  19  20
ENDBRANCH   5  19
TORSDOF 10
