REMARK  Name = ZINC31045128
REMARK  6 active torsions:
REMARK  status: ('A' for Active; 'I' for Inactive)
REMARK    1  A    between atoms: C_6  and  C_7
REMARK    2  A    between atoms: C_9  and  C_12
REMARK    3  A    between atoms: C_12  and  N_13
REMARK    4  A    between atoms: C_17  and  C_20
REMARK    5  A    between atoms: N_25  and  C_28
REMARK    6  A    between atoms: C_28  and  C_29
REMARK                            x       y       z     vdW  Elec       q    Type
REMARK                         _______ _______ _______ _____ _____    ______ ____
ROOT
ATOM      1  N   UNL     1      -3.445   6.371   6.566  0.00  0.00    +0.386 N 
ATOM      2  C   UNL     1      -4.393   5.836   5.580  0.00  0.00    -0.078 C 
ATOM      3  C   UNL     1      -3.745   4.675   4.824  0.00  0.00    -0.018 C 
ATOM      4  C   UNL     1      -2.478   5.173   4.123  0.00  0.00    +0.009 C 
ATOM      5  C   UNL     1      -1.528   5.768   5.165  0.00  0.00    +0.059 C 
ATOM      6  C   UNL     1      -2.241   6.898   5.912  0.00  0.00    -0.065 C 
ATOM      7  H   UNL     1      -3.136   5.541   7.218  0.00  0.00    -0.081 HD
ENDROOT
BRANCH   5   8
ATOM      8  C   UNL     1      -0.303   6.314   4.476  0.00  0.00    +0.217 C 
ATOM      9  O   UNL     1      -0.247   7.490   4.182  0.00  0.00    -0.275 OA
ATOM     10  N   UNL     1       0.728   5.497   4.187  0.00  0.00    -0.299 N 
ATOM     11  C   UNL     1       1.887   5.984   3.424  0.00  0.00    +0.123 C 
ATOM     12  C   UNL     1       2.144   5.020   2.261  0.00  0.00    +0.103 C 
ATOM     13  N   UNL     1       2.274   3.653   2.782  0.00  0.00    -0.295 NA
ATOM     14  C   UNL     1       1.028   3.204   3.416  0.00  0.00    +0.103 C 
ATOM     15  C   UNL     1       0.725   4.093   4.627  0.00  0.00    +0.123 C 
BRANCH  13  16
ATOM     16  C   UNL     1       2.691   2.724   1.723  0.00  0.00    +0.119 C 
BRANCH  16  17
ATOM     17  C   UNL     1       3.050   1.394   2.335  0.00  0.00    -0.030 A 
ATOM     18  C   UNL     1       4.349   1.151   2.741  0.00  0.00    +0.009 A 
ATOM     19  C   UNL     1       4.684  -0.067   3.303  0.00  0.00    +0.050 A 
ATOM     20  C   UNL     1       3.718  -1.048   3.460  0.00  0.00    +0.166 A 
ATOM     21  C   UNL     1       2.409  -0.802   3.051  0.00  0.00    +0.167 A 
ATOM     22  C   UNL     1       2.081   0.421   2.489  0.00  0.00    +0.054 A 
ATOM     23  O   UNL     1       1.656  -1.911   3.309  0.00  0.00    -0.453 OA
ATOM     24  C   UNL     1       2.422  -2.685   4.252  0.00  0.00    +0.466 C 
ATOM     25  O   UNL     1       3.785  -2.310   3.975  0.00  0.00    -0.453 OA
ENDBRANCH  16  17
ENDBRANCH  13  16
ENDBRANCH   5   8
BRANCH   1  26
ATOM     26  C   UNL     1      -4.080   7.396   7.405  0.00  0.00    +0.022 C 
BRANCH  26  29
ATOM     27  C   UNL     1      -6.224   5.797   9.806  0.00  0.00    +0.202 A 
ATOM     28  N   UNL     1      -5.001   6.246   9.445  0.00  0.00    -0.193 NA
ATOM     29  C   UNL     1      -5.153   6.759   8.249  0.00  0.00    +0.211 A 
ATOM     30  O   UNL     1      -6.441   6.617   7.922  0.00  0.00    -0.340 OA
ATOM     31  N   UNL     1      -7.039   6.061   8.819  0.00  0.00    -0.056 NA
BRANCH  27  37
ATOM     32  C   UNL     1      -5.595   4.907  12.049  0.00  0.00    +0.013 A 
ATOM     33  C   UNL     1      -5.927   4.289  13.237  0.00  0.00    +0.021 A 
ATOM     34  C   UNL     1      -7.230   3.882  13.467  0.00  0.00    +0.041 A 
ATOM     35  C   UNL     1      -8.207   4.096  12.510  0.00  0.00    +0.021 A 
ATOM     36  C   UNL     1      -7.885   4.717  11.320  0.00  0.00    +0.013 A 
ATOM     37  C   UNL     1      -6.575   5.129  11.084  0.00  0.00    +0.023 A 
ATOM     38 CL   UNL     1      -7.641   3.100  14.962  0.00  0.00    -0.084 Cl
ENDBRANCH  27  37
ENDBRANCH  26  29
ENDBRANCH   1  26
TORSDOF 6
