REMARK  Name = ZINC39858872
REMARK  9 active torsions:
REMARK  status: ('A' for Active; 'I' for Inactive)
REMARK    1  A    between atoms: C_1  and  C_2
REMARK    2  A    between atoms: C_5  and  O_9
REMARK    3  A    between atoms: C_6  and  C_8
REMARK    4  A    between atoms: O_9  and  C_10
REMARK    5  A    between atoms: C_11  and  C_22
REMARK    6  A    between atoms: C_18  and  C_21
REMARK    7  A    between atoms: C_23  and  C_24
REMARK    8  A    between atoms: C_23  and  C_26
REMARK    9  A    between atoms: N_28  and  C_29
REMARK                            x       y       z     vdW  Elec       q    Type
REMARK                         _______ _______ _______ _____ _____    ______ ____
ROOT
ATOM      1  C   UNL     1      -1.207  -6.840  -2.637  0.00  0.00    +0.235 A 
ATOM      2  C   UNL     1      -0.955  -8.025  -1.903  0.00  0.00    +0.103 A 
ATOM      3  C   UNL     1      -1.018  -9.267  -2.590  0.00  0.00    +0.269 A 
ATOM      4  O   UNL     1      -0.808 -10.312  -2.000  0.00  0.00    -0.266 OA
ATOM      5  N   UNL     1      -1.314  -9.268  -3.907  0.00  0.00    -0.267 N 
ATOM      6  C   UNL     1      -1.377 -10.454  -4.575  0.00  0.00    +0.096 A 
ATOM      7  C   UNL     1      -1.671 -10.491  -5.894  0.00  0.00    +0.019 A 
ATOM      8  C   UNL     1      -1.915  -9.302  -6.593  0.00  0.00    +0.008 A 
ATOM      9  C   UNL     1      -1.854  -8.110  -5.933  0.00  0.00    -0.007 A 
ATOM     10  C   UNL     1      -1.548  -8.091  -4.561  0.00  0.00    +0.147 A 
ATOM     11  N   UNL     1      -1.496  -6.920  -3.924  0.00  0.00    -0.194 NA
ATOM     12  C   UNL     1      -2.114  -6.821  -6.670  0.00  0.00    +0.047 C 
ENDROOT
BRANCH   2  13
ATOM     13  C   UNL     1      -0.649  -7.974  -0.531  0.00  0.00    +0.042 C 
ATOM     14  C   UNL     1       0.631  -8.281  -0.093  0.00  0.00    +0.114 C 
BRANCH  14  15
ATOM     15  C   UNL     1       1.706  -8.504  -1.067  0.00  0.00    +0.259 C 
ATOM     16  O   UNL     1       1.511  -8.286  -2.248  0.00  0.00    -0.269 OA
ATOM     17  N   UNL     1       2.908  -8.950  -0.653  0.00  0.00    -0.281 N 
ATOM     18  H   UNL     1       3.044  -9.184   0.279  0.00  0.00    +0.155 HD
BRANCH  17  19
ATOM     19  C   UNL     1       3.961  -9.075  -1.567  0.00  0.00    +0.034 A 
ATOM     20  C   UNL     1       4.078  -8.177  -2.619  0.00  0.00    +0.026 A 
ATOM     21  C   UNL     1       5.117  -8.302  -3.520  0.00  0.00    +0.040 A 
ATOM     22  C   UNL     1       6.041  -9.323  -3.375  0.00  0.00    +0.124 A 
ATOM     23  C   UNL     1       5.926 -10.220  -2.326  0.00  0.00    +0.040 A 
ATOM     24  C   UNL     1       4.892 -10.095  -1.419  0.00  0.00    +0.026 A 
ATOM     25  F   UNL     1       7.057  -9.445  -4.258  0.00  0.00    -0.205 F 
ENDBRANCH  17  19
ENDBRANCH  14  15
BRANCH  14  26
ATOM     26  C   UNL     1       0.904  -8.382   1.309  0.00  0.00    +0.104 C 
ATOM     27  N   UNL     1       1.120  -8.461   2.421  0.00  0.00    -0.191 NA
ENDBRANCH  14  26
ENDBRANCH   2  13
BRANCH   1  28
ATOM     28  O   UNL     1      -1.157  -5.637  -2.023  0.00  0.00    -0.437 OA
BRANCH  28  33
ATOM     29  C   UNL     1      -2.580  -1.081  -5.014  0.00  0.00    +0.044 C 
ATOM     30  C   UNL     1      -2.200  -2.300  -4.214  0.00  0.00    -0.050 A 
ATOM     31  C   UNL     1      -3.148  -2.940  -3.437  0.00  0.00    +0.007 A 
ATOM     32  C   UNL     1      -2.802  -4.057  -2.703  0.00  0.00    +0.047 A 
ATOM     33  C   UNL     1      -1.501  -4.538  -2.745  0.00  0.00    +0.133 A 
ATOM     34  C   UNL     1      -0.551  -3.895  -3.526  0.00  0.00    -0.008 A 
ATOM     35  C   UNL     1      -0.904  -2.780  -4.263  0.00  0.00    +0.010 A 
ATOM     36  C   UNL     1       0.863  -4.414  -3.574  0.00  0.00    +0.047 C 
ENDBRANCH  28  33
ENDBRANCH   1  28
TORSDOF 6
