REMARK  Name = ZINC40777920
REMARK  6 active torsions:
REMARK  status: ('A' for Active; 'I' for Inactive)
REMARK    1  A    between atoms: C_4  and  N_7
REMARK    2  A    between atoms: N_7  and  C_8
REMARK    3  A    between atoms: N_7  and  N_14
REMARK    4  A    between atoms: C_16  and  N_33
REMARK    5  A    between atoms: C_17  and  O_21
REMARK    6  A    between atoms: O_21  and  C_22
REMARK                            x       y       z     vdW  Elec       q    Type
REMARK                         _______ _______ _______ _____ _____    ______ ____
ROOT
ATOM      1  N   UNL     1       4.737   0.066  -0.236  0.00  0.00    -0.242 N 
ATOM      2  C   UNL     1       5.512   0.760   0.686  0.00  0.00    +0.163 A 
ATOM      3  C   UNL     1       6.729   1.331   0.303  0.00  0.00    +0.129 A 
ATOM      4  C   UNL     1       7.466   2.015   1.267  0.00  0.00    +0.246 A 
ATOM      5  N   UNL     1       6.989   2.100   2.505  0.00  0.00    -0.199 NA
ATOM      6  C   UNL     1       5.837   1.547   2.826  0.00  0.00    +0.227 A 
ATOM      7  N   UNL     1       5.105   0.895   1.945  0.00  0.00    -0.217 NA
ATOM      8  H   UNL     1       5.041  -0.028  -1.152  0.00  0.00    +0.172 HD
ENDROOT
BRANCH   3   9
ATOM      9  N   UNL     1       7.195   1.217  -1.016  0.00  0.00    -0.351 N 
ATOM     10  H   UNL     1       6.671   0.737  -1.676  0.00  0.00    +0.143 HD
ATOM     11  H   UNL     1       8.041   1.618  -1.267  0.00  0.00    +0.143 HD
ENDBRANCH   3   9
BRANCH   1  12
ATOM     12  N   UNL     1       3.516  -0.497   0.159  0.00  0.00    -0.221 N 
BRANCH  12  16
ATOM     13  C   UNL     1       0.197   1.944   0.765  0.00  0.00    +0.000 A 
ATOM     14  C   UNL     1       0.325   0.765   1.476  0.00  0.00    +0.002 A 
ATOM     15  C   UNL     1       1.424  -0.047   1.277  0.00  0.00    +0.025 A 
ATOM     16  C   UNL     1       2.402   0.322   0.362  0.00  0.00    +0.053 A 
ATOM     17  C   UNL     1       2.270   1.507  -0.351  0.00  0.00    +0.025 A 
ATOM     18  C   UNL     1       1.169   2.315  -0.147  0.00  0.00    +0.002 A 
ENDBRANCH  12  16
BRANCH  12  19
ATOM     19  C   UNL     1       3.412  -1.877   0.349  0.00  0.00    +0.053 A 
ATOM     20  C   UNL     1       2.357  -2.580  -0.218  0.00  0.00    +0.025 A 
ATOM     21  C   UNL     1       2.257  -3.945  -0.028  0.00  0.00    +0.002 A 
ATOM     22  C   UNL     1       3.207  -4.611   0.725  0.00  0.00    +0.000 A 
ATOM     23  C   UNL     1       4.258  -3.913   1.291  0.00  0.00    +0.002 A 
ATOM     24  C   UNL     1       4.367  -2.550   1.100  0.00  0.00    +0.025 A 
ENDBRANCH  12  19
ENDBRANCH   1  12
BRANCH   4  25
ATOM     25  O   UNL     1       8.654   2.587   0.947  0.00  0.00    -0.434 OA
BRANCH  25  26
ATOM     26  C   UNL     1       9.382   3.150   1.947  0.00  0.00    +0.156 A 
ATOM     27  C   UNL     1       9.322   4.506   2.168  0.00  0.00    +0.049 A 
ATOM     28  C   UNL     1      10.062   5.096   3.190  0.00  0.00    +0.019 A 
ATOM     29  C   UNL     1      10.863   4.346   3.997  0.00  0.00    +0.027 A 
ATOM     30  C   UNL     1      10.950   2.958   3.802  0.00  0.00    +0.018 A 
ATOM     31  C   UNL     1      10.198   2.345   2.769  0.00  0.00    +0.114 A 
ATOM     32  N   UNL     1      10.274   1.024   2.583  0.00  0.00    -0.251 NA
ATOM     33  C   UNL     1      11.032   0.272   3.344  0.00  0.00    +0.111 A 
ATOM     34  C   UNL     1      11.792   0.809   4.381  0.00  0.00    +0.020 A 
ATOM     35  C   UNL     1      11.768   2.154   4.618  0.00  0.00    +0.013 A 
ATOM     36 BR   UNL     1      11.858   5.173   5.377  0.00  0.00    -0.050 Br
ENDBRANCH  25  26
ENDBRANCH   4  25
TORSDOF 6
