REMARK  Name = ZINC40035086
REMARK  9 active torsions:
REMARK  status: ('A' for Active; 'I' for Inactive)
REMARK    1  A    between atoms: C_1  and  C_2
REMARK    2  A    between atoms: C_2  and  C_3
REMARK    3  A    between atoms: C_3  and  C_36
REMARK    4  A    between atoms: N_15  and  C_29
REMARK    5  A    between atoms: N_18  and  N_19
REMARK    6  A    between atoms: C_20  and  C_21
REMARK    7  A    between atoms: C_25  and  O_27
REMARK    8  A    between atoms: O_27  and  C_28
REMARK    9  A    between atoms: C_32  and  C_35
REMARK                            x       y       z     vdW  Elec       q    Type
REMARK                         _______ _______ _______ _____ _____    ______ ____
ROOT
ATOM      1  C   UNL     1       0.942   0.013   0.367  0.00  0.00    +0.004 C 
ATOM      2  C   UNL     1       0.348  -1.385   0.220  0.00  0.00    +0.047 C 
ATOM      3  C   UNL     1       1.317  -2.301  -0.479  0.00  0.00    -0.037 A 
ATOM      4  C   UNL     1       0.860  -3.273  -1.344  0.00  0.00    +0.004 A 
ATOM      5  C   UNL     1       1.757  -4.113  -1.979  0.00  0.00    +0.000 A 
ATOM      6  C   UNL     1       3.116  -3.986  -1.753  0.00  0.00    +0.001 A 
ATOM      7  C   UNL     1       3.587  -3.017  -0.890  0.00  0.00    +0.010 A 
ATOM      8  C   UNL     1       2.687  -2.168  -0.250  0.00  0.00    +0.004 A 
ATOM      9  C   UNL     1       3.162  -1.112   0.672  0.00  0.00    +0.084 A 
ATOM     10  C   UNL     1       2.314  -0.057   0.976  0.00  0.00    +0.050 A 
ATOM     11  C   UNL     1       2.762   0.937   1.855  0.00  0.00    +0.264 A 
ATOM     12  O   UNL     1       2.044   1.880   2.148  0.00  0.00    -0.267 OA
ATOM     13  N   UNL     1       4.005   0.830   2.373  0.00  0.00    -0.248 N 
ATOM     14  C   UNL     1       4.800  -0.226   2.037  0.00  0.00    +0.223 A 
ATOM     15  N   UNL     1       4.385  -1.164   1.212  0.00  0.00    -0.214 NA
ATOM     16  N   UNL     1       6.060  -0.312   2.571  0.00  0.00    -0.206 N 
ATOM     17  C   UNL     1       0.034   0.854   1.267  0.00  0.00    +0.016 C 
ATOM     18  H   UNL     1       6.365   0.355   3.206  0.00  0.00    +0.177 HD
ENDROOT
BRANCH  13  19
ATOM     19  C   UNL     1       4.479   1.807   3.258  0.00  0.00    +0.053 A 
ATOM     20  C   UNL     1       5.150   2.921   2.770  0.00  0.00    +0.026 A 
ATOM     21  C   UNL     1       5.616   3.882   3.645  0.00  0.00    +0.005 A 
ATOM     22  C   UNL     1       5.415   3.737   5.006  0.00  0.00    -0.050 A 
ATOM     23  C   UNL     1       4.747   2.630   5.494  0.00  0.00    +0.005 A 
ATOM     24  C   UNL     1       4.273   1.667   4.624  0.00  0.00    +0.026 A 
ATOM     25  C   UNL     1       5.925   4.788   5.958  0.00  0.00    +0.044 C 
ENDBRANCH  13  19
BRANCH   1  27
ATOM     26  C   UNL     1       1.604   2.083  -0.866  0.00  0.00    +0.005 C 
ATOM     27  C   UNL     1       1.035   0.670  -1.011  0.00  0.00    +0.008 C 
ENDBRANCH   1  27
BRANCH  16  28
ATOM     28  N   UNL     1       6.907  -1.364   2.200  0.00  0.00    -0.188 NA
ATOM     29  C   UNL     1       8.100  -1.446   2.705  0.00  0.00    +0.138 C 
BRANCH  29  30
ATOM     30  C   UNL     1       8.992  -2.554   2.314  0.00  0.00    -0.002 A 
ATOM     31  C   UNL     1       8.558  -3.513   1.395  0.00  0.00    +0.010 A 
ATOM     32  C   UNL     1       9.395  -4.547   1.032  0.00  0.00    +0.004 A 
ATOM     33  C   UNL     1      10.664  -4.638   1.574  0.00  0.00    +0.045 A 
ATOM     34  C   UNL     1      11.105  -3.691   2.487  0.00  0.00    +0.121 A 
ATOM     35  C   UNL     1      10.275  -2.645   2.856  0.00  0.00    +0.055 A 
BRANCH  34  36
ATOM     36  O   UNL     1      12.353  -3.786   3.017  0.00  0.00    -0.495 OA
ATOM     37  C   UNL     1      13.157  -4.887   2.588  0.00  0.00    +0.277 C 
ENDBRANCH  34  36
ENDBRANCH  29  30
ENDBRANCH  16  28
TORSDOF 5
