REMARK  Name = ZINC65335425
REMARK  12 active torsions:
REMARK  status: ('A' for Active; 'I' for Inactive)
REMARK    1  A    between atoms: C_1  and  C_2
REMARK    2  A    between atoms: C_5  and  C_37
REMARK    3  A    between atoms: C_6  and  S_8
REMARK    4  A    between atoms: S_8  and  C_9
REMARK    5  A    between atoms: C_9  and  C_10
REMARK    6  A    between atoms: C_12  and  C_18
REMARK    7  A    between atoms: C_15  and  O_16
REMARK    8  A    between atoms: O_16  and  C_17
REMARK    9  A    between atoms: CA_31  and  C_34
REMARK   10  A    between atoms: C_37  and  C_38
REMARK   11  A    between atoms: C_37  and  C_39
REMARK   12  A    between atoms: C_37  and  C_40
REMARK                            x       y       z     vdW  Elec       q    Type
REMARK                         _______ _______ _______ _____ _____    ______ ____
ROOT
ATOM      1  C   UNL     1       0.625  -0.152   7.165  0.00  0.00    +0.005 A 
ATOM      2  C   UNL     1      -0.557  -0.855   7.295  0.00  0.00    +0.013 A 
ATOM      3  C   UNL     1      -0.678  -1.833   8.265  0.00  0.00    -0.028 A 
ATOM      4  C   UNL     1       0.384  -2.111   9.106  0.00  0.00    +0.009 A 
ATOM      5  C   UNL     1       1.568  -1.411   8.980  0.00  0.00    +0.046 A 
ATOM      6  C   UNL     1       1.694  -0.433   8.004  0.00  0.00    +0.124 A 
ENDROOT
BRANCH   3   7
ATOM      7  C   UNL     1      -1.969  -2.597   8.405  0.00  0.00    +0.111 C 
ATOM      8  C   UNL     1      -1.834  -3.966   7.734  0.00  0.00    +0.128 C 
ATOM      9  C   UNL     1      -3.109  -4.732   8.068  0.00  0.00    -0.035 C 
ATOM     10  C   UNL     1      -3.618  -5.135   6.912  0.00  0.00    -0.001 A 
ATOM     11  C   UNL     1      -4.781  -5.979   6.592  0.00  0.00    +0.010 A 
ATOM     12  C   UNL     1      -5.029  -6.182   5.271  0.00  0.00    +0.001 A 
ATOM     13  C   UNL     1      -4.247  -5.637   4.249  0.00  0.00    +0.002 A 
ATOM     14  C   UNL     1      -3.157  -4.854   4.451  0.00  0.00    +0.026 A 
ATOM     15  C   UNL     1      -2.792  -4.573   5.800  0.00  0.00    +0.043 A 
ATOM     16  N   UNL     1      -1.780  -3.875   6.276  0.00  0.00    -0.376 N 
ATOM     17  C   UNL     1      -3.621  -4.838   9.484  0.00  0.00    +0.063 C 
ATOM     18  CA  UNL     1      -3.583  -3.412  10.063  0.00  0.00    +0.172 C 
ATOM     19  N   UNL     1      -2.269  -2.807   9.830  0.00  0.00    -0.295 NA
ATOM     20  H   UNL     1      -1.540  -3.344  10.278  0.00  0.00    +0.123 HD
ATOM     21  H   UNL     1      -1.119  -3.384   5.762  0.00  0.00    +0.160 HD
BRANCH  18  22
ATOM     22  C   UNL     1      -4.641  -2.573   9.393  0.00  0.00    +0.373 C 
ATOM     23  O   UNL     1      -5.796  -2.963   9.357  0.00  0.00    -0.245 OA
ATOM     24  OXT UNL     1      -4.342  -1.505   8.888  0.00  0.00    -0.245 OA
ENDBRANCH  18  22
ENDBRANCH   3   7
BRANCH   6  25
ATOM     25  O   UNL     1       2.860   0.253   7.874  0.00  0.00    -0.495 OA
ATOM     26  C   UNL     1       3.917  -0.089   8.772  0.00  0.00    +0.277 C 
ENDBRANCH   6  25
BRANCH   1  27
ATOM     27  C   UNL     1       0.756   0.914   6.108  0.00  0.00    +0.113 C 
BRANCH  27  28
ATOM     28  S   UNL     1       1.374   0.172   4.573  0.00  0.00    -0.120 S 
BRANCH  28  34
ATOM     29  C   UNL     1       0.782   5.245   3.436  0.00  0.00    +0.044 C 
ATOM     30  C   UNL     1       1.180   3.862   2.986  0.00  0.00    -0.049 A 
ATOM     31  C   UNL     1       1.623   3.658   1.692  0.00  0.00    +0.004 A 
ATOM     32  C   UNL     1       1.989   2.391   1.275  0.00  0.00    +0.005 A 
ATOM     33  C   UNL     1       1.915   1.326   2.151  0.00  0.00    -0.029 A 
ATOM     34  C   UNL     1       1.471   1.528   3.452  0.00  0.00    +0.012 A 
ATOM     35  C   UNL     1       1.109   2.803   3.869  0.00  0.00    +0.018 A 
BRANCH  33  36
ATOM     36  C   UNL     1       2.314  -0.054   1.696  0.00  0.00    -0.012 C 
ATOM     37  C   UNL     1       2.760   0.000   0.233  0.00  0.00    +0.015 C 
ATOM     38  C   UNL     1       3.468  -0.563   2.562  0.00  0.00    +0.015 C 
ATOM     39  C   UNL     1       1.120  -1.001   1.830  0.00  0.00    +0.015 C 
ENDBRANCH  33  36
ENDBRANCH  28  34
ENDBRANCH  27  28
ENDBRANCH   1  27
TORSDOF 7
