REMARK  Name = ZINC14990947
REMARK  7 active torsions:
REMARK  status: ('A' for Active; 'I' for Inactive)
REMARK    1  A    between atoms: C_10  and  C_11
REMARK    2  A    between atoms: C_11  and  N_12
REMARK    3  A    between atoms: C_13  and  C_19
REMARK    4  A    between atoms: C_19  and  C_20
REMARK    5  A    between atoms: C_20  and  N_55
REMARK    6  A    between atoms: C_21  and  C_22
REMARK    7  A    between atoms: C_21  and  N_55
REMARK                            x       y       z     vdW  Elec       q    Type
REMARK                         _______ _______ _______ _____ _____    ______ ____
ROOT
ATOM      1  N   UNL     1      -5.806   2.918  -1.725  0.00  0.00    -0.294 N 
ATOM      2  C   UNL     1      -4.756   3.651  -2.442  0.00  0.00    +0.075 C 
ATOM      3  C   UNL     1      -5.198   3.664  -3.922  0.00  0.00    +0.031 C 
ATOM      4  C   UNL     1      -6.732   3.518  -3.793  0.00  0.00    +0.098 C 
ATOM      5  C   UNL     1      -6.930   2.833  -2.459  0.00  0.00    +0.216 C 
ATOM      6  O   UNL     1      -7.952   2.286  -2.103  0.00  0.00    -0.276 OA
ENDROOT
BRANCH   1   7
ATOM      7  C   UNL     1      -5.651   2.352  -0.383  0.00  0.00    +0.143 C 
BRANCH   7  17
ATOM      8  C   UNL     1      -9.779   4.272   1.957  0.00  0.00    +0.001 A 
ATOM      9  C   UNL     1      -9.566   3.278   1.004  0.00  0.00    +0.001 A 
ATOM     10  C   UNL     1      -8.311   2.985   0.565  0.00  0.00    +0.009 A 
ATOM     11  C   UNL     1      -7.213   3.700   1.072  0.00  0.00    -0.013 A 
ATOM     12  C   UNL     1      -7.429   4.708   2.045  0.00  0.00    -0.018 A 
ATOM     13  C   UNL     1      -8.739   4.981   2.475  0.00  0.00    +0.008 A 
ATOM     14  C   UNL     1      -6.330   5.418   2.557  0.00  0.00    +0.008 A 
ATOM     15  C   UNL     1      -5.075   5.126   2.117  0.00  0.00    +0.001 A 
ATOM     16  C   UNL     1      -4.862   4.131   1.165  0.00  0.00    +0.006 A 
ATOM     17  C   UNL     1      -5.902   3.423   0.646  0.00  0.00    -0.022 A 
ENDBRANCH   7  17
ENDBRANCH   1   7
BRANCH   2  18
ATOM     18  C   UNL     1      -3.414   2.930  -2.296  0.00  0.00    +0.003 C 
BRANCH  18  19
ATOM     19  C   UNL     1      -2.326   3.728  -3.018  0.00  0.00    -0.080 C 
BRANCH  19  20
ATOM     20  N   UNL     1      -1.017   3.096  -2.767  0.00  0.00    +0.382 N 
ATOM     21  H   UNL     1      -1.033   2.131  -3.118  0.00  0.00    -0.085 HD
ATOM     22  H   UNL     1      -0.832   3.090  -1.757  0.00  0.00    -0.085 HD
BRANCH  20  23
ATOM     23  C   UNL     1       0.053   3.845  -3.452  0.00  0.00    -0.045 C 
BRANCH  23  24
ATOM     24  C   UNL     1       1.376   3.178  -3.178  0.00  0.00    -0.042 A 
ATOM     25  C   UNL     1       1.984   2.421  -4.162  0.00  0.00    +0.052 A 
ATOM     26  C   UNL     1       3.198   1.802  -3.910  0.00  0.00    +0.167 A 
ATOM     27  C   UNL     1       3.804   1.945  -2.664  0.00  0.00    +0.168 A 
ATOM     28  C   UNL     1       3.190   2.705  -1.682  0.00  0.00    +0.069 A 
ATOM     29  C   UNL     1       1.977   3.320  -1.940  0.00  0.00    +0.046 A 
ATOM     30 CL   UNL     1       1.210   4.273  -0.708  0.00  0.00    -0.083 Cl
ATOM     31  O   UNL     1       4.976   1.247  -2.667  0.00  0.00    -0.453 OA
ATOM     32  C   UNL     1       5.282   1.013  -4.054  0.00  0.00    +0.466 C 
ATOM     33  O   UNL     1       3.991   1.014  -4.694  0.00  0.00    -0.453 OA
ENDBRANCH  23  24
ENDBRANCH  20  23
ENDBRANCH  19  20
ENDBRANCH  18  19
ENDBRANCH   2  18
TORSDOF 7
