REMARK  Name = ZINC64392082
REMARK  4 active torsions:
REMARK  status: ('A' for Active; 'I' for Inactive)
REMARK    1  A    between atoms: C_3  and  C_8
REMARK    2  A    between atoms: C_8  and  N_9
REMARK    3  A    between atoms: C_15  and  C_22
REMARK    4  A    between atoms: C_25  and  C_28
REMARK                            x       y       z     vdW  Elec       q    Type
REMARK                         _______ _______ _______ _____ _____    ______ ____
ROOT
ATOM      1  N   UNL     1       4.104   2.427   1.357  0.00  0.00    -0.256 N 
ATOM      2  C   UNL     1       3.692   3.545   1.994  0.00  0.00    +0.265 A 
ATOM      3  O   UNL     1       2.969   4.348   1.437  0.00  0.00    -0.267 OA
ATOM      4  C   UNL     1       4.141   3.765   3.380  0.00  0.00    +0.063 A 
ATOM      5  C   UNL     1       3.760   4.892   4.104  0.00  0.00    +0.016 A 
ATOM      6  C   UNL     1       4.206   5.052   5.398  0.00  0.00    +0.009 A 
ATOM      7  C   UNL     1       5.030   4.099   5.979  0.00  0.00    +0.006 A 
ATOM      8  C   UNL     1       5.416   2.978   5.273  0.00  0.00    +0.034 A 
ATOM      9  C   UNL     1       4.976   2.800   3.970  0.00  0.00    +0.056 A 
ATOM     10  N   UNL     1       5.340   1.687   3.225  0.00  0.00    -0.307 N 
ATOM     11  H   UNL     1       5.915   1.012   3.619  0.00  0.00    +0.170 HD
ATOM     12  C   UNL     1       4.898   1.531   1.966  0.00  0.00    +0.330 A 
ATOM     13  O   UNL     1       5.236   0.540   1.349  0.00  0.00    -0.246 OA
ENDROOT
BRANCH   7  14
ATOM     14  C   UNL     1       5.509   4.291   7.395  0.00  0.00    +0.274 C 
ATOM     15  N   UNL     1       5.597   5.721   7.712  0.00  0.00    -0.339 N 
ATOM     16  C   UNL     1       4.793   5.979   8.698  0.00  0.00    +0.134 C 
ATOM     17  N   UNL     1       4.134   4.849   9.116  0.00  0.00    -0.247 N 
ATOM     18  O   UNL     1       4.555   3.750   8.320  0.00  0.00    -0.243 OA
ATOM     19  H   UNL     1       3.487   4.808   9.837  0.00  0.00    +0.196 HD
ATOM     20  H   UNL     1       6.163   6.367   7.260  0.00  0.00    +0.164 HD
BRANCH  16  21
ATOM     21  C   UNL     1       4.610   7.320   9.296  0.00  0.00    +0.021 A 
ATOM     22  C   UNL     1       4.769   8.463   8.511  0.00  0.00    +0.015 A 
ATOM     23  C   UNL     1       4.598   9.711   9.070  0.00  0.00    +0.050 A 
ATOM     24  C   UNL     1       4.267   9.837  10.412  0.00  0.00    +0.166 A 
ATOM     25  C   UNL     1       4.107   8.698  11.201  0.00  0.00    +0.167 A 
ATOM     26  C   UNL     1       4.272   7.444  10.644  0.00  0.00    +0.061 A 
ATOM     27  O   UNL     1       3.787   9.088  12.469  0.00  0.00    -0.453 OA
ATOM     28  C   UNL     1       4.154  10.479  12.547  0.00  0.00    +0.466 C 
ATOM     29  O   UNL     1       4.047  10.938  11.187  0.00  0.00    -0.453 OA
ENDBRANCH  16  21
ENDBRANCH   7  14
BRANCH   1  30
ATOM     30  C   UNL     1       3.672   2.184  -0.021  0.00  0.00    +0.165 C 
BRANCH  30  33
ATOM     31  C   UNL     1      -0.017   1.378   0.010  0.00  0.00    +0.002 A 
ATOM     32  C   UNL     1       1.171   2.086   0.002  0.00  0.00    +0.005 A 
ATOM     33  C   UNL     1       2.378   1.412  -0.013  0.00  0.00    -0.026 A 
ATOM     34  C   UNL     1       2.398   0.029  -0.021  0.00  0.00    +0.025 A 
ATOM     35  C   UNL     1       1.210  -0.679  -0.013  0.00  0.00    +0.041 A 
ATOM     36  C   UNL     1       0.002  -0.004   0.002  0.00  0.00    +0.020 A 
ATOM     37 CL   UNL     1       1.234  -2.415  -0.024  0.00  0.00    -0.084 Cl
ENDBRANCH  30  33
ENDBRANCH   1  30
TORSDOF 4
