REMARK  Name = ZINC07339238
REMARK  8 active torsions:
REMARK  status: ('A' for Active; 'I' for Inactive)
REMARK    1  A    between atoms: C_1  and  C_2
REMARK    2  A    between atoms: C_2  and  S_3
REMARK    3  A    between atoms: S_3  and  N_6
REMARK    4  A    between atoms: C_13  and  C_15
REMARK    5  A    between atoms: C_15  and  C_17
REMARK    6  A    between atoms: C_17  and  O_18
REMARK    7  A    between atoms: O_18  and  C_19
REMARK    8  A    between atoms: C_24  and  N_25
REMARK                            x       y       z     vdW  Elec       q    Type
REMARK                         _______ _______ _______ _____ _____    ______ ____
ROOT
ATOM      1  N   UNL     1     -10.013  -1.975   0.086  0.00  0.00    -0.207 N 
ATOM      2  C   UNL     1     -10.850  -0.773   0.100  0.00  0.00    +0.136 C 
ATOM      3  C   UNL     1      -9.863   0.406   0.098  0.00  0.00    +0.058 C 
ATOM      4  C   UNL     1      -8.498  -0.246   0.082  0.00  0.00    -0.023 A 
ATOM      5  C   UNL     1      -8.670  -1.626   0.076  0.00  0.00    +0.054 A 
ATOM      6  C   UNL     1      -7.541  -2.457   0.061  0.00  0.00    +0.026 A 
ATOM      7  C   UNL     1      -6.288  -1.921   0.046  0.00  0.00    +0.013 A 
ATOM      8  C   UNL     1      -6.119  -0.530   0.058  0.00  0.00    +0.021 A 
ATOM      9  C   UNL     1      -7.247   0.301   0.073  0.00  0.00    +0.017 A 
ENDROOT
BRANCH   1  10
ATOM     10  S   UNL     1     -10.588  -3.528   0.083  0.00  0.00    +0.045 S 
ATOM     11  O   UNL     1     -11.877  -3.437  -0.507  0.00  0.00    -0.155 OA
ATOM     12  O   UNL     1      -9.562  -4.293  -0.534  0.00  0.00    -0.155 OA
BRANCH  10  14
ATOM     13  C   UNL     1     -11.261  -5.406   1.955  0.00  0.00    +0.030 C 
ATOM     14  C   UNL     1     -10.733  -3.975   1.835  0.00  0.00    +0.185 C 
ENDBRANCH  10  14
ENDBRANCH   1  10
BRANCH   8  15
ATOM     15  C   UNL     1      -4.771   0.051   0.048  0.00  0.00    +0.200 C 
ATOM     16  O   UNL     1      -4.631   1.256   0.053  0.00  0.00    -0.288 OA
BRANCH  15  17
ATOM     17  C   UNL     1      -3.563  -0.849   0.032  0.00  0.00    +0.308 C 
BRANCH  17  18
ATOM     18  O   UNL     1      -2.376  -0.053   0.025  0.00  0.00    -0.482 OA
BRANCH  18  19
ATOM     19  C   UNL     1      -1.189  -0.715   0.010  0.00  0.00    +0.151 A 
ATOM     20  C   UNL     1      -1.167  -2.102   0.001  0.00  0.00    +0.048 A 
ATOM     21  C   UNL     1       0.041  -2.772  -0.014  0.00  0.00    +0.004 A 
ATOM     22  C   UNL     1       1.227  -2.061  -0.022  0.00  0.00    +0.002 A 
ATOM     23  C   UNL     1       1.207  -0.679  -0.019  0.00  0.00    +0.036 A 
ATOM     24  C   UNL     1       0.002  -0.004   0.002  0.00  0.00    +0.168 A 
BRANCH  24  25
ATOM     25  N   UNL     1      -0.018   1.476   0.010  0.00  0.00    +0.060 N 
ATOM     26  O   UNL     1       1.028   2.099   0.004  0.00  0.00    -0.126 OA
ATOM     27  O   UNL     1      -1.081   2.070   0.018  0.00  0.00    -0.126 OA
ENDBRANCH  24  25
ENDBRANCH  18  19
ENDBRANCH  17  18
ENDBRANCH  15  17
ENDBRANCH   8  15
TORSDOF 7
