REMARK  Name = ZINC14546928
REMARK  6 active torsions:
REMARK  status: ('A' for Active; 'I' for Inactive)
REMARK    1  A    between atoms: C_1  and  C_2
REMARK    2  A    between atoms: C_2  and  C_3
REMARK    3  A    between atoms: C_2  and  C_4
REMARK    4  A    between atoms: C_4  and  O_5
REMARK    5  A    between atoms: O_5  and  C_6
REMARK    6  A    between atoms: C_13  and  C_22
REMARK                            x       y       z     vdW  Elec       q    Type
REMARK                         _______ _______ _______ _____ _____    ______ ____
ROOT
ATOM      1  C   UNL     1      -1.218   1.754   0.017  0.00  0.00    +0.142 A 
ATOM      2  C   UNL     1      -0.013   1.076   0.008  0.00  0.00    +0.047 A 
ATOM      3  C   UNL     1       1.174   1.786   0.000  0.00  0.00    +0.004 A 
ATOM      4  C   UNL     1       1.153   3.166   0.007  0.00  0.00    +0.006 A 
ATOM      5  C   UNL     1      -0.052   3.858   0.021  0.00  0.00    -0.016 A 
ATOM      6  C   UNL     1      -1.240   3.152   0.031  0.00  0.00    +0.074 A 
ATOM      7  N   UNL     1      -2.484   3.788   0.051  0.00  0.00    -0.334 N 
ATOM      8  C   UNL     1      -2.429   5.127  -0.535  0.00  0.00    +0.108 C 
ATOM      9  C   UNL     1      -1.403   5.973   0.222  0.00  0.00    +0.029 C 
ATOM     10  C   UNL     1      -0.001   5.358   0.020  0.00  0.00    +0.049 C 
ATOM     11  C   UNL     1       0.437   5.875  -1.331  0.00  0.00    -0.023 C 
ATOM     12  C   UNL     1      -0.238   6.950  -1.651  0.00  0.00    -0.030 C 
ATOM     13  C   UNL     1      -1.221   7.308  -0.553  0.00  0.00    +0.033 C 
ATOM     14  H   UNL     1      -3.187   3.223  -0.402  0.00  0.00    +0.147 HD
ENDROOT
BRANCH   8  15
ATOM     15  C   UNL     1      -3.786   5.776  -0.435  0.00  0.00    +0.010 A 
ATOM     16  C   UNL     1      -4.505   5.697   0.744  0.00  0.00    +0.047 A 
ATOM     17  C   UNL     1      -5.748   6.298   0.837  0.00  0.00    +0.020 A 
ATOM     18  C   UNL     1      -6.276   6.966  -0.252  0.00  0.00    +0.003 A 
ATOM     19  C   UNL     1      -5.561   7.040  -1.432  0.00  0.00    +0.020 A 
ATOM     20  C   UNL     1      -4.315   6.445  -1.524  0.00  0.00    +0.047 A 
ATOM     21 CL   UNL     1      -3.416   6.538  -3.006  0.00  0.00    -0.083 Cl
ATOM     22 CL   UNL     1      -3.845   4.852   2.109  0.00  0.00    -0.083 Cl
ENDBRANCH   8  15
BRANCH   1  23
ATOM     23  O   UNL     1      -2.386   1.058   0.019  0.00  0.00    -0.490 OA
BRANCH  23  24
ATOM     24  C   UNL     1      -2.292  -0.368   0.011  0.00  0.00    +0.232 C 
BRANCH  24  26
ATOM     25  C   UNL     1      -3.600  -2.493  -0.120  0.00  0.00    +0.010 C 
ATOM     26  C   UNL     1      -3.698  -0.972   0.014  0.00  0.00    +0.020 C 
ATOM     27  C   UNL     1      -4.401  -0.620   1.327  0.00  0.00    +0.010 C 
ENDBRANCH  24  26
ENDBRANCH  23  24
ENDBRANCH   1  23
TORSDOF 4
