REMARK  Name = ZINC23536945
REMARK  7 active torsions:
REMARK  status: ('A' for Active; 'I' for Inactive)
REMARK    1  A    between atoms: C_1  and  C_2
REMARK    2  A    between atoms: C_5  and  N_9
REMARK    3  A    between atoms: C_6  and  C_8
REMARK    4  A    between atoms: C_18  and  S_19
REMARK    5  A    between atoms: S_19  and  C_20
REMARK    6  A    between atoms: C_20  and  C_21
REMARK    7  A    between atoms: N_23  and  C_24
REMARK                            x       y       z     vdW  Elec       q    Type
REMARK                         _______ _______ _______ _____ _____    ______ ____
ROOT
ATOM      1  N   UNL     1       0.778   1.629  -4.664  0.00  0.00    -0.255 N 
ATOM      2  C   UNL     1       0.696   1.382  -3.343  0.00  0.00    +0.268 A 
ATOM      3  O   UNL     1       1.643   0.902  -2.744  0.00  0.00    -0.267 OA
ATOM      4  C   UNL     1      -0.517   1.693  -2.654  0.00  0.00    +0.076 A 
ATOM      5  C   UNL     1      -0.820   1.507  -1.225  0.00  0.00    -0.023 A 
ATOM      6  C   UNL     1      -2.041   1.881  -0.810  0.00  0.00    -0.004 A 
ATOM      7  S   UNL     1      -2.857   2.492  -2.267  0.00  0.00    -0.073 S 
ATOM      8  C   UNL     1      -1.545   2.243  -3.434  0.00  0.00    +0.117 A 
ATOM      9  N   UNL     1      -1.403   2.463  -4.737  0.00  0.00    -0.215 NA
ATOM     10  C   UNL     1      -0.275   2.167  -5.350  0.00  0.00    +0.178 A 
ATOM     11  C   UNL     1      -2.236   1.649   0.664  0.00  0.00    +0.043 C 
ATOM     12  C   UNL     1      -0.805   1.472   1.222  0.00  0.00    +0.010 C 
ATOM     13  C   UNL     1      -0.048   0.962  -0.020  0.00  0.00    +0.037 C 
ENDROOT
BRANCH   1  18
ATOM     14  C   UNL     1       5.577   0.409  -7.437  0.00  0.00    +0.044 C 
ATOM     15  C   UNL     1       4.302   0.733  -6.701  0.00  0.00    -0.050 A 
ATOM     16  C   UNL     1       3.306  -0.220  -6.594  0.00  0.00    +0.005 A 
ATOM     17  C   UNL     1       2.137   0.074  -5.920  0.00  0.00    +0.027 A 
ATOM     18  C   UNL     1       1.963   1.327  -5.349  0.00  0.00    +0.055 A 
ATOM     19  C   UNL     1       2.963   2.284  -5.462  0.00  0.00    -0.026 A 
ATOM     20  C   UNL     1       4.132   1.982  -6.133  0.00  0.00    +0.008 A 
ATOM     21  C   UNL     1       2.775   3.647  -4.848  0.00  0.00    +0.046 C 
ENDBRANCH   1  18
BRANCH  10  22
ATOM     22  S   UNL     1      -0.121   2.471  -7.079  0.00  0.00    -0.078 S 
BRANCH  22  23
ATOM     23  C   UNL     1      -1.759   3.158  -7.425  0.00  0.00    +0.173 C 
BRANCH  23  24
ATOM     24  C   UNL     1      -1.861   3.503  -8.888  0.00  0.00    +0.228 C 
ATOM     25  O   UNL     1      -0.918   3.304  -9.625  0.00  0.00    -0.275 OA
ATOM     26  N   UNL     1      -2.999   4.032  -9.378  0.00  0.00    -0.282 N 
ATOM     27  H   UNL     1      -3.877   4.148  -8.726  0.00  0.00    +0.155 HD
BRANCH  26  28
ATOM     28  C   UNL     1      -3.064   4.435 -10.718  0.00  0.00    +0.071 A 
ATOM     29  C   UNL     1      -2.367   3.737 -11.700  0.00  0.00    +0.028 A 
ATOM     30  C   UNL     1      -2.467   4.170 -13.012  0.00  0.00    +0.022 A 
ATOM     31  C   UNL     1      -3.240   5.279 -13.300  0.00  0.00    +0.112 A 
ATOM     32  N   UNL     1      -3.885   5.922 -12.347  0.00  0.00    -0.242 NA
ATOM     33  C   UNL     1      -3.821   5.541 -11.086  0.00  0.00    +0.150 A 
ATOM     34 CL   UNL     1      -4.692   6.428  -9.874  0.00  0.00    -0.060 Cl
ENDBRANCH  26  28
ENDBRANCH  23  24
ENDBRANCH  22  23
ENDBRANCH  10  22
TORSDOF 5
