REMARK  Name = ZINC15066272
REMARK  9 active torsions:
REMARK  status: ('A' for Active; 'I' for Inactive)
REMARK    1  A    between atoms: C_1  and  C_2
REMARK    2  A    between atoms: C_2  and  C_3
REMARK    3  A    between atoms: C_2  and  C_4
REMARK    4  A    between atoms: C_2  and  C_5
REMARK    5  A    between atoms: C_8  and  C_11
REMARK    6  A    between atoms: C_11  and  C_13
REMARK    7  A    between atoms: C_19  and  C_20
REMARK    8  A    between atoms: C_19  and  N_64
REMARK    9  A    between atoms: C_23  and  N_26
REMARK                            x       y       z     vdW  Elec       q    Type
REMARK                         _______ _______ _______ _____ _____    ______ ____
ROOT
ATOM      1  C   UNL     1       1.280   3.534  -0.174  0.00  0.00    +0.044 C 
ATOM      2  C   UNL     1       0.479   4.129   0.987  0.00  0.00    +0.008 C 
ATOM      3  C   UNL     1      -0.920   3.506   1.004  0.00  0.00    -0.018 C 
ATOM      4  C   UNL     1      -0.794   1.986   1.127  0.00  0.00    -0.078 C 
ATOM      5  C   UNL     1       1.341   2.013  -0.018  0.00  0.00    -0.067 C 
ATOM      6  N   UNL     1      -0.035   1.472  -0.033  0.00  0.00    +0.383 N 
ATOM      7  H   UNL     1      -0.501   1.774  -0.897  0.00  0.00    -0.081 HD
ENDROOT
BRANCH   1   8
ATOM      8  C   UNL     1       2.677   4.097  -0.164  0.00  0.00    +0.164 C 
ATOM      9  O   UNL     1       3.571   3.491   0.388  0.00  0.00    -0.292 OA
BRANCH   8  13
ATOM     10  C   UNL     1       3.484   7.804  -2.061  0.00  0.00    -0.042 A 
ATOM     11  C   UNL     1       4.507   7.116  -1.433  0.00  0.00    +0.005 A 
ATOM     12  C   UNL     1       4.253   5.910  -0.814  0.00  0.00    +0.011 A 
ATOM     13  C   UNL     1       2.957   5.384  -0.822  0.00  0.00    +0.018 A 
ATOM     14  C   UNL     1       1.930   6.083  -1.463  0.00  0.00    +0.011 A 
ATOM     15  C   UNL     1       2.199   7.290  -2.073  0.00  0.00    +0.005 A 
BRANCH  10  17
ATOM     16  C   UNL     1       4.811   8.913  -3.838  0.00  0.00    +0.015 C 
ATOM     17  C   UNL     1       3.770   9.121  -2.736  0.00  0.00    -0.013 C 
ATOM     18  C   UNL     1       2.481   9.671  -3.349  0.00  0.00    +0.015 C 
ATOM     19  C   UNL     1       4.310  10.115  -1.706  0.00  0.00    +0.015 C 
ENDBRANCH  10  17
ENDBRANCH   8  13
ENDBRANCH   1   8
BRANCH   6  20
ATOM     20  C   UNL     1       0.002  -0.004   0.002  0.00  0.00    -0.043 C 
BRANCH  20  21
ATOM     21  C   UNL     1      -1.388  -0.527   0.259  0.00  0.00    -0.064 A 
ATOM     22  C   UNL     1      -1.808  -0.760   1.556  0.00  0.00    +0.003 A 
ATOM     23  C   UNL     1      -3.083  -1.235   1.795  0.00  0.00    +0.024 A 
ATOM     24  C   UNL     1      -3.939  -1.487   0.731  0.00  0.00    +0.038 A 
ATOM     25  C   UNL     1      -3.513  -1.256  -0.570  0.00  0.00    +0.024 A 
ATOM     26  C   UNL     1      -2.238  -0.777  -0.802  0.00  0.00    +0.003 A 
BRANCH  24  27
ATOM     27  N   UNL     1      -5.230  -1.972   0.970  0.00  0.00    -0.254 N 
ATOM     28  C   UNL     1      -5.760  -2.375   2.281  0.00  0.00    +0.134 C 
ATOM     29  C   UNL     1      -7.204  -2.817   1.976  0.00  0.00    +0.125 C 
ATOM     30  N   UNL     1      -7.332  -2.625   0.524  0.00  0.00    -0.297 N 
ATOM     31  C   UNL     1      -6.178  -2.148   0.040  0.00  0.00    +0.307 C 
ATOM     32  O   UNL     1      -6.006  -1.896  -1.137  0.00  0.00    -0.252 OA
ATOM     33  H   UNL     1      -8.126  -2.814  -0.000  0.00  0.00    +0.150 HD
ENDBRANCH  24  27
ENDBRANCH  20  21
ENDBRANCH   6  20
TORSDOF 6
