REMARK  Name = ZINC35730561
REMARK  8 active torsions:
REMARK  status: ('A' for Active; 'I' for Inactive)
REMARK    1  A    between atoms: C_1  and  C_2
REMARK    2  A    between atoms: C_7  and  C_9
REMARK    3  A    between atoms: C_7  and  C_10
REMARK    4  A    between atoms: C_13  and  C_15
REMARK    5  A    between atoms: C_18  and  N_21
REMARK    6  A    between atoms: N_21  and  C_22
REMARK    7  A    between atoms: N_32  and  C_33
REMARK    8  A    between atoms: C_33  and  C_34
REMARK                            x       y       z     vdW  Elec       q    Type
REMARK                         _______ _______ _______ _____ _____    ______ ____
ROOT
ATOM      1  N   UNL     1       4.491  -1.821  -6.131  0.00  0.00    -0.322 N 
ATOM      2  H   UNL     1       4.653  -2.449  -6.853  0.00  0.00    +0.148 HD
ENDROOT
BRANCH   1   3
ATOM      3  C   UNL     1       5.423  -0.715  -5.899  0.00  0.00    +0.194 C 
ATOM      4  C   UNL     1       5.820  -0.087  -7.212  0.00  0.00    +0.003 A 
ATOM      5  C   UNL     1       5.110   0.540  -8.209  0.00  0.00    +0.008 A 
ATOM      6  C   UNL     1       5.768   1.026  -9.326  0.00  0.00    +0.000 A 
ATOM      7  C   UNL     1       7.140   0.882  -9.443  0.00  0.00    +0.001 A 
ATOM      8  C   UNL     1       7.861   0.254  -8.449  0.00  0.00    +0.013 A 
ATOM      9  C   UNL     1       7.204  -0.238  -7.319  0.00  0.00    +0.043 A 
ATOM     10  C   UNL     1       7.688  -0.941  -6.115  0.00  0.00    +0.249 C 
ATOM     11  O   UNL     1       8.849  -1.227  -5.898  0.00  0.00    -0.270 OA
ATOM     12  N   UNL     1       6.660  -1.217  -5.292  0.00  0.00    -0.271 N 
BRANCH  12  13
ATOM     13  C   UNL     1       6.760  -1.905  -4.002  0.00  0.00    +0.145 C 
BRANCH  13  14
ATOM     14  C   UNL     1       6.608  -3.390  -4.212  0.00  0.00    -0.030 A 
ATOM     15  C   UNL     1       5.353  -3.969  -4.169  0.00  0.00    +0.008 A 
ATOM     16  C   UNL     1       5.212  -5.330  -4.362  0.00  0.00    +0.038 A 
ATOM     17  C   UNL     1       6.329  -6.114  -4.599  0.00  0.00    +0.123 A 
ATOM     18  C   UNL     1       7.585  -5.533  -4.642  0.00  0.00    +0.038 A 
ATOM     19  C   UNL     1       7.723  -4.171  -4.454  0.00  0.00    +0.008 A 
ATOM     20  F   UNL     1       6.192  -7.445  -4.787  0.00  0.00    -0.205 F 
ENDBRANCH  13  14
ENDBRANCH  12  13
ENDBRANCH   1   3
BRANCH   1  24
ATOM     21  C   UNL     1       1.148  -2.273  -3.694  0.00  0.00    +0.037 A 
ATOM     22  C   UNL     1       1.997  -1.176  -3.522  0.00  0.00    +0.015 A 
ATOM     23  C   UNL     1       3.102  -1.029  -4.330  0.00  0.00    +0.024 A 
ATOM     24  C   UNL     1       3.374  -1.972  -5.317  0.00  0.00    +0.029 A 
ATOM     25  C   UNL     1       2.531  -3.066  -5.490  0.00  0.00    +0.024 A 
ATOM     26  C   UNL     1       1.428  -3.221  -4.682  0.00  0.00    +0.015 A 
BRANCH  21  38
ATOM     27  C   UNL     1      -3.153  -4.617  -6.011  0.00  0.00    +0.013 C 
ATOM     28  C   UNL     1      -2.925  -3.608  -4.874  0.00  0.00    -0.014 C 
ATOM     29  C   UNL     1      -3.177  -4.231  -3.473  0.00  0.00    +0.030 C 
ATOM     30  C   UNL     1      -2.423  -3.201  -2.594  0.00  0.00    +0.077 C 
ATOM     31  C   UNL     1      -3.296  -1.952  -2.510  0.00  0.00    +0.029 C 
ATOM     32  C   UNL     1      -3.672  -1.373  -3.862  0.00  0.00    -0.033 C 
ATOM     33  C   UNL     1      -3.819  -2.375  -4.992  0.00  0.00    +0.014 C 
ATOM     34  C   UNL     1      -2.672  -0.277  -4.255  0.00  0.00    +0.011 C 
ATOM     35  C   UNL     1      -5.044  -0.672  -3.692  0.00  0.00    +0.011 C 
ATOM     36  N   UNL     1      -1.195  -2.885  -3.351  0.00  0.00    -0.294 N 
ATOM     37  C   UNL     1      -1.450  -3.160  -4.773  0.00  0.00    +0.115 C 
ATOM     38  C   UNL     1      -0.036  -2.433  -2.829  0.00  0.00    +0.247 C 
ATOM     39  O   UNL     1       0.032  -2.158  -1.647  0.00  0.00    -0.270 OA
ENDBRANCH  21  38
ENDBRANCH   1  24
TORSDOF 5
