REMARK  Name = ZINC13128467
REMARK  9 active torsions:
REMARK  status: ('A' for Active; 'I' for Inactive)
REMARK    1  A    between atoms: C_1  and  C_2
REMARK    2  A    between atoms: C_2  and  C_32
REMARK    3  A    between atoms: N_5  and  N_9
REMARK    4  A    between atoms: C_10  and  C_12
REMARK    5  A    between atoms: C_12  and  O_13
REMARK    6  A    between atoms: O_13  and  C_14
REMARK    7  A    between atoms: C_14  and  C_16
REMARK    8  A    between atoms: N_18  and  C_26
REMARK    9  A    between atoms: C_20  and  C_21
REMARK                            x       y       z     vdW  Elec       q    Type
REMARK                         _______ _______ _______ _____ _____    ______ ____
ROOT
ATOM      1  C   UNL     1      -3.241   7.415   0.059  0.00  0.00    +0.329 C 
ENDROOT
BRANCH   1   3
ATOM      2  N   UNL     1      -2.618   9.809   0.069  0.00  0.00    -0.221 N 
ATOM      3  C   UNL     1      -2.218   8.522   0.060  0.00  0.00    +0.267 C 
ATOM      4  O   UNL     1      -1.036   8.254   0.052  0.00  0.00    -0.271 OA
ATOM      5  H   UNL     1      -3.564  10.023   0.075  0.00  0.00    +0.174 HD
BRANCH   2  10
ATOM      6  C   UNL     1      -0.793  14.008  -0.666  0.00  0.00    +0.047 C 
ATOM      7  C   UNL     1      -0.302  12.565  -0.540  0.00  0.00    +0.137 C 
ATOM      8  C   UNL     1      -1.371  11.596  -1.005  0.00  0.00    +0.267 C 
ATOM      9  O   UNL     1      -1.859  11.519  -2.112  0.00  0.00    -0.271 OA
ATOM     10  N   UNL     1      -1.667  10.838   0.070  0.00  0.00    -0.137 N 
ATOM     11  C   UNL     1      -0.945  11.193   1.138  0.00  0.00    +0.327 C 
ATOM     12  O   UNL     1      -1.038  10.658   2.225  0.00  0.00    -0.251 OA
ATOM     13  N   UNL     1      -0.101  12.207   0.874  0.00  0.00    -0.280 N 
ATOM     14  H   UNL     1       0.516  12.624   1.496  0.00  0.00    +0.152 HD
BRANCH   7  15
ATOM     15  C   UNL     1       0.970  12.366  -1.323  0.00  0.00    -0.015 A 
ATOM     16  C   UNL     1       0.915  11.909  -2.627  0.00  0.00    +0.006 A 
ATOM     17  C   UNL     1       2.082  11.731  -3.347  0.00  0.00    +0.000 A 
ATOM     18  C   UNL     1       3.304  12.001  -2.760  0.00  0.00    +0.000 A 
ATOM     19  C   UNL     1       3.359  12.452  -1.454  0.00  0.00    +0.000 A 
ATOM     20  C   UNL     1       2.192  12.635  -0.736  0.00  0.00    +0.006 A 
ENDBRANCH   7  15
ENDBRANCH   2  10
ENDBRANCH   1   3
BRANCH   1  21
ATOM     21  O   UNL     1      -2.565   6.131   0.048  0.00  0.00    -0.452 OA
BRANCH  21  22
ATOM     22  C   UNL     1      -3.342   5.029   0.046  0.00  0.00    +0.343 C 
ATOM     23  O   UNL     1      -4.552   5.140   0.054  0.00  0.00    -0.245 OA
BRANCH  22  24
ATOM     24  C   UNL     1      -2.726   3.695   0.036  0.00  0.00    +0.105 A 
ATOM     25  C   UNL     1      -1.375   3.406   0.033  0.00  0.00    +0.130 A 
ATOM     26  N   UNL     1      -1.238   2.070   0.019  0.00  0.00    -0.238 N 
ATOM     27  N   UNL     1      -2.499   1.467   0.022  0.00  0.00    -0.165 NA
ATOM     28  C   UNL     1      -3.424   2.403   0.032  0.00  0.00    +0.114 A 
BRANCH  26  29
ATOM     29  C   UNL     1      -0.017   1.385   0.010  0.00  0.00    +0.065 A 
ATOM     30  C   UNL     1       1.178   2.092   0.002  0.00  0.00    +0.028 A 
ATOM     31  C   UNL     1       2.381   1.414  -0.013  0.00  0.00    +0.002 A 
ATOM     32  C   UNL     1       2.396   0.031  -0.021  0.00  0.00    +0.000 A 
ATOM     33  C   UNL     1       1.208  -0.677  -0.013  0.00  0.00    +0.002 A 
ATOM     34  C   UNL     1       0.002  -0.004   0.002  0.00  0.00    +0.028 A 
ENDBRANCH  26  29
BRANCH  28  35
ATOM     35  C   UNL     1      -4.886   2.194   0.039  0.00  0.00    +0.040 A 
ATOM     36  C   UNL     1      -5.620   1.213  -0.573  0.00  0.00    +0.018 A 
ATOM     37  C   UNL     1      -6.989   1.221  -0.423  0.00  0.00    +0.008 A 
ATOM     38  C   UNL     1      -7.568   2.196   0.324  0.00  0.00    +0.046 A 
ATOM     39  S   UNL     1      -6.155   3.150   0.853  0.00  0.00    -0.095 S 
ENDBRANCH  28  35
ENDBRANCH  22  24
ENDBRANCH  21  22
ENDBRANCH   1  21
TORSDOF 8
