REMARK  Name = ZINC36290391
REMARK  5 active torsions:
REMARK  status: ('A' for Active; 'I' for Inactive)
REMARK    1  A    between atoms: C_1  and  C_2
REMARK    2  A    between atoms: C_2  and  C_3
REMARK    3  A    between atoms: C_2  and  C_4
REMARK    4  A    between atoms: C_9  and  N_21
REMARK    5  A    between atoms: C_10  and  C_12
REMARK                            x       y       z     vdW  Elec       q    Type
REMARK                         _______ _______ _______ _____ _____    ______ ____
ROOT
ATOM      1  C   UNL     1       0.902  -0.282  -1.282  0.00  0.00    +0.036 A 
ATOM      2  C   UNL     1       2.057  -0.938  -1.185  0.00  0.00    +0.070 A 
ATOM      3  S   UNL     1       2.569  -1.043  -2.893  0.00  0.00    -0.057 S 
ATOM      4  C   UNL     1       1.183  -0.192  -3.609  0.00  0.00    +0.179 A 
ATOM      5  N   UNL     1       0.415   0.115  -2.511  0.00  0.00    -0.278 N 
ATOM      6  C   UNL     1      -0.695   0.782  -3.017  0.00  0.00    +0.129 A 
ATOM      7  C   UNL     1      -0.556   0.844  -4.370  0.00  0.00    +0.112 A 
ATOM      8  N   UNL     1       0.617   0.240  -4.697  0.00  0.00    -0.219 NA
ENDROOT
BRANCH   7   9
ATOM      9  C   UNL     1      -1.508   1.469  -5.317  0.00  0.00    +0.007 A 
ATOM     10  C   UNL     1      -2.880   1.413  -5.068  0.00  0.00    +0.014 A 
ATOM     11  C   UNL     1      -3.766   1.995  -5.951  0.00  0.00    +0.050 A 
ATOM     12  C   UNL     1      -3.298   2.637  -7.087  0.00  0.00    +0.166 A 
ATOM     13  C   UNL     1      -1.929   2.696  -7.341  0.00  0.00    +0.167 A 
ATOM     14  C   UNL     1      -1.036   2.119  -6.456  0.00  0.00    +0.059 A 
ATOM     15  O   UNL     1      -1.731   3.375  -8.510  0.00  0.00    -0.453 OA
ATOM     16  C   UNL     1      -3.007   3.374  -9.176  0.00  0.00    +0.466 C 
ATOM     17  O   UNL     1      -3.956   3.279  -8.097  0.00  0.00    -0.453 OA
ENDBRANCH   7   9
BRANCH   1  19
ATOM     18  C   UNL     1      -1.066  -0.942   0.074  0.00  0.00    +0.014 C 
ATOM     19  C   UNL     1       0.114   0.025  -0.035  0.00  0.00    +0.031 C 
ATOM     20  C   UNL     1       1.017  -0.131   1.190  0.00  0.00    +0.014 C 
ENDBRANCH   1  19
BRANCH   6  21
ATOM     21  N   UNL     1      -1.761   1.295  -2.272  0.00  0.00    -0.342 N 
ATOM     22  H   UNL     1      -1.822   1.110  -1.322  0.00  0.00    +0.144 HD
ATOM     23  H   UNL     1      -2.439   1.836  -2.706  0.00  0.00    +0.144 HD
ENDBRANCH   6  21
TORSDOF 3
