REMARK  Name = ZINC16981477
REMARK  12 active torsions:
REMARK  status: ('A' for Active; 'I' for Inactive)
REMARK    1  A    between atoms: C_1  and  C_2
REMARK    2  A    between atoms: C_8  and  C_10
REMARK    3  A    between atoms: C_10  and  C_12
REMARK    4  A    between atoms: C_10  and  S_13
REMARK    5  A    between atoms: S_13  and  C_14
REMARK    6  A    between atoms: C_18  and  O_35
REMARK    7  A    between atoms: C_19  and  O_33
REMARK    8  A    between atoms: N_24  and  C_25
REMARK    9  A    between atoms: C_25  and  C_26
REMARK   10  A    between atoms: C_26  and  C_27
REMARK   11  A    between atoms: O_33  and  C_34
REMARK   12  A    between atoms: O_35  and  C_36
REMARK                            x       y       z     vdW  Elec       q    Type
REMARK                         _______ _______ _______ _____ _____    ______ ____
ROOT
ATOM      1  C   UNL     1       1.526  -6.728   0.575  0.00  0.00    +0.173 A 
ATOM      2  N   UNL     1       2.778  -6.638   0.202  0.00  0.00    -0.223 NA
ATOM      3  C   UNL     1       3.597  -7.717   0.203  0.00  0.00    +0.083 A 
ATOM      4  C   UNL     1       4.933  -7.618  -0.190  0.00  0.00    +0.078 A 
ATOM      5  C   UNL     1       5.735  -8.742  -0.181  0.00  0.00    +0.164 A 
ATOM      6  C   UNL     1       5.223  -9.981   0.217  0.00  0.00    +0.162 A 
ATOM      7  C   UNL     1       3.906 -10.099   0.609  0.00  0.00    +0.064 A 
ATOM      8  C   UNL     1       3.083  -8.971   0.605  0.00  0.00    +0.069 A 
ATOM      9  C   UNL     1       1.675  -9.043   1.013  0.00  0.00    +0.263 A 
ATOM     10  O   UNL     1       1.175 -10.095   1.370  0.00  0.00    -0.267 OA
ATOM     11  N   UNL     1       0.952  -7.900   0.977  0.00  0.00    -0.287 N 
ENDROOT
BRANCH   6  12
ATOM     12  O   UNL     1       6.029 -11.077   0.219  0.00  0.00    -0.491 OA
ATOM     13  C   UNL     1       5.444 -12.312   0.637  0.00  0.00    +0.277 C 
ENDBRANCH   6  12
BRANCH   5  14
ATOM     14  O   UNL     1       7.035  -8.643  -0.563  0.00  0.00    -0.491 OA
ATOM     15  C   UNL     1       7.499  -7.351  -0.959  0.00  0.00    +0.277 C 
ENDBRANCH   5  14
BRANCH   1  16
ATOM     16  S   UNL     1       0.534  -5.272   0.549  0.00  0.00    -0.075 S 
BRANCH  16  17
ATOM     17  C   UNL     1       1.754  -4.071  -0.039  0.00  0.00    +0.137 C 
ATOM     18  C   UNL     1       2.175  -4.429  -1.466  0.00  0.00    +0.029 C 
BRANCH  17  26
ATOM     19  C   UNL     1      -1.237   2.232   0.020  0.00  0.00    +0.089 C 
ATOM     20  C   UNL     1      -0.016   1.348   0.009  0.00  0.00    +0.136 A 
ATOM     21  C   UNL     1       0.002  -0.004   0.002  0.00  0.00    +0.091 A 
ATOM     22  C   UNL     1       1.385  -0.328  -0.013  0.00  0.00    +0.168 A 
ATOM     23  N   UNL     1       2.026   0.811  -0.013  0.00  0.00    -0.063 NA
ATOM     24  O   UNL     1       1.263   1.749  -0.001  0.00  0.00    -0.358 OA
ATOM     25  N   UNL     1       1.946  -1.605  -0.026  0.00  0.00    -0.267 N 
ATOM     26  C   UNL     1       1.148  -2.691  -0.025  0.00  0.00    +0.231 C 
ATOM     27  O   UNL     1      -0.057  -2.559  -0.013  0.00  0.00    -0.274 OA
ATOM     28  H   UNL     1       2.910  -1.711  -0.035  0.00  0.00    +0.156 HD
ENDBRANCH  17  26
ENDBRANCH  16  17
ENDBRANCH   1  16
BRANCH  11  29
ATOM     29  C   UNL     1      -0.458  -7.920   1.375  0.00  0.00    +0.131 C 
BRANCH  29  30
ATOM     30  C   UNL     1      -1.329  -8.208   0.150  0.00  0.00    +0.052 C 
BRANCH  30  31
ATOM     31  C   UNL     1      -2.779  -8.228   0.559  0.00  0.00    -0.072 C 
ATOM     32  C   UNL     1      -3.464  -7.139   0.419  0.00  0.00    -0.028 C 
ATOM     33  C   UNL     1      -4.912  -7.003   0.790  0.00  0.00    +0.027 C 
ATOM     34  C   UNL     1      -5.551  -8.385   0.939  0.00  0.00    +0.004 C 
ATOM     35  C   UNL     1      -4.652  -9.240   1.841  0.00  0.00    +0.005 C 
ATOM     36  C   UNL     1      -3.341  -9.512   1.097  0.00  0.00    +0.030 C 
ENDBRANCH  30  31
ENDBRANCH  29  30
ENDBRANCH  11  29
TORSDOF 8
