REMARK  Name = ZINC34811578
REMARK  6 active torsions:
REMARK  status: ('A' for Active; 'I' for Inactive)
REMARK    1  A    between atoms: C_6  and  C_7
REMARK    2  A    between atoms: C_7  and  N_8
REMARK    3  A    between atoms: C_14  and  C_16
REMARK    4  A    between atoms: N_18  and  C_19
REMARK    5  A    between atoms: C_19  and  C_20
REMARK    6  A    between atoms: C_20  and  C_21
REMARK                            x       y       z     vdW  Elec       q    Type
REMARK                         _______ _______ _______ _____ _____    ______ ____
ROOT
ATOM      1  N   UNL     1      -1.726  -1.017  -1.368  0.00  0.00    -0.290 N 
ATOM      2  C   UNL     1      -2.583  -0.038  -2.025  0.00  0.00    +0.132 C 
ATOM      3  C   UNL     1      -2.230   0.160  -3.498  0.00  0.00    +0.163 C 
ATOM      4  N   UNL     1      -2.088  -1.151  -4.142  0.00  0.00    -0.257 N 
ATOM      5  C   UNL     1      -1.656  -2.251  -3.429  0.00  0.00    +0.124 A 
ATOM      6  C   UNL     1      -1.628  -3.301  -4.280  0.00  0.00    +0.067 A 
ATOM      7  C   UNL     1      -2.058  -2.782  -5.522  0.00  0.00    +0.148 A 
ATOM      8  N   UNL     1      -2.312  -1.495  -5.351  0.00  0.00    -0.166 NA
ATOM      9  C   UNL     1      -1.316  -2.144  -2.000  0.00  0.00    +0.265 C 
ATOM     10  O   UNL     1      -0.704  -3.020  -1.419  0.00  0.00    -0.268 OA
ENDROOT
BRANCH   7  11
ATOM     11  C   UNL     1      -2.199  -3.539  -6.783  0.00  0.00    +0.264 C 
ATOM     12  O   UNL     1      -1.933  -4.725  -6.814  0.00  0.00    -0.268 OA
ATOM     13  N   UNL     1      -2.623  -2.915  -7.900  0.00  0.00    -0.310 N 
ATOM     14  H   UNL     1      -2.835  -1.969  -7.876  0.00  0.00    +0.149 HD
BRANCH  13  15
ATOM     15  C   UNL     1      -2.762  -3.665  -9.151  0.00  0.00    +0.109 C 
BRANCH  15  16
ATOM     16  C   UNL     1      -3.255  -2.728 -10.255  0.00  0.00    +0.055 C 
BRANCH  16  17
ATOM     17  C   UNL     1      -3.398  -3.500 -11.542  0.00  0.00    -0.027 A 
ATOM     18  C   UNL     1      -2.365  -3.512 -12.460  0.00  0.00    +0.006 A 
ATOM     19  C   UNL     1      -2.496  -4.220 -13.640  0.00  0.00    +0.020 A 
ATOM     20  C   UNL     1      -3.661  -4.918 -13.902  0.00  0.00    +0.042 A 
ATOM     21  C   UNL     1      -4.695  -4.907 -12.984  0.00  0.00    +0.040 A 
ATOM     22  C   UNL     1      -4.562  -4.202 -11.801  0.00  0.00    +0.046 A 
ATOM     23 CL   UNL     1      -5.857  -4.193 -10.645  0.00  0.00    -0.083 Cl
ATOM     24 CL   UNL     1      -3.826  -5.806 -15.385  0.00  0.00    -0.083 Cl
ENDBRANCH  16  17
ENDBRANCH  15  16
ENDBRANCH  13  15
ENDBRANCH   7  11
BRANCH   1  25
ATOM     25  C   UNL     1      -1.293  -0.775   0.011  0.00  0.00    +0.143 C 
BRANCH  25  31
ATOM     26  C   UNL     1      -0.017   1.378   0.010  0.00  0.00    +0.007 A 
ATOM     27  C   UNL     1       1.171   2.086   0.002  0.00  0.00    +0.022 A 
ATOM     28  C   UNL     1       2.378   1.412  -0.013  0.00  0.00    +0.059 A 
ATOM     29  C   UNL     1       2.397   0.027  -0.021  0.00  0.00    +0.060 A 
ATOM     30  C   UNL     1       1.208  -0.680  -0.013  0.00  0.00    +0.026 A 
ATOM     31  C   UNL     1       0.002  -0.004   0.002  0.00  0.00    -0.029 A 
ATOM     32 CL   UNL     1       3.912  -0.821  -0.040  0.00  0.00    -0.082 Cl
ATOM     33 CL   UNL     1       3.869   2.301  -0.023  0.00  0.00    -0.082 Cl
ENDBRANCH  25  31
ENDBRANCH   1  25
TORSDOF 6
