REMARK  Name = ZINC40797225
REMARK  10 active torsions:
REMARK  status: ('A' for Active; 'I' for Inactive)
REMARK    1  A    between atoms: C_1  and  C_2
REMARK    2  A    between atoms: C_2  and  N_3
REMARK    3  A    between atoms: C_11  and  C_14
REMARK    4  A    between atoms: C_11  and  C_15
REMARK    5  A    between atoms: N_17  and  C_18
REMARK    6  A    between atoms: C_19  and  C_30
REMARK    7  A    between atoms: C_20  and  C_23
REMARK    8  A    between atoms: C_30  and  O_32
REMARK    9  A    between atoms: O_32  and  C_33
REMARK   10  A    between atoms: C_33  and  C_34
REMARK                            x       y       z     vdW  Elec       q    Type
REMARK                         _______ _______ _______ _____ _____    ______ ____
ROOT
ATOM      1  C   UNL     1      -4.331   0.105  -1.113  0.00  0.00    +0.270 C 
ATOM      2  O   UNL     1      -3.896   1.142  -1.565  0.00  0.00    -0.271 OA
ATOM      3  N   UNL     1      -5.578   0.062  -0.603  0.00  0.00    -0.276 N 
ATOM      4  H   UNL     1      -5.926  -0.768  -0.242  0.00  0.00    +0.155 HD
ENDROOT
BRANCH   1  13
ATOM      5  N   UNL     1      -1.372  -0.511   0.012  0.00  0.00    -0.265 N 
ATOM      6  C   UNL     1      -2.028  -0.758   1.226  0.00  0.00    +0.078 A 
ATOM      7  C   UNL     1      -1.484  -0.318   2.423  0.00  0.00    +0.027 A 
ATOM      8  C   UNL     1      -2.150  -0.558   3.610  0.00  0.00    +0.002 A 
ATOM      9  C   UNL     1      -3.357  -1.234   3.607  0.00  0.00    +0.004 A 
ATOM     10  C   UNL     1      -3.902  -1.680   2.417  0.00  0.00    +0.047 A 
ATOM     11  C   UNL     1      -3.238  -1.448   1.224  0.00  0.00    +0.144 A 
ATOM     12  O   UNL     1      -3.749  -1.909   0.051  0.00  0.00    -0.465 OA
ATOM     13  C   UNL     1      -3.478  -1.138  -1.122  0.00  0.00    +0.258 C 
ATOM     14  C   UNL     1      -2.024  -0.741  -1.147  0.00  0.00    +0.273 C 
ATOM     15  O   UNL     1      -1.441  -0.634  -2.205  0.00  0.00    -0.270 OA
ATOM     16  C   UNL     1      -3.804  -1.969  -2.364  0.00  0.00    +0.076 C 
BRANCH   5  18
ATOM     17  C   UNL     1      -0.019   1.526   0.010  0.00  0.00    +0.025 C 
ATOM     18  C   UNL     1       0.002  -0.004   0.002  0.00  0.00    +0.110 C 
ENDBRANCH   5  18
ENDBRANCH   1  13
BRANCH   3  19
ATOM     19  C   UNL     1      -6.362   1.205  -0.595  0.00  0.00    +0.086 A 
ATOM     20  C   UNL     1      -7.653   1.345  -0.111  0.00  0.00    +0.095 A 
ATOM     21  C   UNL     1      -8.250   2.664  -0.227  0.00  0.00    +0.005 A 
ATOM     22  C   UNL     1      -7.464   3.611  -0.802  0.00  0.00    +0.056 A 
ATOM     23  S   UNL     1      -5.961   2.731  -1.164  0.00  0.00    -0.080 S 
BRANCH  21  24
ATOM     24  C   UNL     1      -9.623   2.957   0.250  0.00  0.00    -0.016 A 
ATOM     25  C   UNL     1     -10.683   2.131  -0.121  0.00  0.00    +0.010 A 
ATOM     26  C   UNL     1     -11.959   2.407   0.326  0.00  0.00    +0.020 A 
ATOM     27  C   UNL     1     -12.188   3.503   1.140  0.00  0.00    +0.041 A 
ATOM     28  C   UNL     1     -11.139   4.327   1.510  0.00  0.00    +0.020 A 
ATOM     29  C   UNL     1      -9.858   4.056   1.075  0.00  0.00    +0.010 A 
ATOM     30 CL   UNL     1     -13.795   3.846   1.698  0.00  0.00    -0.084 Cl
ENDBRANCH  21  24
BRANCH  20  31
ATOM     31  C   UNL     1      -8.377   0.223   0.487  0.00  0.00    +0.342 C 
ATOM     32  O   UNL     1      -8.295   0.013   1.682  0.00  0.00    -0.245 OA
BRANCH  31  33
ATOM     33  O   UNL     1      -9.136  -0.579  -0.288  0.00  0.00    -0.461 OA
BRANCH  33  34
ATOM     34  C   UNL     1      -9.815  -1.655   0.361  0.00  0.00    +0.229 C 
ATOM     35  C   UNL     1     -10.619  -2.448  -0.671  0.00  0.00    +0.048 C 
ENDBRANCH  33  34
ENDBRANCH  31  33
ENDBRANCH  20  31
ENDBRANCH   3  19
TORSDOF 7
