REMARK  Name = ZINC32754851
REMARK  14 active torsions:
REMARK  status: ('A' for Active; 'I' for Inactive)
REMARK    1  A    between atoms: C_1  and  C_2
REMARK    2  A    between atoms: C_2  and  N_3
REMARK    3  A    between atoms: N_3  and  C_4
REMARK    4  A    between atoms: N_3  and  C_24
REMARK    5  A    between atoms: C_4  and  C_5
REMARK    6  A    between atoms: C_6  and  C_19
REMARK    7  A    between atoms: C_7  and  C_13
REMARK    8  A    between atoms: C_16  and  C_18
REMARK    9  A    between atoms: C_19  and  O_21
REMARK   10  A    between atoms: O_21  and  C_22
REMARK   11  A    between atoms: C_22  and  C_23
REMARK   12  A    between atoms: C_24  and  C_25
REMARK   13  A    between atoms: N_27  and  C_28
REMARK   14  A    between atoms: C_33  and  C_34
REMARK                            x       y       z     vdW  Elec       q    Type
REMARK                         _______ _______ _______ _____ _____    ______ ____
ROOT
ATOM      1  C   UNL     1      -2.262  -6.474  -0.781  0.00  0.00    +0.008 C 
ATOM      2  C   UNL     1      -3.050  -6.772   0.275  0.00  0.00    +0.079 C 
ATOM      3  C   UNL     1      -4.474  -7.206  -0.007  0.00  0.00    +0.179 C 
ATOM      4  N   UNL     1      -4.885  -7.268  -1.420  0.00  0.00    -0.285 N 
ATOM      5  C   UNL     1      -3.982  -6.939  -2.365  0.00  0.00    +0.304 C 
ATOM      6  O   UNL     1      -4.312  -6.987  -3.534  0.00  0.00    -0.252 OA
ATOM      7  N   UNL     1      -2.736  -6.557  -2.059  0.00  0.00    -0.274 N 
ATOM      8  H   UNL     1      -5.907  -7.577  -1.682  0.00  0.00    +0.151 HD
ATOM      9  H   UNL     1      -2.082  -6.301  -2.905  0.00  0.00    +0.156 HD
ENDROOT
BRANCH   3  10
ATOM     10  C   UNL     1      -4.670  -8.574   0.594  0.00  0.00    +0.130 A 
ATOM     11  C   UNL     1      -5.272  -8.839   1.767  0.00  0.00    +0.047 A 
ATOM     12  C   UNL     1      -5.237 -10.242   1.939  0.00  0.00    +0.045 A 
ATOM     13  C   UNL     1      -4.615 -10.751   0.860  0.00  0.00    +0.102 A 
ATOM     14  O   UNL     1      -4.279  -9.736   0.046  0.00  0.00    -0.463 OA
ATOM     15  C   UNL     1      -4.347 -12.211   0.605  0.00  0.00    +0.086 C 
ENDBRANCH   3  10
BRANCH   2  16
ATOM     16  C   UNL     1      -2.562  -6.682   1.600  0.00  0.00    +0.339 C 
ATOM     17  O   UNL     1      -1.455  -6.222   1.811  0.00  0.00    -0.245 OA
BRANCH  16  18
ATOM     18  O   UNL     1      -3.324  -7.105   2.630  0.00  0.00    -0.462 OA
BRANCH  18  19
ATOM     19  C   UNL     1      -2.768  -6.984   3.941  0.00  0.00    +0.229 C 
ATOM     20  C   UNL     1      -3.770  -7.511   4.970  0.00  0.00    +0.048 C 
ENDBRANCH  18  19
ENDBRANCH  16  18
ENDBRANCH   2  16
BRANCH   1  21
ATOM     21  C   UNL     1      -0.839  -6.038  -0.544  0.00  0.00    -0.026 C 
BRANCH  21  22
ATOM     22  N   UNL     1      -0.806  -4.591  -0.292  0.00  0.00    +0.389 N 
ATOM     23  H   UNL     1      -1.504  -4.375   0.530  0.00  0.00    -0.081 HD
BRANCH  22  25
ATOM     24  C   UNL     1       0.807  -4.660   1.549  0.00  0.00    -0.017 C 
ATOM     25  C   UNL     1       0.534  -4.160   0.129  0.00  0.00    -0.081 C 
ENDBRANCH  22  25
BRANCH  22  26
ATOM     26  C   UNL     1      -1.254  -3.841  -1.473  0.00  0.00    +0.019 C 
BRANCH  26  27
ATOM     27  C   UNL     1      -1.442  -2.391  -1.106  0.00  0.00    +0.201 C 
ATOM     28  O   UNL     1      -1.225  -2.020   0.028  0.00  0.00    -0.278 OA
ATOM     29  N   UNL     1      -1.852  -1.508  -2.037  0.00  0.00    -0.287 N 
ATOM     30  H   UNL     1      -2.117  -1.856  -3.046  0.00  0.00    +0.155 HD
BRANCH  29  31
ATOM     31  C   UNL     1      -1.940  -0.147  -1.720  0.00  0.00    +0.038 A 
ATOM     32  C   UNL     1      -2.318   0.246  -0.444  0.00  0.00    +0.043 A 
ATOM     33  C   UNL     1      -2.405   1.591  -0.134  0.00  0.00    +0.043 A 
ATOM     34  C   UNL     1      -2.114   2.543  -1.096  0.00  0.00    +0.020 A 
ATOM     35  C   UNL     1      -1.736   2.153  -2.367  0.00  0.00    +0.006 A 
ATOM     36  C   UNL     1      -1.649   0.811  -2.682  0.00  0.00    -0.029 A 
ATOM     37  C   UNL     1      -1.238   0.387  -4.069  0.00  0.00    +0.045 C 
ATOM     38 CL   UNL     1      -2.885   2.085   1.459  0.00  0.00    -0.083 Cl
ENDBRANCH  29  31
ENDBRANCH  26  27
ENDBRANCH  22  26
ENDBRANCH  21  22
ENDBRANCH   1  21
TORSDOF 10
