REMARK  Name = ZINC38915541
REMARK  6 active torsions:
REMARK  status: ('A' for Active; 'I' for Inactive)
REMARK    1  A    between atoms: C_4  and  C_7
REMARK    2  A    between atoms: C_7  and  O_8
REMARK    3  A    between atoms: O_8  and  C_9
REMARK    4  A    between atoms: C_12  and  C_15
REMARK    5  A    between atoms: N_16  and  N_17
REMARK    6  A    between atoms: C_18  and  C_24
REMARK                            x       y       z     vdW  Elec       q    Type
REMARK                         _______ _______ _______ _____ _____    ______ ____
ROOT
ATOM      1  C   UNL     1       9.112  -3.485   1.987  0.00  0.00    +0.138 C 
ATOM      2  N   UNL     1       9.440  -3.914   3.168  0.00  0.00    -0.183 NA
ENDROOT
BRANCH   2   3
ATOM      3  N   UNL     1      10.598  -4.684   3.337  0.00  0.00    -0.172 N 
ATOM      4  C   UNL     1      11.188  -5.162   4.601  0.00  0.00    +0.265 C 
ATOM      5  N   UNL     1      12.380  -5.910   4.173  0.00  0.00    -0.189 NA
ATOM      6  N   UNL     1      12.443  -5.860   2.942  0.00  0.00    -0.219 N 
ATOM      7  C   UNL     1      11.423  -5.160   2.378  0.00  0.00    +0.174 C 
ATOM      8  S   UNL     1      11.216  -4.913   0.696  0.00  0.00    -0.015 S 
ATOM      9  H   UNL     1      13.147  -6.283   2.427  0.00  0.00    +0.176 HD
BRANCH   4  10
ATOM     10  C   UNL     1      11.576  -3.999   5.478  0.00  0.00    +0.016 A 
ATOM     11  C   UNL     1      10.931  -2.784   5.338  0.00  0.00    +0.010 A 
ATOM     12  C   UNL     1      11.287  -1.717   6.141  0.00  0.00    +0.020 A 
ATOM     13  C   UNL     1      12.287  -1.864   7.086  0.00  0.00    +0.042 A 
ATOM     14  C   UNL     1      12.932  -3.080   7.226  0.00  0.00    +0.040 A 
ATOM     15  C   UNL     1      12.572  -4.149   6.425  0.00  0.00    +0.049 A 
ATOM     16 CL   UNL     1      13.377  -5.677   6.605  0.00  0.00    -0.083 Cl
ATOM     17 CL   UNL     1      12.733  -0.523   8.094  0.00  0.00    -0.083 Cl
ENDBRANCH   4  10
ENDBRANCH   2   3
BRANCH   1  21
ATOM     18  C   UNL     1       5.451  -1.412   1.423  0.00  0.00    +0.121 A 
ATOM     19  C   UNL     1       6.297  -1.629   0.343  0.00  0.00    +0.046 A 
ATOM     20  C   UNL     1       7.487  -2.301   0.521  0.00  0.00    +0.013 A 
ATOM     21  C   UNL     1       7.841  -2.765   1.792  0.00  0.00    -0.005 A 
ATOM     22  C   UNL     1       6.987  -2.543   2.875  0.00  0.00    +0.013 A 
ATOM     23  C   UNL     1       5.802  -1.866   2.688  0.00  0.00    +0.046 A 
BRANCH  18  24
ATOM     24  O   UNL     1       4.279  -0.749   1.243  0.00  0.00    -0.487 OA
BRANCH  24  25
ATOM     25  C   UNL     1       3.980  -0.309  -0.084  0.00  0.00    +0.264 C 
BRANCH  25  29
ATOM     26  C   UNL     1       0.213   1.705  -0.104  0.00  0.00    +0.000 A 
ATOM     27  C   UNL     1       1.377   2.417   0.119  0.00  0.00    +0.000 A 
ATOM     28  C   UNL     1       2.596   1.765   0.126  0.00  0.00    +0.007 A 
ATOM     29  C   UNL     1       2.651   0.401  -0.090  0.00  0.00    -0.010 A 
ATOM     30  C   UNL     1       1.487  -0.311  -0.312  0.00  0.00    +0.007 A 
ATOM     31  C   UNL     1       0.269   0.341  -0.320  0.00  0.00    +0.000 A 
ENDBRANCH  25  29
ENDBRANCH  24  25
ENDBRANCH  18  24
ENDBRANCH   1  21
TORSDOF 6
