REMARK  Name = ZINC40024999
REMARK  7 active torsions:
REMARK  status: ('A' for Active; 'I' for Inactive)
REMARK    1  A    between atoms: C_1  and  C_2
REMARK    2  A    between atoms: N_11  and  C_15
REMARK    3  A    between atoms: C_15  and  C_16
REMARK    4  A    between atoms: C_16  and  C_17
REMARK    5  A    between atoms: N_19  and  C_20
REMARK    6  A    between atoms: C_25  and  C_26
REMARK    7  A    between atoms: C_26  and  C_28
REMARK                            x       y       z     vdW  Elec       q    Type
REMARK                         _______ _______ _______ _____ _____    ______ ____
ROOT
ATOM      1  C   UNL     1       4.608   3.669   2.720  0.00  0.00    +0.219 C 
ATOM      2  O   UNL     1       5.418   3.102   3.422  0.00  0.00    -0.275 OA
ATOM      3  N   UNL     1       4.837   4.934   2.314  0.00  0.00    -0.285 N 
ATOM      4  H   UNL     1       4.233   5.358   1.684  0.00  0.00    +0.155 HD
ENDROOT
BRANCH   3   5
ATOM      5  C   UNL     1       5.940   5.632   2.799  0.00  0.00    +0.044 A 
ATOM      6  C   UNL     1       6.500   5.289   4.022  0.00  0.00    +0.024 A 
ATOM      7  C   UNL     1       7.594   5.982   4.500  0.00  0.00    +0.002 A 
ATOM      8  C   UNL     1       8.140   7.024   3.767  0.00  0.00    +0.001 A 
ATOM      9  C   UNL     1       7.598   7.379   2.552  0.00  0.00    +0.013 A 
ATOM     10  C   UNL     1       6.495   6.682   2.050  0.00  0.00    +0.043 A 
BRANCH  10  11
ATOM     11  C   UNL     1       5.914   7.053   0.747  0.00  0.00    +0.195 C 
ATOM     12  O   UNL     1       5.296   8.094   0.631  0.00  0.00    -0.287 OA
BRANCH  11  13
ATOM     13  C   UNL     1       6.081   6.158  -0.418  0.00  0.00    +0.022 A 
ATOM     14  C   UNL     1       6.873   5.013  -0.314  0.00  0.00    +0.012 A 
ATOM     15  C   UNL     1       7.025   4.183  -1.405  0.00  0.00    +0.001 A 
ATOM     16  C   UNL     1       6.395   4.483  -2.600  0.00  0.00    +0.000 A 
ATOM     17  C   UNL     1       5.609   5.616  -2.710  0.00  0.00    +0.001 A 
ATOM     18  C   UNL     1       5.443   6.452  -1.625  0.00  0.00    +0.012 A 
ENDBRANCH  11  13
ENDBRANCH  10  11
ENDBRANCH   3   5
BRANCH   1  19
ATOM     19  C   UNL     1       3.346   2.960   2.301  0.00  0.00    +0.115 C 
BRANCH  19  20
ATOM     20  C   UNL     1       3.334   1.549   2.893  0.00  0.00    +0.127 C 
BRANCH  20  30
ATOM     21  C   UNL     1      -0.163   1.653   0.132  0.00  0.00    +0.010 C 
ATOM     22  C   UNL     1      -0.178   0.123   0.135  0.00  0.00    +0.018 C 
ATOM     23  C   UNL     1      -1.626  -0.372   0.172  0.00  0.00    +0.006 C 
ATOM     24  C   UNL     1      -1.640  -1.902   0.196  0.00  0.00    +0.000 C 
ATOM     25  C   UNL     1      -0.907  -2.402   1.442  0.00  0.00    +0.003 C 
ATOM     26  C   UNL     1       0.544  -1.913   1.410  0.00  0.00    +0.035 C 
ATOM     27  C   UNL     1       0.567  -0.390   1.362  0.00  0.00    +0.115 C 
ATOM     28  C   UNL     1       1.991   0.117   1.365  0.00  0.00    +0.247 C 
ATOM     29  O   UNL     1       2.848  -0.098   0.535  0.00  0.00    -0.273 OA
ATOM     30  N   UNL     1       2.107   0.860   2.485  0.00  0.00    -0.224 N 
ATOM     31  C   UNL     1       0.962   0.888   3.179  0.00  0.00    +0.309 C 
ATOM     32  O   UNL     1       0.820   1.492   4.224  0.00  0.00    -0.252 OA
ATOM     33  N   UNL     1      -0.014   0.172   2.589  0.00  0.00    -0.285 N 
ATOM     34  H   UNL     1      -0.921   0.052   2.910  0.00  0.00    +0.151 HD
ENDBRANCH  20  30
ENDBRANCH  19  20
ENDBRANCH   1  19
TORSDOF 6
