REMARK  Name = ZINC10213905
REMARK  4 active torsions:
REMARK  status: ('A' for Active; 'I' for Inactive)
REMARK    1  A    between atoms: C_1  and  C_2
REMARK    2  A    between atoms: C_2  and  N_52
REMARK    3  A    between atoms: C_12  and  C_14
REMARK    4  A    between atoms: C_19  and  O_20
REMARK                            x       y       z     vdW  Elec       q    Type
REMARK                         _______ _______ _______ _____ _____    ______ ____
ROOT
ATOM      1  C   UNL     1      -4.910  -0.031   0.671  0.00  0.00    -0.073 C 
ATOM      2  C   UNL     1      -5.219   0.810  -0.571  0.00  0.00    +0.052 C 
ATOM      3  C   UNL     1      -4.939   2.281  -0.269  0.00  0.00    +0.189 C 
ATOM      4  C   UNL     1      -5.761   2.727   0.939  0.00  0.00    +0.052 C 
ATOM      5  C   UNL     1      -5.435   1.828   2.135  0.00  0.00    -0.073 C 
ATOM      6  N   UNL     1      -3.512   2.477  -0.004  0.00  0.00    -0.207 N 
ATOM      7  C   UNL     1      -2.965   3.836   0.217  0.00  0.00    +0.136 C 
ATOM      8  C   UNL     1      -1.456   3.628   0.035  0.00  0.00    +0.086 C 
ATOM      9  C   UNL     1      -1.301   2.121   0.020  0.00  0.00    +0.072 C 
ATOM     10  N   UNL     1      -2.470   1.568   0.023  0.00  0.00    -0.184 NA
ATOM     11  C   UNL     1      -3.554   4.712  -0.857  0.00  0.00    +0.017 A 
ATOM     12  C   UNL     1      -2.984   5.946  -1.109  0.00  0.00    +0.009 A 
ATOM     13  C   UNL     1      -3.521   6.780  -2.070  0.00  0.00    +0.001 A 
ATOM     14  C   UNL     1      -4.635   6.375  -2.783  0.00  0.00    +0.004 A 
ATOM     15  C   UNL     1      -5.202   5.143  -2.542  0.00  0.00    +0.046 A 
ATOM     16  C   UNL     1      -4.662   4.291  -1.577  0.00  0.00    +0.128 A 
ATOM     17  O   UNL     1      -5.262   3.085  -1.405  0.00  0.00    -0.467 OA
ATOM     18  N   UNL     1      -5.764   0.430   1.786  0.00  0.00    +0.380 N 
ATOM     19  H   UNL     1      -6.747   0.383   1.494  0.00  0.00    -0.082 HD
ENDROOT
BRANCH   9  20
ATOM     20  C   UNL     1      -0.017   1.397   0.010  0.00  0.00    +0.039 A 
ATOM     21  C   UNL     1       1.187   2.104   0.002  0.00  0.00    +0.013 A 
ATOM     22  C   UNL     1       2.385   1.421  -0.013  0.00  0.00    +0.001 A 
ATOM     23  C   UNL     1       2.399   0.037  -0.021  0.00  0.00    +0.004 A 
ATOM     24  C   UNL     1       1.214  -0.674  -0.013  0.00  0.00    +0.046 A 
ATOM     25  C   UNL     1       0.002  -0.004   0.002  0.00  0.00    +0.126 A 
BRANCH  25  26
ATOM     26  O   UNL     1      -1.163  -0.702   0.010  0.00  0.00    -0.506 OA
ATOM     27  H   UNL     1      -1.510  -0.899  -0.871  0.00  0.00    +0.292 HD
ENDBRANCH  25  26
ENDBRANCH   9  20
BRANCH  18  29
ATOM     28  C   UNL     1      -6.620  -0.085   4.018  0.00  0.00    -0.017 C 
ATOM     29  C   UNL     1      -5.571  -0.442   2.963  0.00  0.00    -0.082 C 
ENDBRANCH  18  29
TORSDOF 3
