REMARK  Name = ZINC39361133
REMARK  10 active torsions:
REMARK  status: ('A' for Active; 'I' for Inactive)
REMARK    1  A    between atoms: C_1  and  C_2
REMARK    2  A    between atoms: C_5  and  C_31
REMARK    3  A    between atoms: C_10  and  C_14
REMARK    4  A    between atoms: C_14  and  C_15
REMARK    5  A    between atoms: C_15  and  N_16
REMARK    6  A    between atoms: C_17  and  C_19
REMARK    7  A    between atoms: C_22  and  S_25
REMARK    8  A    between atoms: S_25  and  N_28
REMARK    9  A    between atoms: N_28  and  C_29
REMARK   10  A    between atoms: N_28  and  C_30
REMARK                            x       y       z     vdW  Elec       q    Type
REMARK                         _______ _______ _______ _____ _____    ______ ____
ROOT
ATOM      1  C   UNL     1       1.161  -1.185   5.927  0.00  0.00    +0.105 C 
ENDROOT
BRANCH   1   2
ATOM      2  N   UNL     1       2.342  -0.814   6.710  0.00  0.00    -0.311 N 
ATOM      3  C   UNL     1       2.467  -1.236   7.984  0.00  0.00    +0.244 C 
ATOM      4  O   UNL     1       1.599  -1.925   8.483  0.00  0.00    -0.270 OA
ATOM      5  H   UNL     1       3.035  -0.264   6.311  0.00  0.00    +0.149 HD
BRANCH   3   6
ATOM      6  C   UNL     1       3.660  -0.862   8.773  0.00  0.00    +0.037 A 
ATOM      7  C   UNL     1       4.655  -0.066   8.204  0.00  0.00    +0.015 A 
ATOM      8  C   UNL     1       5.766   0.280   8.947  0.00  0.00    +0.029 A 
ATOM      9  C   UNL     1       5.893  -0.160  10.252  0.00  0.00    +0.105 A 
ATOM     10  C   UNL     1       4.910  -0.949  10.822  0.00  0.00    +0.029 A 
ATOM     11  C   UNL     1       3.792  -1.297  10.092  0.00  0.00    +0.015 A 
BRANCH   9  12
ATOM     12  S   UNL     1       7.314   0.287  11.193  0.00  0.00    +0.060 S 
ATOM     13  O   UNL     1       7.458  -0.700  12.205  0.00  0.00    -0.153 OA
ATOM     14  O   UNL     1       8.346   0.575  10.259  0.00  0.00    -0.153 OA
BRANCH  12  15
ATOM     15  N   UNL     1       6.964   1.709  11.965  0.00  0.00    -0.183 NA
ATOM     16  C   UNL     1       6.356   1.689  13.298  0.00  0.00    +0.131 C 
ATOM     17  C   UNL     1       7.261   2.988  11.315  0.00  0.00    +0.131 C 
ENDBRANCH  12  15
ENDBRANCH   9  12
ENDBRANCH   3   6
ENDBRANCH   1   2
BRANCH   1  18
ATOM     18  C   UNL     1       1.267  -0.581   4.526  0.00  0.00    +0.035 C 
BRANCH  18  28
ATOM     19  C   UNL     1      -0.018   1.503   0.010  0.00  0.00    +0.044 C 
ATOM     20  C   UNL     1       0.002  -0.004   0.002  0.00  0.00    -0.042 A 
ATOM     21  C   UNL     1       0.006  -0.689  -1.171  0.00  0.00    +0.004 A 
ATOM     22  C   UNL     1       0.025  -2.083  -1.198  0.00  0.00    +0.005 A 
ATOM     23  C   UNL     1       0.041  -2.838  -0.068  0.00  0.00    -0.029 A 
ATOM     24  C   UNL     1       0.038  -2.227   1.199  0.00  0.00    +0.043 A 
ATOM     25  N   UNL     1       0.054  -2.978   2.300  0.00  0.00    -0.284 N 
ATOM     26  C   UNL     1       0.053  -2.469   3.521  0.00  0.00    +0.224 C 
ATOM     27  O   UNL     1       0.068  -3.205   4.489  0.00  0.00    -0.275 OA
ATOM     28  C   UNL     1       0.033  -0.969   3.708  0.00  0.00    +0.100 C 
ATOM     29  C   UNL     1       0.015  -0.111   2.459  0.00  0.00    -0.004 C 
ATOM     30  C   UNL     1       0.024  -0.755   1.258  0.00  0.00    -0.004 A 
ATOM     31  C   UNL     1       0.060  -4.341  -0.174  0.00  0.00    +0.045 C 
ATOM     32  H   UNL     1       0.067  -3.943   2.202  0.00  0.00    +0.155 HD
ENDBRANCH  18  28
ENDBRANCH   1  18
TORSDOF 6
