REMARK  Name = ZINC02719701
REMARK  5 active torsions:
REMARK  status: ('A' for Active; 'I' for Inactive)
REMARK    1  A    between atoms: C_4  and  N_7
REMARK    2  A    between atoms: C_13  and  S_14
REMARK    3  A    between atoms: S_14  and  C_15
REMARK    4  A    between atoms: C_15  and  C_16
REMARK    5  A    between atoms: N_18  and  C_19
REMARK                            x       y       z     vdW  Elec       q    Type
REMARK                         _______ _______ _______ _____ _____    ______ ____
ROOT
ATOM      1  N   UNL     1      -4.671   1.203   0.101  0.00  0.00    -0.255 N 
ATOM      2  C   UNL     1      -5.635   2.151   0.121  0.00  0.00    +0.273 A 
ATOM      3  O   UNL     1      -6.815   1.841   0.110  0.00  0.00    -0.266 OA
ATOM      4  C   UNL     1      -5.249   3.498   0.148  0.00  0.00    +0.094 A 
ATOM      5  C   UNL     1      -3.917   3.860   0.145  0.00  0.00    +0.064 A 
ATOM      6  N   UNL     1      -3.014   2.856   0.135  0.00  0.00    -0.227 NA
ATOM      7  C   UNL     1      -3.364   1.594   0.117  0.00  0.00    +0.177 A 
ATOM      8  C   UNL     1      -3.621   5.339   0.134  0.00  0.00    +0.068 C 
ATOM      9  C   UNL     1      -4.829   6.168   0.627  0.00  0.00    +0.081 C 
ATOM     10  S   UNL     1      -6.190   5.006   0.194  0.00  0.00    -0.118 S 
ENDROOT
BRANCH   1  14
ATOM     11  C   UNL     1      -5.673  -2.841   0.005  0.00  0.00    +0.000 A 
ATOM     12  C   UNL     1      -6.168  -2.032   1.011  0.00  0.00    +0.002 A 
ATOM     13  C   UNL     1      -5.837  -0.691   1.046  0.00  0.00    +0.026 A 
ATOM     14  C   UNL     1      -5.008  -0.157   0.068  0.00  0.00    +0.052 A 
ATOM     15  C   UNL     1      -4.518  -0.971  -0.944  0.00  0.00    +0.026 A 
ATOM     16  C   UNL     1      -4.847  -2.312  -0.970  0.00  0.00    +0.002 A 
ENDBRANCH   1  14
BRANCH   7  17
ATOM     17  S   UNL     1      -2.105   0.361   0.107  0.00  0.00    -0.078 S 
BRANCH  17  18
ATOM     18  C   UNL     1      -0.633   1.414   0.128  0.00  0.00    +0.173 C 
BRANCH  18  19
ATOM     19  C   UNL     1       0.602   0.551   0.122  0.00  0.00    +0.228 C 
ATOM     20  O   UNL     1       0.498  -0.657   0.106  0.00  0.00    -0.275 OA
ATOM     21  N   UNL     1       1.823   1.122   0.129  0.00  0.00    -0.284 N 
ATOM     22  H   UNL     1       1.909   2.085   0.057  0.00  0.00    +0.155 HD
BRANCH  21  23
ATOM     23  C   UNL     1       2.965   0.326   0.241  0.00  0.00    +0.041 A 
ATOM     24  C   UNL     1       2.893  -0.914   0.837  0.00  0.00    +0.024 A 
ATOM     25  C   UNL     1       4.025  -1.715   0.953  0.00  0.00    +0.002 A 
ATOM     26  C   UNL     1       5.232  -1.298   0.482  0.00  0.00    +0.008 A 
ATOM     27  C   UNL     1       5.349  -0.040  -0.133  0.00  0.00    -0.016 A 
ATOM     28  C   UNL     1       4.202   0.783  -0.261  0.00  0.00    +0.003 A 
ATOM     29  C   UNL     1       4.321   2.041  -0.871  0.00  0.00    +0.010 A 
ATOM     30  C   UNL     1       5.532   2.452  -1.339  0.00  0.00    +0.001 A 
ATOM     31  C   UNL     1       6.660   1.642  -1.218  0.00  0.00    +0.001 A 
ATOM     32  C   UNL     1       6.583   0.418  -0.628  0.00  0.00    +0.008 A 
ENDBRANCH  21  23
ENDBRANCH  18  19
ENDBRANCH  17  18
ENDBRANCH   7  17
TORSDOF 5
