REMARK  Name = ZINC09374651
REMARK  9 active torsions:
REMARK  status: ('A' for Active; 'I' for Inactive)
REMARK    1  A    between atoms: C_1  and  N_57
REMARK    2  A    between atoms: C_2  and  N_57
REMARK    3  A    between atoms: C_3  and  C_4
REMARK    4  A    between atoms: C_3  and  N_57
REMARK    5  A    between atoms: C_4  and  C_5
REMARK    6  A    between atoms: C_5  and  N_6
REMARK    7  A    between atoms: C_7  and  C_26
REMARK    8  A    between atoms: C_10  and  C_11
REMARK    9  A    between atoms: C_10  and  O_21
REMARK                            x       y       z     vdW  Elec       q    Type
REMARK                         _______ _______ _______ _____ _____    ______ ____
ROOT
ATOM      1  N   UNL     1       4.438  -4.335   0.230  0.00  0.00    -0.284 N 
ATOM      2  C   UNL     1       4.927  -2.956   0.145  0.00  0.00    +0.144 C 
ATOM      3  C   UNL     1       3.707  -2.069   0.050  0.00  0.00    +0.071 C 
ATOM      4  C   UNL     1       3.687  -0.691  -0.046  0.00  0.00    +0.133 C 
ATOM      5  C   UNL     1       2.598  -2.928   0.073  0.00  0.00    +0.249 C 
ATOM      6  O   UNL     1       1.430  -2.588   0.012  0.00  0.00    -0.282 OA
ATOM      7  C   UNL     1       3.096  -4.326   0.186  0.00  0.00    +0.288 C 
ATOM      8  O   UNL     1       2.391  -5.314   0.230  0.00  0.00    -0.266 OA
ENDROOT
BRANCH   4   9
ATOM      9  C   UNL     1       2.409   0.033   0.024  0.00  0.00    +0.021 A 
ATOM     10  C   UNL     1       1.514  -0.220   1.070  0.00  0.00    +0.015 A 
ATOM     11  C   UNL     1       0.319   0.459   1.131  0.00  0.00    +0.050 A 
ATOM     12  C   UNL     1      -0.006   1.397   0.156  0.00  0.00    +0.162 A 
ATOM     13  C   UNL     1       0.881   1.656  -0.887  0.00  0.00    +0.163 A 
ATOM     14  C   UNL     1       2.083   0.977  -0.957  0.00  0.00    +0.061 A 
ATOM     15  O   UNL     1       0.581   2.577  -1.843  0.00  0.00    -0.485 OA
ATOM     16  C   UNL     1      -0.792   2.970  -1.951  0.00  0.00    +0.270 C 
ATOM     17  C   UNL     1      -1.324   3.249  -0.538  0.00  0.00    +0.270 C 
ATOM     18  O   UNL     1      -1.196   2.049   0.233  0.00  0.00    -0.485 OA
ENDBRANCH   4   9
BRANCH   2  19
ATOM     19  C   UNL     1       5.718  -2.614   1.381  0.00  0.00    -0.022 A 
ATOM     20  C   UNL     1       5.300  -3.071   2.617  0.00  0.00    +0.007 A 
ATOM     21  C   UNL     1       6.028  -2.763   3.751  0.00  0.00    +0.015 A 
ATOM     22  C   UNL     1       7.169  -1.987   3.650  0.00  0.00    +0.018 A 
ATOM     23  C   UNL     1       7.584  -1.526   2.414  0.00  0.00    +0.015 A 
ATOM     24  C   UNL     1       6.858  -1.839   1.280  0.00  0.00    +0.007 A 
ATOM     25 BR   UNL     1       8.161  -1.559   5.202  0.00  0.00    -0.050 Br
ENDBRANCH   2  19
BRANCH   4  26
ATOM     26  O   UNL     1       4.842  -0.009  -0.203  0.00  0.00    -0.506 OA
ATOM     27  H   UNL     1       4.646   0.970  -0.254  0.00  0.00    +0.292 HD
ENDBRANCH   4  26
BRANCH   1  28
ATOM     28  C   UNL     1       5.278  -5.530   0.339  0.00  0.00    +0.107 C 
BRANCH  28  29
ATOM     29  C   UNL     1       5.617  -6.045  -1.061  0.00  0.00    +0.000 C 
BRANCH  29  30
ATOM     30  C   UNL     1       6.494  -7.294  -0.947  0.00  0.00    -0.078 C 
BRANCH  30  33
ATOM     31  C   UNL     1       7.667  -6.830  -3.014  0.00  0.00    -0.097 C 
ATOM     32  C   UNL     1       7.457  -9.110  -2.227  0.00  0.00    -0.097 C 
ATOM     33  N   UNL     1       6.795  -7.791  -2.306  0.00  0.00    +0.376 N 
ATOM     34  H   UNL     1       5.916  -7.889  -2.828  0.00  0.00    -0.083 HD
ENDBRANCH  30  33
ENDBRANCH  29  30
ENDBRANCH  28  29
ENDBRANCH   1  28
TORSDOF 7
