REMARK  Name = ZINC38768832
REMARK  10 active torsions:
REMARK  status: ('A' for Active; 'I' for Inactive)
REMARK    1  A    between atoms: C_1  and  C_2
REMARK    2  A    between atoms: C_2  and  O_3
REMARK    3  A    between atoms: O_3  and  C_4
REMARK    4  A    between atoms: C_9  and  O_10
REMARK    5  A    between atoms: O_10  and  C_11
REMARK    6  A    between atoms: C_15  and  C_17
REMARK    7  A    between atoms: C_20  and  O_24
REMARK    8  A    between atoms: C_22  and  O_23
REMARK    9  A    between atoms: O_24  and  C_25
REMARK   10  A    between atoms: C_25  and  C_26
REMARK                            x       y       z     vdW  Elec       q    Type
REMARK                         _______ _______ _______ _____ _____    ______ ____
ROOT
ATOM      1  C   UNL     1       4.379  -0.280   5.022  0.00  0.00    +0.025 A 
ATOM      2  C   UNL     1       5.703  -0.675   5.013  0.00  0.00    +0.013 A 
ATOM      3  C   UNL     1       6.678   0.179   4.537  0.00  0.00    +0.046 A 
ATOM      4  C   UNL     1       6.330   1.437   4.065  0.00  0.00    +0.124 A 
ATOM      5  C   UNL     1       5.003   1.836   4.073  0.00  0.00    +0.091 A 
ATOM      6  C   UNL     1       4.025   0.975   4.547  0.00  0.00    +0.126 A 
ENDROOT
BRANCH   1  11
ATOM      7  C   UNL     1       2.688  -2.001   4.407  0.00  0.00    +0.154 C 
ATOM      8  C   UNL     1       2.983  -3.283   4.705  0.00  0.00    +0.176 C 
ATOM      9  N   UNL     1       3.682  -3.355   5.843  0.00  0.00    -0.182 NA
ATOM     10  N   UNL     1       3.913  -2.269   6.381  0.00  0.00    -0.294 N 
ATOM     11  C   UNL     1       3.317  -1.214   5.543  0.00  0.00    +0.199 C 
ATOM     12  H   UNL     1       4.403  -2.134   7.207  0.00  0.00    +0.184 HD
BRANCH   7  13
ATOM     13  O   UNL     1       2.001  -1.528   3.345  0.00  0.00    -0.453 OA
BRANCH  13  19
ATOM     14  C   UNL     1       0.107  -0.332   2.529  0.00  0.00    +0.162 A 
ATOM     15  C   UNL     1      -1.123   0.261   2.767  0.00  0.00    +0.049 A 
ATOM     16  C   UNL     1      -1.660   0.251   4.041  0.00  0.00    +0.004 A 
ATOM     17  C   UNL     1      -0.972  -0.349   5.080  0.00  0.00    +0.004 A 
ATOM     18  C   UNL     1       0.255  -0.942   4.850  0.00  0.00    +0.050 A 
ATOM     19  C   UNL     1       0.797  -0.941   3.574  0.00  0.00    +0.170 A 
BRANCH  14  20
ATOM     20  O   UNL     1       0.637  -0.322   1.277  0.00  0.00    -0.489 OA
BRANCH  20  22
ATOM     21  C   UNL     1       0.625   0.231  -1.075  0.00  0.00    +0.048 C 
ATOM     22  C   UNL     1      -0.126   0.321   0.255  0.00  0.00    +0.226 C 
ENDBRANCH  20  22
ENDBRANCH  14  20
ENDBRANCH  13  19
ENDBRANCH   7  13
ENDBRANCH   1  11
BRANCH   6  23
ATOM     23  O   UNL     1       2.722   1.361   4.550  0.00  0.00    -0.506 OA
ATOM     24  H   UNL     1       2.446   1.809   5.362  0.00  0.00    +0.292 HD
ENDBRANCH   6  23
BRANCH   4  25
ATOM     25  O   UNL     1       7.290   2.277   3.596  0.00  0.00    -0.487 OA
BRANCH  25  26
ATOM     26  C   UNL     1       8.637   1.800   3.618  0.00  0.00    +0.266 C 
BRANCH  26  27
ATOM     27  C   UNL     1       9.554   2.860   3.065  0.00  0.00    +0.008 A 
ATOM     28  C   UNL     1       9.036   4.070   2.642  0.00  0.00    +0.011 A 
ATOM     29  C   UNL     1       9.876   5.042   2.134  0.00  0.00    +0.039 A 
ATOM     30  C   UNL     1      11.238   4.806   2.049  0.00  0.00    +0.125 A 
ATOM     31  C   UNL     1      11.757   3.595   2.474  0.00  0.00    +0.058 A 
ATOM     32  C   UNL     1      10.915   2.624   2.986  0.00  0.00    +0.050 A 
ATOM     33 CL   UNL     1      11.565   1.107   3.525  0.00  0.00    -0.083 Cl
ATOM     34  F   UNL     1      12.060   5.756   1.552  0.00  0.00    -0.205 F 
ENDBRANCH  26  27
ENDBRANCH  25  26
ENDBRANCH   4  25
TORSDOF 9
