REMARK  Name = ZINC39289444
REMARK  5 active torsions:
REMARK  status: ('A' for Active; 'I' for Inactive)
REMARK    1  A    between atoms: C_1  and  N_2
REMARK    2  A    between atoms: C_3  and  C_19
REMARK    3  A    between atoms: C_8  and  C_10
REMARK    4  A    between atoms: C_19  and  O_21
REMARK    5  A    between atoms: O_21  and  C_22
REMARK                            x       y       z     vdW  Elec       q    Type
REMARK                         _______ _______ _______ _____ _____    ______ ____
ROOT
ATOM      1  C   UNL     1       0.413   1.534  -0.256  0.00  0.00    +0.158 C 
ATOM      2  N   UNL     1       0.215   0.091  -0.098  0.00  0.00    -0.196 N 
ATOM      3  C   UNL     1      -0.100  -0.715  -1.212  0.00  0.00    +0.183 C 
ATOM      4  C   UNL     1       0.291  -2.033  -1.317  0.00  0.00    +0.224 C 
ATOM      5  C   UNL     1       0.958  -2.692  -0.279  0.00  0.00    +0.088 A 
ATOM      6  C   UNL     1       1.107  -2.202   1.031  0.00  0.00    +0.127 A 
ATOM      7  C   UNL     1       1.804  -2.988   1.907  0.00  0.00    +0.046 A 
ATOM      8  C   UNL     1       2.304  -4.210   1.479  0.00  0.00    +0.028 A 
ATOM      9  S   UNL     1       1.770  -4.261  -0.227  0.00  0.00    -0.082 S 
ATOM     10  S   UNL     1       0.366  -0.625   1.401  0.00  0.00    +0.076 S 
ATOM     11  O   UNL     1       1.324   0.128   2.133  0.00  0.00    -0.150 OA
ATOM     12  O   UNL     1      -0.947  -0.882   1.879  0.00  0.00    -0.150 OA
ATOM     13  O   UNL     1       0.022  -2.710  -2.459  0.00  0.00    -0.284 OA
ENDROOT
BRANCH   8  14
ATOM     14  C   UNL     1       3.075  -5.207   2.234  0.00  0.00    +0.026 A 
ATOM     15  C   UNL     1       3.580  -6.424   1.810  0.00  0.00    +0.016 A 
ATOM     16  C   UNL     1       4.278  -7.193   2.713  0.00  0.00    +0.008 A 
ATOM     17  C   UNL     1       4.449  -6.738   3.981  0.00  0.00    +0.046 A 
ATOM     18  S   UNL     1       3.612  -5.162   3.936  0.00  0.00    -0.096 S 
ENDBRANCH   8  14
BRANCH   3  19
ATOM     19  C   UNL     1      -0.846  -0.149  -2.264  0.00  0.00    +0.358 C 
ATOM     20  O   UNL     1      -1.310   0.972  -2.147  0.00  0.00    -0.243 OA
BRANCH  19  21
ATOM     21  O   UNL     1      -1.047  -0.848  -3.403  0.00  0.00    -0.463 OA
ATOM     22  C   UNL     1      -1.813  -0.212  -4.428  0.00  0.00    +0.280 C 
ENDBRANCH  19  21
ENDBRANCH   3  19
TORSDOF 3
