REMARK  Name = ZINC09325049
REMARK  12 active torsions:
REMARK  status: ('A' for Active; 'I' for Inactive)
REMARK    1  A    between atoms: C_1  and  C_2
REMARK    2  A    between atoms: C_2  and  C_3
REMARK    3  A    between atoms: C_3  and  C_4
REMARK    4  A    between atoms: N_8  and  C_18
REMARK    5  A    between atoms: C_12  and  C_17
REMARK    6  A    between atoms: C_14  and  C_16
REMARK    7  A    between atoms: C_18  and  C_19
REMARK    8  A    between atoms: N_21  and  C_22
REMARK    9  A    between atoms: C_23  and  C_31
REMARK   10  A    between atoms: C_31  and  O_33
REMARK   11  A    between atoms: O_33  and  C_34
REMARK   12  A    between atoms: C_34  and  C_35
REMARK                            x       y       z     vdW  Elec       q    Type
REMARK                         _______ _______ _______ _____ _____    ______ ____
ROOT
ATOM      1  C   UNL     1      -2.410   3.878   0.529  0.00  0.00    +0.224 C 
ENDROOT
BRANCH   1   6
ATOM      2  C   UNL     1       1.046   1.658  -0.237  0.00  0.00    +0.050 A 
ATOM      3  C   UNL     1       1.174   2.990   0.029  0.00  0.00    +0.093 A 
ATOM      4  C   UNL     1       0.015   3.744   0.294  0.00  0.00    +0.256 A 
ATOM      5  O   UNL     1       0.092   4.936   0.540  0.00  0.00    -0.268 OA
ATOM      6  N   UNL     1      -1.183   3.122   0.264  0.00  0.00    -0.268 N 
ATOM      7  C   UNL     1      -1.247   1.792  -0.007  0.00  0.00    +0.235 A 
ATOM      8  N   UNL     1      -0.161   1.093  -0.248  0.00  0.00    -0.217 NA
ATOM      9  N   UNL     1      -2.479   1.162  -0.030  0.00  0.00    -0.204 N 
ATOM     10  C   UNL     1      -2.694  -0.176  -0.162  0.00  0.00    +0.045 A 
ATOM     11  C   UNL     1      -4.030  -0.379  -0.135  0.00  0.00    +0.048 A 
ATOM     12  C   UNL     1      -4.654   0.866   0.017  0.00  0.00    +0.061 A 
ATOM     13  N   UNL     1      -3.728   1.786   0.086  0.00  0.00    -0.169 NA
ATOM     14  C   UNL     1      -6.141   1.103   0.095  0.00  0.00    +0.067 C 
ATOM     15  C   UNL     1      -1.635  -1.237  -0.310  0.00  0.00    +0.066 C 
BRANCH   2  16
ATOM     16  C   UNL     1       2.270   0.825  -0.518  0.00  0.00    +0.055 C 
BRANCH  16  18
ATOM     17  C   UNL     1       3.978  -0.695   0.488  0.00  0.00    +0.004 C 
ATOM     18  C   UNL     1       2.736   0.150   0.773  0.00  0.00    +0.003 C 
ENDBRANCH  16  18
ENDBRANCH   2  16
ENDBRANCH   1   6
BRANCH   1  19
ATOM     19  C   UNL     1      -3.036   4.293  -0.777  0.00  0.00    +0.238 C 
ATOM     20  O   UNL     1      -2.510   3.987  -1.826  0.00  0.00    -0.273 OA
ATOM     21  N   UNL     1      -4.182   5.003  -0.780  0.00  0.00    -0.278 N 
ATOM     22  H   UNL     1      -4.603   5.248   0.059  0.00  0.00    +0.155 HD
BRANCH  21  23
ATOM     23  C   UNL     1      -4.758   5.385  -1.981  0.00  0.00    +0.086 A 
ATOM     24  C   UNL     1      -5.926   6.107  -2.187  0.00  0.00    +0.091 A 
ATOM     25  C   UNL     1      -6.312   6.381  -3.561  0.00  0.00    -0.021 A 
ATOM     26  C   UNL     1      -5.481   5.883  -4.503  0.00  0.00    -0.004 A 
ATOM     27  S   UNL     1      -4.200   5.070  -3.591  0.00  0.00    -0.077 S 
ATOM     28  C   UNL     1      -5.626   6.001  -5.989  0.00  0.00    +0.043 C 
ATOM     29  C   UNL     1      -7.060   6.452  -6.301  0.00  0.00    +0.005 C 
ATOM     30  C   UNL     1      -7.412   7.638  -5.398  0.00  0.00    +0.005 C 
ATOM     31  C   UNL     1      -7.560   7.164  -3.951  0.00  0.00    +0.037 C 
BRANCH  24  32
ATOM     32  C   UNL     1      -6.736   6.578  -1.062  0.00  0.00    +0.342 C 
ATOM     33  O   UNL     1      -6.522   7.672  -0.574  0.00  0.00    -0.245 OA
BRANCH  32  34
ATOM     34  O   UNL     1      -7.720   5.800  -0.567  0.00  0.00    -0.461 OA
BRANCH  34  35
ATOM     35  C   UNL     1      -8.483   6.331   0.549  0.00  0.00    +0.229 C 
ATOM     36  C   UNL     1      -9.546   5.315   0.970  0.00  0.00    +0.048 C 
ENDBRANCH  34  35
ENDBRANCH  32  34
ENDBRANCH  24  32
ENDBRANCH  21  23
ENDBRANCH   1  19
TORSDOF 8
