REMARK  Name = ZINC08918256
REMARK  11 active torsions:
REMARK  status: ('A' for Active; 'I' for Inactive)
REMARK    1  A    between atoms: C_1  and  C_2
REMARK    2  A    between atoms: C_5  and  S_8
REMARK    3  A    between atoms: S_8  and  N_11
REMARK    4  A    between atoms: N_11  and  C_12
REMARK    5  A    between atoms: C_12  and  C_14
REMARK    6  A    between atoms: C_12  and  C_15
REMARK    7  A    between atoms: C_20  and  C_23
REMARK    8  A    between atoms: N_25  and  CA_26
REMARK    9  A    between atoms: CA_26  and  CB_28
REMARK   10  A    between atoms: CA_26  and  C_31
REMARK   11  A    between atoms: CB_28  and  CG_29
REMARK                            x       y       z     vdW  Elec       q    Type
REMARK                         _______ _______ _______ _____ _____    ______ ____
ROOT
ATOM      1  C   UNK A   0      -5.196  -3.670  -5.304  0.00  0.00    +0.234 C 
ATOM      2  O   UNK A   0      -5.345  -2.964  -6.279  0.00  0.00    -0.274 OA
ATOM      3  N   UNK A   0      -4.611  -3.173  -4.196  0.00  0.00    -0.300 N 
ATOM      4  C   UNK A   0      -4.526  -3.978  -2.969  0.00  0.00    +0.108 C 
ATOM      5  C   UNK A   0      -5.120  -3.172  -1.809  0.00  0.00    +0.032 C 
ATOM      6  C   UNK A   0      -4.416  -1.816  -1.722  0.00  0.00    +0.078 C 
ATOM      7  C   UNK A   0      -4.645  -1.036  -3.018  0.00  0.00    +0.032 C 
ATOM      8  C   UNK A   0      -4.045  -1.817  -4.192  0.00  0.00    +0.108 C 
ENDROOT
BRANCH   6   9
ATOM      9  C   UNK A   0      -4.975  -1.035  -0.560  0.00  0.00    +0.217 C 
ATOM     10  O   UNK A   0      -5.850  -1.516   0.129  0.00  0.00    -0.275 OA
ATOM     11  N   ASP A   1      -4.503   0.198  -0.288  0.00  0.00    -0.302 N 
ATOM     12  H   ASP A   1      -3.803   0.582  -0.839  0.00  0.00    +0.150 HD
BRANCH  11  13
ATOM     13  CA  ASP A   1      -5.046   0.957   0.841  0.00  0.00    +0.197 C 
BRANCH  13  14
ATOM     14  C   ASP A   1      -6.289   1.688   0.404  0.00  0.00    +0.376 C 
ATOM     15  O   ASP A   1      -6.681   1.584  -0.735  0.00  0.00    -0.244 OA
ATOM     16  OXT ASP A   1      -6.961   2.453   1.278  0.00  0.00    -0.244 OA
ENDBRANCH  13  14
BRANCH  13  17
ATOM     17  CB  ASP A   1      -4.004   1.968   1.324  0.00  0.00    +0.159 C 
BRANCH  17  18
ATOM     18  CG  ASP A   1      -2.809   1.233   1.876  0.00  0.00    +0.358 C 
ATOM     19  OD1 ASP A   1      -2.793   0.025   1.882  0.00  0.00    -0.246 OA
ATOM     20  OD2 ASP A   1      -1.761   1.921   2.356  0.00  0.00    -0.246 OA
ENDBRANCH  17  18
ENDBRANCH  13  17
ENDBRANCH  11  13
ENDBRANCH   6   9
BRANCH   1  21
ATOM     21  C   UNK A   0      -5.665  -5.102  -5.330  0.00  0.00    +0.159 C 
ATOM     22  C   UNK A   0      -4.460  -6.030  -5.497  0.00  0.00    +0.035 C 
BRANCH  21  23
ATOM     23  N   UNK A   0      -6.587  -5.293  -6.453  0.00  0.00    -0.178 NA
ATOM     24  H   UNK A   0      -6.447  -4.810  -7.283  0.00  0.00    +0.149 HD
BRANCH  23  25
ATOM     25  S   UNK A   0      -7.867  -6.332  -6.305  0.00  0.00    +0.059 S 
ATOM     26  O   UNK A   0      -8.578  -6.278  -7.534  0.00  0.00    -0.153 OA
ATOM     27  O   UNK A   0      -7.347  -7.545  -5.779  0.00  0.00    -0.153 OA
BRANCH  25  32
ATOM     28  C   UNK A   0     -11.536  -4.056  -2.091  0.00  0.00    +0.044 C 
ATOM     29  C   UNK A   0     -10.620  -4.624  -3.143  0.00  0.00    -0.050 A 
ATOM     30  C   UNK A   0     -10.791  -4.276  -4.470  0.00  0.00    +0.005 A 
ATOM     31  C   UNK A   0      -9.951  -4.797  -5.436  0.00  0.00    +0.029 A 
ATOM     32  C   UNK A   0      -8.939  -5.667  -5.074  0.00  0.00    +0.105 A 
ATOM     33  C   UNK A   0      -8.771  -6.019  -3.748  0.00  0.00    +0.029 A 
ATOM     34  C   UNK A   0      -9.608  -5.495  -2.782  0.00  0.00    +0.005 A 
ENDBRANCH  25  32
ENDBRANCH  23  25
ENDBRANCH  21  23
ENDBRANCH   1  21
TORSDOF 9
