REMARK  Name = ZINC36034645
REMARK  9 active torsions:
REMARK  status: ('A' for Active; 'I' for Inactive)
REMARK    1  A    between atoms: C_1  and  C_2
REMARK    2  A    between atoms: C_12  and  N_17
REMARK    3  A    between atoms: N_17  and  C_18
REMARK    4  A    between atoms: C_18  and  C_20
REMARK    5  A    between atoms: C_18  and  C_22
REMARK    6  A    between atoms: C_20  and  O_21
REMARK    7  A    between atoms: C_22  and  C_24
REMARK    8  A    between atoms: C_22  and  O_33
REMARK    9  A    between atoms: C_27  and  N_30
REMARK                            x       y       z     vdW  Elec       q    Type
REMARK                         _______ _______ _______ _____ _____    ______ ____
ROOT
ATOM      1  N   UNK A   1      -1.073  -6.658   1.722  0.00  0.00    -0.301 NA
ATOM      2  H   UNK A   1      -1.224  -7.418   2.367  0.00  0.00    +0.123 HD
ENDROOT
BRANCH   1  14
ATOM      3  C   UNK A   0      -2.709   1.392   0.671  0.00  0.00    +0.044 C 
ATOM      4  C   UNK A   0      -2.260  -0.040   0.534  0.00  0.00    -0.050 A 
ATOM      5  C   UNK A   0      -2.155  -0.611  -0.727  0.00  0.00    +0.005 A 
ATOM      6  C   UNK A   0      -1.747  -1.919  -0.873  0.00  0.00    +0.026 A 
ATOM      7  C   UNK A   0      -1.436  -2.676   0.251  0.00  0.00    +0.047 A 
ATOM      8  C   UNK A   0      -1.544  -2.093   1.528  0.00  0.00    +0.003 A 
ATOM      9  C   UNK A   0      -1.956  -0.764   1.652  0.00  0.00    +0.013 A 
ATOM     10  C   UNK A   0      -1.154  -3.132   2.475  0.00  0.00    -0.018 A 
ATOM     11  C   UNK A   0      -0.847  -4.232   1.762  0.00  0.00    +0.037 A 
ATOM     12  N   UNK A   0      -1.011  -3.975   0.430  0.00  0.00    -0.356 N 
ATOM     13  H   UNK A   0      -0.852  -4.612  -0.284  0.00  0.00    +0.166 HD
ATOM     14  C   UNK A   0      -0.394  -5.534   2.382  0.00  0.00    +0.101 C 
ATOM     15  C   UNK A   0      -0.752  -5.515   3.872  0.00  0.00    +0.025 C 
ATOM     16  C   UNK A   0      -0.250  -4.212   4.501  0.00  0.00    +0.007 C 
ATOM     17  C   UNK A   0      -1.089  -3.039   3.978  0.00  0.00    +0.037 C 
ENDBRANCH   1  14
BRANCH   1  18
ATOM     18  C   UNK A   1      -0.321  -7.108   0.543  0.00  0.00    +0.113 C 
BRANCH  18  19
ATOM     19  C   UNK A   1       0.528  -8.326   0.915  0.00  0.00    +0.177 C 
BRANCH  19  20
ATOM     20  O   UNK A   1       1.496  -7.950   1.896  0.00  0.00    -0.393 OA
ATOM     21  H   UNK A   1       2.071  -8.675   2.179  0.00  0.00    +0.209 HD
ENDBRANCH  19  20
ENDBRANCH  18  19
BRANCH  18  22
ATOM     22  C   UNK A   1      -1.298  -7.489  -0.571  0.00  0.00    +0.164 C 
BRANCH  22  23
ATOM     23  C   UNK A   1      -0.526  -7.863  -1.810  0.00  0.00    -0.017 A 
ATOM     24  C   UNK A   1      -0.058  -9.154  -1.969  0.00  0.00    +0.008 A 
ATOM     25  C   UNK A   1       0.650  -9.497  -3.105  0.00  0.00    +0.033 A 
ATOM     26  C   UNK A   1       0.889  -8.550  -4.083  0.00  0.00    +0.126 A 
ATOM     27  C   UNK A   1       0.420  -7.259  -3.925  0.00  0.00    +0.033 A 
ATOM     28  C   UNK A   1      -0.291  -6.917  -2.790  0.00  0.00    +0.008 A 
BRANCH  26  29
ATOM     29  N   UNK A   1       1.648  -8.917  -5.300  0.00  0.00    +0.056 N 
ATOM     30  O   UNK A   1       2.058 -10.046  -5.438  0.00  0.00    -0.126 OA
ATOM     31  O   UNK A   1       1.857  -8.089  -6.155  0.00  0.00    -0.126 OA
ENDBRANCH  26  29
ENDBRANCH  22  23
BRANCH  22  32
ATOM     32  O   UNK A   1      -2.091  -8.600  -0.150  0.00  0.00    -0.386 OA
ATOM     33  H   UNK A   1      -1.577  -9.386   0.081  0.00  0.00    +0.210 HD
ENDBRANCH  22  32
ENDBRANCH  18  22
ENDBRANCH   1  18
TORSDOF 8
