REMARK  Name = ZINC20928645
REMARK  7 active torsions:
REMARK  status: ('A' for Active; 'I' for Inactive)
REMARK    1  A    between atoms: C_1  and  C_2
REMARK    2  A    between atoms: C_7  and  N_8
REMARK    3  A    between atoms: N_12  and  S_27
REMARK    4  A    between atoms: C_14  and  C_15
REMARK    5  A    between atoms: C_14  and  C_16
REMARK    6  A    between atoms: N_18  and  C_19
REMARK    7  A    between atoms: S_27  and  C_30
REMARK                            x       y       z     vdW  Elec       q    Type
REMARK                         _______ _______ _______ _____ _____    ______ ____
ROOT
ATOM      1  N   UNL     1      -0.431  -3.078  -5.519  0.00  0.00    -0.254 N 
ATOM      2  C   UNL     1      -0.605  -4.297  -6.030  0.00  0.00    +0.236 C 
ATOM      3  O   UNL     1      -1.651  -4.872  -5.814  0.00  0.00    -0.274 OA
ATOM      4  C   UNL     1       0.437  -4.993  -6.862  0.00  0.00    +0.205 C 
ATOM      5  N   UNL     1       1.469  -4.018  -7.246  0.00  0.00    -0.165 NA
ATOM      6  C   UNL     1       1.927  -3.076  -6.211  0.00  0.00    +0.145 C 
ATOM      7  C   UNL     1       0.729  -2.234  -5.768  0.00  0.00    +0.129 C 
ATOM      8  C   UNL     1       0.391  -1.224  -6.866  0.00  0.00    +0.043 C 
ENDROOT
BRANCH   1  15
ATOM      9  C   UNL     1      -0.360  -3.770  -2.760  0.00  0.00    +0.045 C 
ATOM     10  C   UNL     1      -1.438  -2.886  -3.332  0.00  0.00    -0.029 A 
ATOM     11  C   UNL     1      -2.428  -2.382  -2.511  0.00  0.00    +0.005 A 
ATOM     12  C   UNL     1      -3.421  -1.576  -3.037  0.00  0.00    +0.000 A 
ATOM     13  C   UNL     1      -3.424  -1.268  -4.385  0.00  0.00    +0.002 A 
ATOM     14  C   UNL     1      -2.434  -1.764  -5.210  0.00  0.00    +0.024 A 
ATOM     15  C   UNL     1      -1.435  -2.574  -4.685  0.00  0.00    +0.040 A 
ENDBRANCH   1  15
BRANCH   7  16
ATOM     16  C   UNL     1       1.084  -1.493  -4.505  0.00  0.00    +0.238 C 
ATOM     17  O   UNL     1       2.137  -1.716  -3.946  0.00  0.00    -0.273 OA
ATOM     18  N   UNL     1       0.231  -0.582  -3.996  0.00  0.00    -0.311 N 
ATOM     19  H   UNL     1      -0.758  -0.438  -4.455  0.00  0.00    +0.149 HD
BRANCH  18  20
ATOM     20  C   UNL     1       0.622   0.217  -2.832  0.00  0.00    +0.073 C 
ATOM     21  C   UNL     1      -0.631   0.770  -2.149  0.00  0.00    +0.022 C 
ATOM     22  C   UNL     1      -0.273   1.255  -0.743  0.00  0.00    +0.002 C 
ATOM     23  C   UNL     1       0.462   2.594  -0.837  0.00  0.00    +0.000 C 
ATOM     24  C   UNL     1       1.912   2.414  -0.384  0.00  0.00    +0.000 C 
ATOM     25  C   UNL     1       2.483   1.134  -0.997  0.00  0.00    +0.000 C 
ATOM     26  C   UNL     1       2.806   1.376  -2.473  0.00  0.00    +0.002 C 
ATOM     27  C   UNL     1       1.509   1.378  -3.285  0.00  0.00    +0.022 C 
ENDBRANCH  18  20
ENDBRANCH   7  16
BRANCH   5  28
ATOM     28  S   UNL     1       2.091  -3.982  -8.780  0.00  0.00    +0.061 S 
ATOM     29  O   UNL     1       1.112  -4.566  -9.629  0.00  0.00    -0.153 OA
ATOM     30  O   UNL     1       2.589  -2.667  -8.985  0.00  0.00    -0.153 OA
BRANCH  28  31
ATOM     31  C   UNL     1       3.485  -5.058  -8.803  0.00  0.00    +0.105 A 
ATOM     32  C   UNL     1       4.743  -4.567  -8.508  0.00  0.00    +0.028 A 
ATOM     33  C   UNL     1       5.837  -5.412  -8.522  0.00  0.00    +0.002 A 
ATOM     34  C   UNL     1       5.674  -6.748  -8.840  0.00  0.00    +0.000 A 
ATOM     35  C   UNL     1       4.417  -7.238  -9.140  0.00  0.00    +0.002 A 
ATOM     36  C   UNL     1       3.322  -6.394  -9.122  0.00  0.00    +0.028 A 
ENDBRANCH  28  31
ENDBRANCH   5  28
TORSDOF 5
