REMARK  Name = ZINC13215638
REMARK  8 active torsions:
REMARK  status: ('A' for Active; 'I' for Inactive)
REMARK    1  A    between atoms: C_1  and  C_2
REMARK    2  A    between atoms: C_5  and  C_8
REMARK    3  A    between atoms: C_8  and  C_10
REMARK    4  A    between atoms: N_14  and  C_26
REMARK    5  A    between atoms: C_15  and  C_17
REMARK    6  A    between atoms: C_22  and  N_23
REMARK    7  A    between atoms: C_28  and  C_33
REMARK    8  A    between atoms: C_31  and  C_32
REMARK                            x       y       z     vdW  Elec       q    Type
REMARK                         _______ _______ _______ _____ _____    ______ ____
ROOT
ATOM      1  C   UNL     1       0.417  -5.002   1.241  0.00  0.00    +0.077 C 
ATOM      2  C   UNL     1       0.461  -6.350   1.129  0.00  0.00    +0.250 C 
ATOM      3  C   UNL     1       0.244  -6.955   2.460  0.00  0.00    +0.292 C 
ATOM      4  O   UNL     1       0.227  -8.148   2.690  0.00  0.00    -0.266 OA
ATOM      5  N   UNL     1       0.070  -5.989   3.381  0.00  0.00    -0.253 N 
ATOM      6  C   UNL     1       0.169  -4.693   2.699  0.00  0.00    +0.152 C 
ATOM      7  O   UNL     1       0.669  -7.035  -0.018  0.00  0.00    -0.282 OA
ENDROOT
BRANCH   5   8
ATOM      8  C   UNL     1      -0.161  -6.185   4.745  0.00  0.00    +0.041 A 
ATOM      9  C   UNL     1       0.897  -6.135   5.641  0.00  0.00    +0.039 A 
ATOM     10  C   UNL     1       0.661  -6.332   7.003  0.00  0.00    +0.065 A 
ATOM     11  C   UNL     1      -0.639  -6.578   7.453  0.00  0.00    +0.015 A 
ATOM     12  C   UNL     1      -1.683  -6.626   6.553  0.00  0.00    +0.006 A 
ATOM     13  C   UNL     1      -1.450  -6.425   5.205  0.00  0.00    -0.029 A 
ATOM     14  C   UNL     1      -2.598  -6.473   4.230  0.00  0.00    +0.045 C 
BRANCH  10  15
ATOM     15  C   UNL     1       1.780  -6.281   7.963  0.00  0.00    +0.387 C 
ATOM     16  O   UNL     1       2.917  -6.066   7.566  0.00  0.00    -0.241 OA
ATOM     17  O   UNL     1       1.571  -6.454   9.155  0.00  0.00    -0.241 OA
ENDBRANCH  10  15
ENDBRANCH   5   8
BRANCH   6  18
ATOM     18  C   UNL     1      -1.121  -3.929   2.854  0.00  0.00    +0.008 A 
ATOM     19  C   UNL     1      -2.077  -3.977   1.856  0.00  0.00    +0.008 A 
ATOM     20  C   UNL     1      -3.260  -3.276   1.999  0.00  0.00    +0.000 A 
ATOM     21  C   UNL     1      -3.488  -2.529   3.139  0.00  0.00    +0.002 A 
ATOM     22  C   UNL     1      -2.533  -2.483   4.138  0.00  0.00    +0.033 A 
ATOM     23  C   UNL     1      -1.352  -3.187   3.997  0.00  0.00    +0.131 A 
BRANCH  23  24
ATOM     24  N   UNL     1      -0.331  -3.141   5.069  0.00  0.00    +0.057 N 
ATOM     25  O   UNL     1      -0.576  -2.584   6.113  0.00  0.00    -0.126 OA
ATOM     26  O   UNL     1       0.747  -3.661   4.899  0.00  0.00    -0.126 OA
ENDBRANCH  23  24
ENDBRANCH   6  18
BRANCH   1  27
ATOM     27  C   UNL     1       0.586  -4.029   0.158  0.00  0.00    +0.195 C 
ATOM     28  O   UNL     1      -0.245  -3.955  -0.728  0.00  0.00    -0.287 OA
BRANCH  27  33
ATOM     29  C   UNL     1       5.175  -0.557   0.096  0.00  0.00    +0.044 C 
ATOM     30  C   UNL     1       3.973  -1.466   0.112  0.00  0.00    -0.050 A 
ATOM     31  C   UNL     1       3.071  -1.433  -0.937  0.00  0.00    +0.004 A 
ATOM     32  C   UNL     1       1.969  -2.263  -0.928  0.00  0.00    +0.012 A 
ATOM     33  C   UNL     1       1.765  -3.137   0.142  0.00  0.00    +0.022 A 
ATOM     34  C   UNL     1       2.680  -3.165   1.197  0.00  0.00    +0.012 A 
ATOM     35  C   UNL     1       3.780  -2.333   1.173  0.00  0.00    +0.004 A 
ENDBRANCH  27  33
ENDBRANCH   1  27
TORSDOF 6
