REMARK  Name = ZINC13499493
REMARK  12 active torsions:
REMARK  status: ('A' for Active; 'I' for Inactive)
REMARK    1  A    between atoms: C_1  and  C_2
REMARK    2  A    between atoms: C_2  and  C_3
REMARK    3  A    between atoms: C_3  and  C_4
REMARK    4  A    between atoms: C_4  and  C_6
REMARK    5  A    between atoms: C_4  and  N_72
REMARK    6  A    between atoms: N_10  and  C_11
REMARK    7  A    between atoms: C_11  and  C_12
REMARK    8  A    between atoms: C_18  and  C_19
REMARK    9  A    between atoms: C_18  and  N_72
REMARK   10  A    between atoms: C_23  and  C_32
REMARK   11  A    between atoms: C_24  and  C_31
REMARK   12  A    between atoms: C_33  and  N_72
REMARK                            x       y       z     vdW  Elec       q    Type
REMARK                         _______ _______ _______ _____ _____    ______ ____
ROOT
ATOM      1  N   UNL     1      -5.712   3.605  -1.178  0.00  0.00    +0.391 N 
ATOM      2  H   UNL     1      -5.537   2.595  -1.235  0.00  0.00    -0.080 HD
ENDROOT
BRANCH   1   3
ATOM      3  C   UNL     1      -4.601   4.322  -1.838  0.00  0.00    -0.067 C 
ATOM      4  C   UNL     1      -4.655   4.075  -3.360  0.00  0.00    -0.015 C 
ATOM      5  C   UNL     1      -3.168   3.944  -3.776  0.00  0.00    -0.002 C 
ATOM      6  C   UNL     1      -2.546   3.172  -2.586  0.00  0.00    -0.002 C 
ATOM      7  C   UNL     1      -3.260   3.748  -1.346  0.00  0.00    -0.015 C 
ENDBRANCH   1   3
BRANCH   1   8
ATOM      8  C   UNL     1      -6.987   3.910  -1.861  0.00  0.00    +0.003 C 
BRANCH   8   9
ATOM      9  C   UNL     1      -7.919   2.740  -1.682  0.00  0.00    +0.138 A 
ATOM     10  N   UNL     1      -7.876   1.844  -0.726  0.00  0.00    -0.115 NA
ATOM     11  N   UNL     1      -8.839   1.010  -0.919  0.00  0.00    -0.023 NA
ATOM     12  N   UNL     1      -9.495   1.350  -1.974  0.00  0.00    -0.044 NA
ATOM     13  N   UNL     1      -8.961   2.415  -2.469  0.00  0.00    -0.226 N 
BRANCH  13  14
ATOM     14  C   UNL     1      -9.405   3.134  -3.666  0.00  0.00    +0.182 C 
BRANCH  14  15
ATOM     15  C   UNL     1      -8.780   2.510  -4.888  0.00  0.00    -0.026 A 
ATOM     16  C   UNL     1      -7.636   3.060  -5.436  0.00  0.00    +0.005 A 
ATOM     17  C   UNL     1      -7.060   2.485  -6.553  0.00  0.00    +0.000 A 
ATOM     18  C   UNL     1      -7.634   1.367  -7.128  0.00  0.00    +0.000 A 
ATOM     19  C   UNL     1      -8.780   0.820  -6.583  0.00  0.00    +0.000 A 
ATOM     20  C   UNL     1      -9.354   1.392  -5.463  0.00  0.00    +0.005 A 
ENDBRANCH  14  15
ENDBRANCH  13  14
ENDBRANCH   8   9
BRANCH   8  21
ATOM     21  C   UNL     1      -7.624   5.166  -1.265  0.00  0.00    -0.008 C 
BRANCH  21  23
ATOM     22  C   UNL     1      -7.432   7.651  -1.082  0.00  0.00    +0.004 C 
ATOM     23  C   UNL     1      -6.722   6.372  -1.532  0.00  0.00    -0.005 C 
ENDBRANCH  21  23
ENDBRANCH   8  21
ENDBRANCH   1   8
BRANCH   1  24
ATOM     24  C   UNL     1      -5.793   3.999   0.244  0.00  0.00    -0.036 C 
BRANCH  24  25
ATOM     25  C   UNL     1      -4.681   3.318   0.999  0.00  0.00    +0.001 A 
ATOM     26  C   UNL     1      -3.511   3.971   1.212  0.00  0.00    +0.017 A 
ATOM     27  C   UNL     1      -2.450   3.282   1.949  0.00  0.00    -0.001 A 
ATOM     28  C   UNL     1      -1.222   3.903   2.199  0.00  0.00    +0.013 A 
ATOM     29  C   UNL     1      -0.253   3.233   2.890  0.00  0.00    -0.047 A 
ATOM     30  C   UNL     1      -0.476   1.941   3.346  0.00  0.00    -0.046 A 
ATOM     31  C   UNL     1      -1.678   1.309   3.111  0.00  0.00    +0.030 A 
ATOM     32  C   UNL     1      -2.678   1.970   2.405  0.00  0.00    +0.049 A 
ATOM     33  N   UNL     1      -3.892   1.364   2.161  0.00  0.00    -0.322 N 
ATOM     34  H   UNL     1      -4.049   0.462   2.479  0.00  0.00    +0.169 HD
ATOM     35  C   UNL     1      -4.860   2.005   1.482  0.00  0.00    +0.251 A 
ATOM     36  O   UNL     1      -5.919   1.437   1.280  0.00  0.00    -0.268 OA
ATOM     37  C   UNL     1       0.609   1.221   4.106  0.00  0.00    +0.044 C 
ATOM     38  C   UNL     1       1.070   3.902   3.159  0.00  0.00    +0.044 C 
ENDBRANCH  24  25
ENDBRANCH   1  24
TORSDOF 9
