REMARK  Name = ZINC64581608
REMARK  13 active torsions:
REMARK  status: ('A' for Active; 'I' for Inactive)
REMARK    1  A    between atoms: C_1  and  C_2
REMARK    2  A    between atoms: C_2  and  C_3
REMARK    3  A    between atoms: C_3  and  N_4
REMARK    4  A    between atoms: C_10  and  C_30
REMARK    5  A    between atoms: N_16  and  C_19
REMARK    6  A    between atoms: C_19  and  C_20
REMARK    7  A    between atoms: C_20  and  C_22
REMARK    8  A    between atoms: C_24  and  C_29
REMARK    9  A    between atoms: C_27  and  C_28
REMARK   10  A    between atoms: N_32  and  C_33
REMARK   11  A    between atoms: C_33  and  C_35
REMARK   12  A    between atoms: C_33  and  C_36
REMARK   13  A    between atoms: C_36  and  C_37
REMARK                            x       y       z     vdW  Elec       q    Type
REMARK                         _______ _______ _______ _____ _____    ______ ____
ROOT
ATOM      1  N   UNL     1       0.768  -0.519   0.777  0.00  0.00    -0.277 N 
ATOM      2  C   UNL     1      -0.297  -1.006   1.444  0.00  0.00    +0.263 A 
ATOM      3  O   UNL     1      -1.173  -0.260   1.837  0.00  0.00    -0.267 OA
ATOM      4  C   UNL     1      -0.384  -2.460   1.689  0.00  0.00    +0.064 A 
ATOM      5  C   UNL     1      -1.467  -3.010   2.373  0.00  0.00    +0.016 A 
ATOM      6  C   UNL     1      -1.523  -4.370   2.587  0.00  0.00    +0.014 A 
ATOM      7  C   UNL     1      -0.499  -5.198   2.120  0.00  0.00    +0.039 A 
ATOM      8  C   UNL     1       0.586  -4.654   1.436  0.00  0.00    +0.040 A 
ATOM      9  C   UNL     1       0.646  -3.287   1.218  0.00  0.00    +0.067 A 
ATOM     10  N   UNL     1       1.722  -2.719   0.535  0.00  0.00    -0.229 N 
ATOM     11  C   UNL     1       1.772  -1.360   0.317  0.00  0.00    +0.240 A 
ATOM     12  N   UNL     1       2.865  -1.089  -0.343  0.00  0.00    -0.129 NA
ATOM     13  N   UNL     1       3.547  -2.291  -0.571  0.00  0.00    -0.203 N 
ATOM     14  C   UNL     1       2.821  -3.279  -0.011  0.00  0.00    +0.353 A 
ATOM     15  O   UNL     1       3.102  -4.465  -0.009  0.00  0.00    -0.244 OA
ENDROOT
BRANCH   7  16
ATOM     16  C   UNL     1      -0.567  -6.658   2.355  0.00  0.00    +0.244 C 
ATOM     17  O   UNL     1       0.323  -7.380   1.950  0.00  0.00    -0.270 OA
ATOM     18  N   UNL     1      -1.615  -7.186   3.017  0.00  0.00    -0.309 N 
ATOM     19  H   UNL     1      -2.325  -6.610   3.340  0.00  0.00    +0.149 HD
BRANCH  18  20
ATOM     20  C   UNL     1      -1.682  -8.631   3.249  0.00  0.00    +0.070 C 
ATOM     21  C   UNL     1      -0.894  -8.982   4.514  0.00  0.00    +0.028 C 
BRANCH  20  22
ATOM     22  C   UNL     1      -3.142  -9.052   3.425  0.00  0.00    +0.018 C 
ATOM     23  C   UNL     1      -3.902  -8.817   2.118  0.00  0.00    +0.005 C 
ENDBRANCH  20  22
ENDBRANCH  18  20
ENDBRANCH   7  16
BRANCH   1  24
ATOM     24  C   UNL     1       0.865   0.921   0.528  0.00  0.00    +0.128 C 
BRANCH  24  26
ATOM     25  C   UNL     1       0.289   2.760  -1.063  0.00  0.00    +0.005 C 
ATOM     26  C   UNL     1       0.189   1.256  -0.803  0.00  0.00    +0.018 C 
ENDBRANCH  24  26
ENDBRANCH   1  24
BRANCH  13  27
ATOM     27  C   UNL     1       4.821  -2.444  -1.278  0.00  0.00    +0.228 C 
BRANCH  27  28
ATOM     28  C   UNL     1       4.558  -2.661  -2.746  0.00  0.00    +0.185 C 
ATOM     29  O   UNL     1       3.419  -2.684  -3.161  0.00  0.00    -0.290 OA
BRANCH  28  30
ATOM     30  C   UNL     1       5.684  -2.843  -3.676  0.00  0.00    +0.022 A 
ATOM     31  C   UNL     1       7.000  -2.692  -3.226  0.00  0.00    +0.015 A 
ATOM     32  C   UNL     1       8.049  -2.865  -4.103  0.00  0.00    -0.050 A 
ATOM     33  C   UNL     1       7.803  -3.187  -5.426  0.00  0.00    +0.003 A 
ATOM     34  C   UNL     1       6.505  -3.338  -5.880  0.00  0.00    +0.004 A 
ATOM     35  C   UNL     1       5.444  -3.174  -5.013  0.00  0.00    -0.040 A 
ATOM     36  C   UNL     1       4.031  -3.345  -5.508  0.00  0.00    +0.044 C 
ATOM     37  C   UNL     1       9.467  -2.702  -3.620  0.00  0.00    +0.044 C 
ENDBRANCH  28  30
ENDBRANCH  27  28
ENDBRANCH  13  27
TORSDOF 8
