REMARK  Name = ZINC08779295
REMARK  11 active torsions:
REMARK  status: ('A' for Active; 'I' for Inactive)
REMARK    1  A    between atoms: C_1  and  C_2
REMARK    2  A    between atoms: C_2  and  O_3
REMARK    3  A    between atoms: O_3  and  C_4
REMARK    4  A    between atoms: C_4  and  C_6
REMARK    5  A    between atoms: C_7  and  C_34
REMARK    6  A    between atoms: C_12  and  C_25
REMARK    7  A    between atoms: C_13  and  C_18
REMARK    8  A    between atoms: C_18  and  C_20
REMARK    9  A    between atoms: C_28  and  C_31
REMARK   10  A    between atoms: C_31  and  C_32
REMARK   11  A    between atoms: C_31  and  C_33
REMARK                            x       y       z     vdW  Elec       q    Type
REMARK                         _______ _______ _______ _____ _____    ______ ____
ROOT
ATOM      1  C   UNL     1       1.346  -2.488   2.526  0.00  0.00    +0.120 A 
ATOM      2  C   UNL     1       1.572  -3.805   2.907  0.00  0.00    +0.062 A 
ATOM      3  N   UNL     1       2.262  -3.982   4.004  0.00  0.00    -0.229 NA
ATOM      4  C   UNL     1       2.717  -2.959   4.706  0.00  0.00    +0.169 A 
ATOM      5  S   UNL     1       2.192  -1.618   3.836  0.00  0.00    -0.045 S 
ATOM      6  N   UNL     1       3.454  -2.984   5.875  0.00  0.00    -0.232 N 
ATOM      7  C   UNL     1       3.931  -1.814   6.621  0.00  0.00    +0.152 C 
ATOM      8  C   UNL     1       4.681  -2.355   7.816  0.00  0.00    +0.077 C 
ATOM      9  C   UNL     1       4.623  -3.704   7.735  0.00  0.00    +0.250 C 
ATOM     10  C   UNL     1       3.857  -4.086   6.533  0.00  0.00    +0.293 C 
ATOM     11  O   UNL     1       3.625  -5.228   6.188  0.00  0.00    -0.266 OA
ATOM     12  O   UNL     1       5.177  -4.567   8.619  0.00  0.00    -0.282 OA
ATOM     13  C   UNL     1       1.050  -4.966   2.101  0.00  0.00    +0.067 C 
ENDROOT
BRANCH   7  14
ATOM     14  C   UNL     1       4.852  -0.990   5.760  0.00  0.00    -0.022 A 
ATOM     15  C   UNL     1       5.836  -1.609   5.011  0.00  0.00    +0.006 A 
ATOM     16  C   UNL     1       6.681  -0.853   4.221  0.00  0.00    +0.004 A 
ATOM     17  C   UNL     1       6.543   0.522   4.178  0.00  0.00    -0.045 A 
ATOM     18  C   UNL     1       5.558   1.141   4.926  0.00  0.00    +0.004 A 
ATOM     19  C   UNL     1       4.710   0.384   5.713  0.00  0.00    +0.006 A 
BRANCH  17  20
ATOM     20  C   UNL     1       7.465   1.346   3.318  0.00  0.00    +0.013 C 
ATOM     21  C   UNL     1       6.643   2.116   2.282  0.00  0.00    +0.012 C 
ATOM     22  C   UNL     1       8.234   2.335   4.196  0.00  0.00    +0.012 C 
ENDBRANCH  17  20
ENDBRANCH   7  14
BRANCH   1  23
ATOM     23  C   UNL     1       0.623  -1.962   1.370  0.00  0.00    +0.348 C 
ATOM     24  O   UNL     1       0.107  -2.726   0.576  0.00  0.00    -0.244 OA
BRANCH  23  25
ATOM     25  O   UNL     1       0.527  -0.629   1.184  0.00  0.00    -0.461 OA
BRANCH  25  27
ATOM     26  C   UNL     1      -0.195   1.345  -0.009  0.00  0.00    +0.048 C 
ATOM     27  C   UNL     1      -0.194  -0.185   0.033  0.00  0.00    +0.229 C 
ENDBRANCH  25  27
ENDBRANCH  23  25
ENDBRANCH   1  23
BRANCH   8  28
ATOM     28  C   UNL     1       5.346  -1.569   8.862  0.00  0.00    +0.202 C 
ATOM     29  O   UNL     1       6.558  -1.613   8.980  0.00  0.00    -0.286 OA
BRANCH  28  30
ATOM     30  C   UNL     1       4.552  -0.730   9.764  0.00  0.00    +0.059 A 
ATOM     31  C   UNL     1       4.983   0.156  10.743  0.00  0.00    +0.019 A 
ATOM     32  C   UNL     1       3.993   0.807  11.436  0.00  0.00    +0.008 A 
ATOM     33  C   UNL     1       2.695   0.551  11.129  0.00  0.00    +0.046 A 
ATOM     34  S   UNL     1       2.780  -0.576   9.886  0.00  0.00    -0.093 S 
ENDBRANCH  28  30
ENDBRANCH   8  28
TORSDOF 7
