REMARK  Name = ZINC11662541
REMARK  7 active torsions:
REMARK  status: ('A' for Active; 'I' for Inactive)
REMARK    1  A    between atoms: C_1  and  N_2
REMARK    2  A    between atoms: C_4  and  C_19
REMARK    3  A    between atoms: C_5  and  C_7
REMARK    4  A    between atoms: C_10  and  C_13
REMARK    5  A    between atoms: C_19  and  N_58
REMARK    6  A    between atoms: C_20  and  C_21
REMARK    7  A    between atoms: C_20  and  N_58
REMARK                            x       y       z     vdW  Elec       q    Type
REMARK                         _______ _______ _______ _____ _____    ______ ____
ROOT
ATOM      1  C   UNL     1      10.336  -3.993  -1.189  0.00  0.00    +0.172 C 
ATOM      2  N   UNL     1       9.628  -2.845  -0.617  0.00  0.00    -0.274 N 
ATOM      3  C   UNL     1       8.811  -2.874   0.458  0.00  0.00    +0.110 A 
ATOM      4  C   UNL     1       8.356  -1.619   0.669  0.00  0.00    -0.019 A 
ATOM      5  C   UNL     1       8.912  -0.786  -0.321  0.00  0.00    +0.094 A 
ATOM      6  N   UNL     1       9.681  -1.528  -1.089  0.00  0.00    -0.171 NA
ENDROOT
BRANCH   5   7
ATOM      7  C   UNL     1       8.675   0.671  -0.470  0.00  0.00    +0.002 A 
ATOM      8  C   UNL     1       7.426   1.211  -0.171  0.00  0.00    +0.010 A 
ATOM      9  C   UNL     1       7.213   2.568  -0.305  0.00  0.00    +0.004 A 
ATOM     10  C   UNL     1       8.233   3.390  -0.746  0.00  0.00    -0.044 A 
ATOM     11  C   UNL     1       9.474   2.859  -1.050  0.00  0.00    +0.004 A 
ATOM     12  C   UNL     1       9.700   1.504  -0.913  0.00  0.00    +0.010 A 
BRANCH  10  13
ATOM     13  C   UNL     1       7.993   4.870  -0.896  0.00  0.00    +0.019 C 
ATOM     14  C   UNL     1       7.597   5.463   0.458  0.00  0.00    +0.008 C 
ATOM     15  C   UNL     1       7.354   6.966   0.305  0.00  0.00    +0.001 C 
ATOM     16  C   UNL     1       6.227   7.200  -0.703  0.00  0.00    +0.000 C 
ATOM     17  C   UNL     1       6.622   6.607  -2.057  0.00  0.00    +0.001 C 
ATOM     18  C   UNL     1       6.867   5.105  -1.905  0.00  0.00    +0.008 C 
ENDBRANCH  10  13
ENDBRANCH   5   7
BRANCH   4  19
ATOM     19  C   UNL     1       7.414  -1.190   1.764  0.00  0.00    -0.043 C 
BRANCH  19  20
ATOM     20  N   UNL     1       6.051  -1.076   1.213  0.00  0.00    +0.384 N 
ATOM     21  H   UNL     1       5.759  -1.987   0.840  0.00  0.00    -0.085 HD
ATOM     22  H   UNL     1       6.048  -0.380   0.458  0.00  0.00    -0.085 HD
BRANCH  20  23
ATOM     23  C   UNL     1       5.107  -0.655   2.265  0.00  0.00    -0.046 C 
BRANCH  23  24
ATOM     24  C   UNL     1       3.725  -0.548   1.674  0.00  0.00    -0.061 A 
ATOM     25  C   UNL     1       2.885  -1.646   1.677  0.00  0.00    +0.005 A 
ATOM     26  C   UNL     1       1.617  -1.553   1.135  0.00  0.00    +0.050 A 
ATOM     27  C   UNL     1       1.183  -0.356   0.589  0.00  0.00    +0.166 A 
ATOM     28  C   UNL     1       2.028   0.751   0.586  0.00  0.00    +0.166 A 
ATOM     29  C   UNL     1       3.298   0.650   1.131  0.00  0.00    +0.051 A 
ATOM     30  O   UNL     1       1.376   1.797  -0.001  0.00  0.00    -0.453 OA
ATOM     31  C   UNL     1      -0.018   1.436   0.010  0.00  0.00    +0.466 C 
ATOM     32  O   UNL     1       0.002  -0.004   0.002  0.00  0.00    -0.453 OA
ENDBRANCH  23  24
ENDBRANCH  20  23
ENDBRANCH  19  20
ENDBRANCH   4  19
TORSDOF 6
