REMARK  Name = ZINC45257705
REMARK  10 active torsions:
REMARK  status: ('A' for Active; 'I' for Inactive)
REMARK    1  A    between atoms: C_1  and  C_2
REMARK    2  A    between atoms: C_6  and  C_35
REMARK    3  A    between atoms: C_7  and  N_8
REMARK    4  A    between atoms: C_9  and  C_11
REMARK    5  A    between atoms: C_11  and  N_12
REMARK    6  A    between atoms: C_13  and  C_15
REMARK    7  A    between atoms: C_15  and  C_17
REMARK    8  A    between atoms: C_15  and  O_18
REMARK    9  A    between atoms: O_18  and  C_19
REMARK   10  A    between atoms: C_19  and  C_21
REMARK                            x       y       z     vdW  Elec       q    Type
REMARK                         _______ _______ _______ _____ _____    ______ ____
ROOT
ATOM      1  C   UNL     1      -0.455  -1.225   8.394  0.00  0.00    +0.259 C 
ATOM      2  C   UNL     1       0.805  -2.084   8.507  0.00  0.00    +0.062 C 
ENDROOT
BRANCH   1   4
ATOM      3  N   UNL     1      -0.231  -0.746   5.978  0.00  0.00    -0.304 N 
ATOM      4  C   UNL     1      -0.311  -0.271   7.236  0.00  0.00    +0.254 C 
ATOM      5  O   UNL     1      -0.268   0.924   7.437  0.00  0.00    -0.272 OA
ATOM      6  H   UNL     1      -0.265  -1.702   5.817  0.00  0.00    +0.149 HD
BRANCH   3   7
ATOM      7  C   UNL     1      -0.090   0.181   4.852  0.00  0.00    +0.200 C 
BRANCH   7   9
ATOM      8  N   UNL     1       0.108   0.050   2.390  0.00  0.00    -0.284 N 
ATOM      9  C   UNL     1      -0.022  -0.598   3.564  0.00  0.00    +0.234 C 
ATOM     10  O   UNL     1      -0.085  -1.810   3.584  0.00  0.00    -0.274 OA
ATOM     11  H   UNL     1       0.224   1.013   2.378  0.00  0.00    +0.155 HD
BRANCH   8  18
ATOM     12  C   UNL     1       2.558  -0.356   1.002  0.00  0.00    +0.045 C 
ATOM     13  C   UNL     1       1.249  -0.887   0.479  0.00  0.00    -0.029 A 
ATOM     14  C   UNL     1       1.214  -1.599  -0.704  0.00  0.00    +0.005 A 
ATOM     15  C   UNL     1       0.013  -2.087  -1.185  0.00  0.00    +0.001 A 
ATOM     16  C   UNL     1      -1.158  -1.863  -0.484  0.00  0.00    +0.005 A 
ATOM     17  C   UNL     1      -1.130  -1.152   0.700  0.00  0.00    -0.029 A 
ATOM     18  C   UNL     1       0.076  -0.666   1.188  0.00  0.00    +0.039 A 
ATOM     19  C   UNL     1      -2.406  -0.908   1.463  0.00  0.00    +0.045 C 
ENDBRANCH   8  18
ENDBRANCH   7   9
ENDBRANCH   3   7
ENDBRANCH   1   4
BRANCH   1  20
ATOM     20  O   UNL     1      -0.636  -0.484   9.602  0.00  0.00    -0.449 OA
BRANCH  20  21
ATOM     21  C   UNL     1      -1.367  -1.065  10.573  0.00  0.00    +0.340 C 
ATOM     22  O   UNL     1      -1.838  -2.172  10.399  0.00  0.00    -0.245 OA
BRANCH  21  23
ATOM     23  C   UNL     1      -1.596  -0.359  11.848  0.00  0.00    +0.060 A 
ATOM     24  C   UNL     1      -1.057   0.920  12.046  0.00  0.00    +0.017 A 
ATOM     25  C   UNL     1      -1.260   1.585  13.219  0.00  0.00    +0.027 A 
ATOM     26  C   UNL     1      -2.007   1.000  14.239  0.00  0.00    +0.047 A 
ATOM     27  C   UNL     1      -2.555  -0.286  14.052  0.00  0.00    +0.004 A 
ATOM     28  C   UNL     1      -2.351  -0.961  12.851  0.00  0.00    +0.025 A 
ATOM     29  C   UNL     1      -3.266  -0.600  15.289  0.00  0.00    -0.019 A 
ATOM     30  C   UNL     1      -3.120   0.455  16.113  0.00  0.00    +0.020 A 
ATOM     31  N   UNL     1      -2.370   1.417  15.498  0.00  0.00    -0.358 N 
ATOM     32  H   UNL     1      -2.129   2.270  15.891  0.00  0.00    +0.166 HD
ATOM     33  C   UNL     1      -3.715   0.521  17.501  0.00  0.00    +0.053 C 
ATOM     34  C   UNL     1      -4.802  -0.553  17.617  0.00  0.00    +0.006 C 
ATOM     35  C   UNL     1      -4.244  -1.899  17.143  0.00  0.00    +0.005 C 
ATOM     36  C   UNL     1      -4.032  -1.853  15.625  0.00  0.00    +0.037 C 
ENDBRANCH  21  23
ENDBRANCH  20  21
ENDBRANCH   1  20
TORSDOF 7
