REMARK  Name = ZINC63557512
REMARK  8 active torsions:
REMARK  status: ('A' for Active; 'I' for Inactive)
REMARK    1  A    between atoms: C_1  and  C_2
REMARK    2  A    between atoms: C_2  and  C_3
REMARK    3  A    between atoms: C_5  and  C_32
REMARK    4  A    between atoms: C_7  and  N_10
REMARK    5  A    between atoms: C_11  and  C_13
REMARK    6  A    between atoms: N_18  and  C_20
REMARK    7  A    between atoms: C_20  and  C_21
REMARK    8  A    between atoms: C_21  and  C_22
REMARK                            x       y       z     vdW  Elec       q    Type
REMARK                         _______ _______ _______ _____ _____    ______ ____
ROOT
ATOM      1  C   UNL     1       5.707  -4.340   0.348  0.00  0.00    +0.101 C 
ATOM      2  C   UNL     1       5.129  -4.763  -1.023  0.00  0.00    +0.110 C 
ATOM      3  C   UNL     1       5.851  -6.052  -1.348  0.00  0.00    +0.216 C 
ATOM      4  O   UNL     1       5.900  -6.563  -2.447  0.00  0.00    -0.276 OA
ATOM      5  N   UNL     1       6.431  -6.549  -0.241  0.00  0.00    -0.300 N 
ATOM      6  C   UNL     1       6.175  -5.695   0.925  0.00  0.00    +0.121 C 
ENDROOT
BRANCH   1   8
ATOM      7  N   UNL     1       4.057  -2.567   0.847  0.00  0.00    -0.285 N 
ATOM      8  C   UNL     1       4.640  -3.724   1.216  0.00  0.00    +0.220 C 
ATOM      9  O   UNL     1       4.307  -4.270   2.246  0.00  0.00    -0.275 OA
ATOM     10  H   UNL     1       4.324  -2.130   0.023  0.00  0.00    +0.152 HD
BRANCH   7  14
ATOM     11  C   UNL     1       0.735  -0.508   1.287  0.00  0.00    +0.099 C 
ATOM     12  C   UNL     1       0.660  -2.026   1.353  0.00  0.00    +0.059 C 
ATOM     13  N   UNL     1       1.734  -2.678   1.540  0.00  0.00    -0.254 NA
ATOM     14  C   UNL     1       3.020  -1.968   1.691  0.00  0.00    +0.252 C 
ATOM     15  S   UNL     1       2.558  -0.283   1.088  0.00  0.00    -0.106 S 
BRANCH  12  16
ATOM     16  C   UNL     1      -0.631  -2.726   1.204  0.00  0.00    -0.003 A 
ATOM     17  C   UNL     1      -0.663  -4.061   0.796  0.00  0.00    +0.010 A 
ATOM     18  C   UNL     1      -1.873  -4.708   0.658  0.00  0.00    +0.001 A 
ATOM     19  C   UNL     1      -3.054  -4.038   0.922  0.00  0.00    +0.000 A 
ATOM     20  C   UNL     1      -3.030  -2.715   1.327  0.00  0.00    +0.001 A 
ATOM     21  C   UNL     1      -1.827  -2.057   1.475  0.00  0.00    +0.010 A 
ENDBRANCH  12  16
BRANCH  11  23
ATOM     22  C   UNL     1       0.157   1.551  -0.005  0.00  0.00    +0.005 C 
ATOM     23  C   UNL     1      -0.027   0.034   0.076  0.00  0.00    +0.017 C 
ENDBRANCH  11  23
ENDBRANCH   7  14
ENDBRANCH   1   8
BRANCH   5  24
ATOM     24  C   UNL     1       7.219  -7.784  -0.204  0.00  0.00    +0.112 C 
BRANCH  24  25
ATOM     25  C   UNL     1       8.688  -7.460  -0.479  0.00  0.00    +0.052 C 
BRANCH  25  26
ATOM     26  C   UNL     1       9.498  -8.730  -0.441  0.00  0.00    -0.040 C 
ATOM     27  C   UNL     1       9.851  -9.502  -1.494  0.00  0.00    +0.000 A 
ATOM     28  C   UNL     1       9.596  -9.393  -2.936  0.00  0.00    +0.030 A 
ATOM     29  C   UNL     1      10.090 -10.343  -3.763  0.00  0.00    +0.042 A 
ATOM     30  C   UNL     1      10.838 -11.426  -3.278  0.00  0.00    +0.022 A 
ATOM     31  C   UNL     1      11.114 -11.593  -1.968  0.00  0.00    +0.027 A 
ATOM     32  C   UNL     1      10.644 -10.654  -1.008  0.00  0.00    +0.043 A 
ATOM     33  N   UNL     1      10.776 -10.597   0.294  0.00  0.00    -0.380 N 
ATOM     34  C   UNL     1      10.087  -9.397   0.782  0.00  0.00    +0.144 C 
ATOM     35 CL   UNL     1       9.790 -10.219  -5.468  0.00  0.00    -0.084 Cl
ATOM     36  H   UNL     1      11.253 -11.238   0.844  0.00  0.00    +0.160 HD
ENDBRANCH  25  26
ENDBRANCH  24  25
ENDBRANCH   5  24
TORSDOF 7
