REMARK  Name = ZINC33249198
REMARK  9 active torsions:
REMARK  status: ('A' for Active; 'I' for Inactive)
REMARK    1  A    between atoms: C_1  and  C_2
REMARK    2  A    between atoms: C_5  and  N_8
REMARK    3  A    between atoms: C_9  and  C_11
REMARK    4  A    between atoms: C_11  and  C_30
REMARK    5  A    between atoms: N_24  and  C_25
REMARK    6  A    between atoms: C_25  and  C_26
REMARK    7  A    between atoms: C_26  and  C_27
REMARK    8  A    between atoms: C_27  and  C_28
REMARK    9  A    between atoms: C_27  and  C_29
REMARK                            x       y       z     vdW  Elec       q    Type
REMARK                         _______ _______ _______ _____ _____    ______ ____
ROOT
ATOM      1  C   UNL     1      -3.528  -2.436   4.541  0.00  0.00    +0.129 C 
ATOM      2  C   UNL     1      -4.076  -3.635   5.314  0.00  0.00    +0.159 C 
ATOM      3  N   UNL     1      -4.119  -3.314   6.742  0.00  0.00    -0.317 N 
ATOM      4  C   UNL     1      -4.939  -3.745   7.728  0.00  0.00    +0.069 A 
ATOM      5  C   UNL     1      -6.028  -4.614   7.748  0.00  0.00    +0.028 A 
ATOM      6  C   UNL     1      -6.640  -4.826   8.971  0.00  0.00    +0.002 A 
ATOM      7  C   UNL     1      -6.201  -4.209  10.132  0.00  0.00    +0.002 A 
ATOM      8  C   UNL     1      -5.133  -3.349  10.144  0.00  0.00    +0.030 A 
ATOM      9  C   UNL     1      -4.491  -3.110   8.919  0.00  0.00    +0.090 A 
ATOM     10  N   UNL     1      -3.448  -2.340   8.598  0.00  0.00    -0.223 NA
ATOM     11  C   UNL     1      -3.216  -2.437   7.321  0.00  0.00    +0.198 A 
ATOM     12  C   UNL     1      -2.190  -1.761   6.489  0.00  0.00    +0.283 C 
ATOM     13  O   UNL     1      -1.279  -1.128   6.986  0.00  0.00    -0.267 OA
ATOM     14  N   UNL     1      -2.322  -1.885   5.148  0.00  0.00    -0.279 N 
ATOM     15  C   UNL     1      -4.600  -1.345   4.497  0.00  0.00    +0.043 C 
ENDROOT
BRANCH   1  17
ATOM     16  N   UNL     1      -2.279  -3.813   2.910  0.00  0.00    -0.311 N 
ATOM     17  C   UNL     1      -3.213  -2.867   3.132  0.00  0.00    +0.238 C 
ATOM     18  O   UNL     1      -3.799  -2.362   2.198  0.00  0.00    -0.273 OA
ATOM     19  H   UNL     1      -1.788  -4.312   3.759  0.00  0.00    +0.149 HD
BRANCH  16  24
ATOM     20  C   UNL     1       2.089  -5.151   2.851  0.00  0.00    +0.007 C 
ATOM     21  C   UNL     1       0.879  -4.954   1.936  0.00  0.00    -0.014 C 
ATOM     22  C   UNL     1       0.443  -3.488   1.976  0.00  0.00    +0.005 C 
ATOM     23  C   UNL     1      -0.767  -3.290   1.060  0.00  0.00    +0.022 C 
ATOM     24  C   UNL     1      -1.918  -4.178   1.538  0.00  0.00    +0.073 C 
ATOM     25  C   UNL     1      -1.482  -5.644   1.498  0.00  0.00    +0.022 C 
ATOM     26  C   UNL     1      -0.272  -5.841   2.413  0.00  0.00    +0.005 C 
ENDBRANCH  16  24
ENDBRANCH   1  17
BRANCH  14  27
ATOM     27  C   UNL     1      -1.222  -1.454   4.281  0.00  0.00    +0.109 C 
BRANCH  27  28
ATOM     28  C   UNL     1      -1.330   0.051   4.029  0.00  0.00    +0.022 C 
BRANCH  28  29
ATOM     29  C   UNL     1      -0.097   0.530   3.260  0.00  0.00    -0.016 C 
ATOM     30  C   UNL     1      -0.054  -0.151   1.891  0.00  0.00    +0.007 C 
ATOM     31  C   UNL     1      -0.169   2.047   3.074  0.00  0.00    +0.007 C 
ENDBRANCH  28  29
ENDBRANCH  27  28
ENDBRANCH  14  27
TORSDOF 5
