REMARK  Name = ZINC39981118
REMARK  7 active torsions:
REMARK  status: ('A' for Active; 'I' for Inactive)
REMARK    1  A    between atoms: C_1  and  C_2
REMARK    2  A    between atoms: C_2  and  O_3
REMARK    3  A    between atoms: O_3  and  C_4
REMARK    4  A    between atoms: C_9  and  N_10
REMARK    5  A    between atoms: C_11  and  C_13
REMARK    6  A    between atoms: C_13  and  S_14
REMARK    7  A    between atoms: S_14  and  C_15
REMARK                            x       y       z     vdW  Elec       q    Type
REMARK                         _______ _______ _______ _____ _____    ______ ____
ROOT
ATOM      1  S   UNL     1      -7.845  -2.204  -0.271  0.00  0.00    -0.075 S 
ENDROOT
BRANCH   1   2
ATOM      2  C   UNL     1      -9.145  -1.019  -0.378  0.00  0.00    +0.208 C 
ATOM      3  N   UNL     1      -8.825   0.253  -0.365  0.00  0.00    -0.227 NA
ATOM      4  C   UNL     1      -9.913   1.228  -0.375  0.00  0.00    +0.252 C 
ATOM      5  C   UNL     1     -11.079   0.561  -1.090  0.00  0.00    +0.117 C 
ATOM      6  C   UNL     1     -11.508   1.466  -2.013  0.00  0.00    +0.026 A 
ATOM      7  C   UNL     1     -12.613   1.471  -2.899  0.00  0.00    +0.032 A 
ATOM      8  C   UNL     1     -12.751   2.547  -3.722  0.00  0.00    +0.042 A 
ATOM      9  C   UNL     1     -11.874   3.638  -3.744  0.00  0.00    +0.022 A 
ATOM     10  C   UNL     1     -10.787   3.741  -2.935  0.00  0.00    +0.027 A 
ATOM     11  C   UNL     1     -10.561   2.624  -2.003  0.00  0.00    +0.046 A 
ATOM     12  N   UNL     1      -9.634   2.452  -1.111  0.00  0.00    -0.358 N 
ATOM     13 CL   UNL     1     -14.101   2.567  -4.812  0.00  0.00    -0.084 Cl
ATOM     14  N   UNL     1     -11.398  -0.715  -0.855  0.00  0.00    -0.147 NA
ATOM     15  N   UNL     1     -10.418  -1.475  -0.474  0.00  0.00    -0.122 NA
ATOM     16  H   UNL     1      -8.879   3.042  -0.961  0.00  0.00    +0.162 HD
ENDBRANCH   1   2
BRANCH   1  17
ATOM     17  C   UNL     1      -6.341  -1.195  -0.160  0.00  0.00    +0.173 C 
BRANCH  17  19
ATOM     18  N   UNL     1      -3.903  -1.566   0.030  0.00  0.00    -0.282 N 
ATOM     19  C   UNL     1      -5.138  -2.097  -0.062  0.00  0.00    +0.228 C 
ATOM     20  O   UNL     1      -5.280  -3.302  -0.067  0.00  0.00    -0.275 OA
ATOM     21  H   UNL     1      -3.793  -0.606   0.115  0.00  0.00    +0.155 HD
BRANCH  18  27
ATOM     22  C   UNL     1      -1.584  -1.981   0.589  0.00  0.00    +0.142 A 
ATOM     23  C   UNL     1      -0.476  -2.812   0.565  0.00  0.00    +0.047 A 
ATOM     24  C   UNL     1      -0.554  -4.051  -0.043  0.00  0.00    +0.004 A 
ATOM     25  C   UNL     1      -1.736  -4.465  -0.628  0.00  0.00    +0.002 A 
ATOM     26  C   UNL     1      -2.846  -3.643  -0.608  0.00  0.00    +0.027 A 
ATOM     27  C   UNL     1      -2.777  -2.400   0.004  0.00  0.00    +0.076 A 
BRANCH  22  28
ATOM     28  O   UNL     1      -1.509  -0.762   1.187  0.00  0.00    -0.490 OA
BRANCH  28  30
ATOM     29  C   UNL     1      -0.362   0.995   2.386  0.00  0.00    +0.048 C 
ATOM     30  C   UNL     1      -0.254  -0.400   1.765  0.00  0.00    +0.226 C 
ENDBRANCH  28  30
ENDBRANCH  22  28
ENDBRANCH  18  27
ENDBRANCH  17  19
ENDBRANCH   1  17
TORSDOF 6
