REMARK  Name = ZINC38831550
REMARK  11 active torsions:
REMARK  status: ('A' for Active; 'I' for Inactive)
REMARK    1  A    between atoms: C_1  and  C_2
REMARK    2  A    between atoms: C_2  and  S_3
REMARK    3  A    between atoms: S_3  and  N_6
REMARK    4  A    between atoms: N_9  and  C_12
REMARK    5  A    between atoms: C_12  and  C_13
REMARK    6  A    between atoms: C_16  and  C_19
REMARK    7  A    between atoms: N_21  and  C_22
REMARK    8  A    between atoms: C_22  and  C_23
REMARK    9  A    between atoms: C_26  and  C_29
REMARK   10  A    between atoms: C_29  and  N_30
REMARK   11  A    between atoms: C_33  and  C_36
REMARK                            x       y       z     vdW  Elec       q    Type
REMARK                         _______ _______ _______ _____ _____    ______ ____
ROOT
ATOM      1  C   UNL     1       3.986  -9.463  -1.954  0.00  0.00    +0.244 C 
ATOM      2  O   UNL     1       4.692  -9.246  -2.919  0.00  0.00    -0.270 OA
ATOM      3  N   UNL     1       4.194 -10.559  -1.199  0.00  0.00    -0.307 N 
ATOM      4  H   UNL     1       3.630 -10.732  -0.429  0.00  0.00    +0.149 HD
ENDROOT
BRANCH   1   8
ATOM      5  C   UNL     1       0.859  -6.764  -0.961  0.00  0.00    -0.033 A 
ATOM      6  C   UNL     1       1.662  -6.514  -2.060  0.00  0.00    +0.005 A 
ATOM      7  C   UNL     1       2.679  -7.386  -2.388  0.00  0.00    +0.013 A 
ATOM      8  C   UNL     1       2.898  -8.523  -1.608  0.00  0.00    +0.037 A 
ATOM      9  C   UNL     1       2.084  -8.769  -0.501  0.00  0.00    +0.013 A 
ATOM     10  C   UNL     1       1.074  -7.886  -0.181  0.00  0.00    +0.005 A 
BRANCH   5  11
ATOM     11  C   UNL     1      -0.250  -5.806  -0.609  0.00  0.00    +0.119 C 
BRANCH  11  15
ATOM     12  N   UNL     1       0.835  -2.256   1.349  0.00  0.00    -0.179 NA
ATOM     13  C   UNL     1      -0.276  -3.026   1.929  0.00  0.00    +0.124 C 
ATOM     14  C   UNL     1      -0.831  -3.966   0.853  0.00  0.00    +0.102 C 
ATOM     15  N   UNL     1       0.264  -4.774   0.301  0.00  0.00    -0.296 NA
ATOM     16  C   UNL     1       1.264  -3.932  -0.369  0.00  0.00    +0.102 C 
ATOM     17  C   UNL     1       1.901  -2.990   0.651  0.00  0.00    +0.124 C 
BRANCH  12  18
ATOM     18  S   UNL     1       0.879  -0.605   1.472  0.00  0.00    +0.032 S 
ATOM     19  O   UNL     1       2.259  -0.273   1.388  0.00  0.00    -0.158 OA
ATOM     20  O   UNL     1       0.132  -0.308   2.643  0.00  0.00    -0.158 OA
BRANCH  18  22
ATOM     21  C   UNL     1      -0.019   1.526   0.010  0.00  0.00    +0.029 C 
ATOM     22  C   UNL     1       0.002  -0.004   0.002  0.00  0.00    +0.182 C 
ENDBRANCH  18  22
ENDBRANCH  12  18
ENDBRANCH  11  15
ENDBRANCH   5  11
ENDBRANCH   1   8
BRANCH   3  23
ATOM     23  C   UNL     1       5.272 -11.490  -1.541  0.00  0.00    +0.139 C 
BRANCH  23  24
ATOM     24  C   UNL     1       5.292 -12.623  -0.548  0.00  0.00    -0.030 A 
ATOM     25  C   UNL     1       6.052 -12.521   0.602  0.00  0.00    +0.005 A 
ATOM     26  C   UNL     1       6.070 -13.560   1.514  0.00  0.00    +0.002 A 
ATOM     27  C   UNL     1       5.328 -14.702   1.275  0.00  0.00    -0.064 A 
ATOM     28  C   UNL     1       4.567 -14.804   0.125  0.00  0.00    +0.002 A 
ATOM     29  C   UNL     1       4.546 -13.763  -0.784  0.00  0.00    +0.005 A 
BRANCH  27  30
ATOM     30  C   UNL     1       5.348 -15.835   2.268  0.00  0.00    -0.043 C 
BRANCH  30  31
ATOM     31  N   UNL     1       4.277 -15.642   3.254  0.00  0.00    +0.382 N 
ATOM     32  C   UNL     1       2.974 -15.727   2.582  0.00  0.00    -0.078 C 
ATOM     33  C   UNL     1       1.858 -15.445   3.589  0.00  0.00    -0.016 C 
ATOM     34  C   UNL     1       1.921 -16.481   4.716  0.00  0.00    -0.018 C 
ATOM     35  C   UNL     1       3.309 -16.435   5.361  0.00  0.00    -0.016 C 
ATOM     36  C   UNL     1       4.372 -16.680   4.287  0.00  0.00    -0.078 C 
ATOM     37  C   UNL     1       0.857 -16.159   5.767  0.00  0.00    +0.007 C 
ATOM     38  H   UNL     1       4.374 -14.733   3.681  0.00  0.00    -0.081 HD
ENDBRANCH  30  31
ENDBRANCH  27  30
ENDBRANCH  23  24
ENDBRANCH   3  23
TORSDOF 9
