REMARK  Name = ZINC12638494
REMARK  9 active torsions:
REMARK  status: ('A' for Active; 'I' for Inactive)
REMARK    1  A    between atoms: C_1  and  C_2
REMARK    2  A    between atoms: C_2  and  C_3
REMARK    3  A    between atoms: C_13  and  C_17
REMARK    4  A    between atoms: C_17  and  C_18
REMARK    5  A    between atoms: C_17  and  C_19
REMARK    6  A    between atoms: C_17  and  C_20
REMARK    7  A    between atoms: N_24  and  C_27
REMARK    8  A    between atoms: C_27  and  N_29
REMARK    9  A    between atoms: N_29  and  C_30
REMARK                            x       y       z     vdW  Elec       q    Type
REMARK                         _______ _______ _______ _____ _____    ______ ____
ROOT
ATOM      1  C   UNL     1       4.576  -0.928  -6.933  0.00  0.00    +0.132 A 
ATOM      2  N   UNL     1       3.290  -1.112  -7.159  0.00  0.00    -0.217 NA
ATOM      3  C   UNL     1       2.348  -1.008  -6.223  0.00  0.00    +0.133 A 
ATOM      4  C   UNL     1       2.806  -0.676  -4.915  0.00  0.00    +0.051 A 
ATOM      5  C   UNL     1       1.997  -0.502  -3.720  0.00  0.00    -0.025 A 
ATOM      6  C   UNL     1       2.656  -0.185  -2.583  0.00  0.00    -0.004 A 
ATOM      7  S   UNL     1       4.369  -0.105  -3.041  0.00  0.00    -0.073 S 
ATOM      8  C   UNL     1       4.203  -0.495  -4.753  0.00  0.00    +0.114 A 
ATOM      9  N   UNL     1       5.069  -0.618  -5.740  0.00  0.00    -0.225 NA
ATOM     10  C   UNL     1       2.064   0.047  -1.227  0.00  0.00    +0.046 C 
ATOM     11  C   UNL     1       0.625  -0.487  -1.225  0.00  0.00    -0.000 C 
ATOM     12  C   UNL     1      -0.092   0.024  -2.478  0.00  0.00    +0.009 C 
ATOM     13  C   UNL     1       0.479  -0.660  -3.719  0.00  0.00    +0.037 C 
ATOM     14  N   UNL     1       1.009  -1.210  -6.504  0.00  0.00    -0.312 N 
ATOM     15  C   UNL     1       0.779  -2.562  -7.031  0.00  0.00    +0.125 C 
ATOM     16  C   UNL     1      -0.728  -2.808  -7.157  0.00  0.00    +0.125 C 
ATOM     17  N   UNL     1      -1.313  -1.721  -7.957  0.00  0.00    -0.309 N 
ATOM     18  C   UNL     1      -1.014  -0.334  -7.570  0.00  0.00    +0.125 C 
ATOM     19  C   UNL     1       0.504  -0.185  -7.427  0.00  0.00    +0.125 C 
ENDROOT
BRANCH  11  20
ATOM     20  C   UNL     1      -0.106   0.009   0.024  0.00  0.00    -0.035 C 
ATOM     21  C   UNL     1      -0.124   1.539   0.029  0.00  0.00    +0.011 C 
ATOM     22  C   UNL     1       0.618  -0.496   1.273  0.00  0.00    +0.011 C 
ATOM     23  C   UNL     1      -1.542  -0.518   0.018  0.00  0.00    +0.011 C 
ENDBRANCH  11  20
BRANCH   1  25
ATOM     24  C   UNL     1       5.711   0.274  -8.780  0.00  0.00    +0.012 C 
ATOM     25  C   UNL     1       5.534  -1.078  -8.086  0.00  0.00    +0.073 C 
ENDBRANCH   1  25
BRANCH  17  26
ATOM     26  C   UNL     1      -2.103  -1.989  -9.015  0.00  0.00    +0.137 C 
ATOM     27  S   UNL     1      -2.666  -0.713 -10.008  0.00  0.00    -0.018 S 
BRANCH  26  28
ATOM     28  N   UNL     1      -2.449  -3.261  -9.293  0.00  0.00    -0.297 N 
ATOM     29  H   UNL     1      -1.989  -3.747  -9.995  0.00  0.00    +0.154 HD
BRANCH  28  30
ATOM     30  C   UNL     1      -3.473  -3.882  -8.568  0.00  0.00    +0.033 A 
ATOM     31  C   UNL     1      -4.058  -3.228  -7.492  0.00  0.00    +0.023 A 
ATOM     32  C   UNL     1      -5.072  -3.841  -6.782  0.00  0.00    +0.002 A 
ATOM     33  C   UNL     1      -5.496  -5.109  -7.135  0.00  0.00    +0.000 A 
ATOM     34  C   UNL     1      -4.911  -5.765  -8.202  0.00  0.00    +0.002 A 
ATOM     35  C   UNL     1      -3.901  -5.155  -8.920  0.00  0.00    +0.023 A 
ENDBRANCH  28  30
ENDBRANCH  26  28
ENDBRANCH  17  26
TORSDOF 5
