REMARK  Name = ZINC12833180
REMARK  9 active torsions:
REMARK  status: ('A' for Active; 'I' for Inactive)
REMARK    1  A    between atoms: C_1  and  C_2
REMARK    2  A    between atoms: C_6  and  C_15
REMARK    3  A    between atoms: C_13  and  C_14
REMARK    4  A    between atoms: C_15  and  N_63
REMARK    5  A    between atoms: C_16  and  C_17
REMARK    6  A    between atoms: C_16  and  N_63
REMARK    7  A    between atoms: C_22  and  C_23
REMARK    8  A    between atoms: C_22  and  N_63
REMARK    9  A    between atoms: N_27  and  C_28
REMARK                            x       y       z     vdW  Elec       q    Type
REMARK                         _______ _______ _______ _____ _____    ______ ____
ROOT
ATOM      1  N   UNL     1      -1.925   4.461   0.282  0.00  0.00    +0.392 N 
ATOM      2  H   UNL     1      -0.900   4.451   0.336  0.00  0.00    -0.080 HD
ENDROOT
BRANCH   1   3
ATOM      3  C   UNL     1      -2.475   4.661   1.640  0.00  0.00    -0.036 C 
BRANCH   3   9
ATOM      4  C   UNL     1       3.096   3.764   6.516  0.00  0.00    +0.044 C 
ATOM      5  C   UNL     1       1.909   3.222   5.762  0.00  0.00    -0.047 A 
ATOM      6  C   UNL     1       1.229   4.031   4.896  0.00  0.00    +0.013 A 
ATOM      7  C   UNL     1       0.128   3.528   4.197  0.00  0.00    -0.001 A 
ATOM      8  C   UNL     1      -0.620   4.366   3.257  0.00  0.00    +0.017 A 
ATOM      9  C   UNL     1      -1.682   3.825   2.611  0.00  0.00    +0.001 A 
ATOM     10  C   UNL     1      -2.043   2.480   2.839  0.00  0.00    +0.251 A 
ATOM     11  O   UNL     1      -2.998   2.013   2.244  0.00  0.00    -0.268 OA
ATOM     12  N   UNL     1      -1.360   1.702   3.696  0.00  0.00    -0.322 N 
ATOM     13  H   UNL     1      -1.636   0.781   3.829  0.00  0.00    +0.169 HD
ATOM     14  C   UNL     1      -0.274   2.193   4.389  0.00  0.00    +0.049 A 
ATOM     15  C   UNL     1       0.433   1.387   5.275  0.00  0.00    +0.030 A 
ATOM     16  C   UNL     1       1.517   1.904   5.953  0.00  0.00    -0.046 A 
ATOM     17  C   UNL     1       2.282   1.030   6.913  0.00  0.00    +0.044 C 
ENDBRANCH   3   9
ENDBRANCH   1   3
BRANCH   1  18
ATOM     18  C   UNL     1      -2.349   5.566  -0.603  0.00  0.00    -0.002 C 
BRANCH  18  19
ATOM     19  C   UNL     1      -1.589   6.811  -0.221  0.00  0.00    +0.089 A 
ATOM     20  C   UNL     1      -0.370   7.157  -0.671  0.00  0.00    +0.042 A 
ATOM     21  C   UNL     1      -0.042   8.389  -0.060  0.00  0.00    +0.041 A 
ATOM     22  C   UNL     1      -1.081   8.722   0.728  0.00  0.00    +0.195 A 
ATOM     23  O   UNL     1      -2.018   7.765   0.621  0.00  0.00    -0.470 OA
ENDBRANCH  18  19
ENDBRANCH   1  18
BRANCH   1  24
ATOM     24  C   UNL     1      -2.389   3.169  -0.265  0.00  0.00    +0.001 C 
BRANCH  24  25
ATOM     25  C   UNL     1      -1.646   2.888  -1.545  0.00  0.00    +0.135 A 
ATOM     26  N   UNL     1      -2.016   3.227  -2.756  0.00  0.00    -0.115 NA
ATOM     27  N   UNL     1      -1.117   2.808  -3.579  0.00  0.00    -0.023 NA
ATOM     28  N   UNL     1      -0.180   2.216  -2.924  0.00  0.00    -0.044 NA
ATOM     29  N   UNL     1      -0.472   2.239  -1.667  0.00  0.00    -0.228 N 
BRANCH  29  30
ATOM     30  C   UNL     1       0.326   1.672  -0.577  0.00  0.00    +0.111 C 
ATOM     31  C   UNL     1       1.706   2.332  -0.559  0.00  0.00    +0.027 C 
ATOM     32  C   UNL     1       2.539   1.740   0.579  0.00  0.00    +0.002 C 
ATOM     33  C   UNL     1       2.697   0.233   0.365  0.00  0.00    +0.000 C 
ATOM     34  C   UNL     1       1.317  -0.427   0.346  0.00  0.00    +0.002 C 
ATOM     35  C   UNL     1       0.484   0.165  -0.792  0.00  0.00    +0.027 C 
ENDBRANCH  29  30
ENDBRANCH  24  25
ENDBRANCH   1  24
TORSDOF 7
