REMARK  Name = ZINC36026009
REMARK  8 active torsions:
REMARK  status: ('A' for Active; 'I' for Inactive)
REMARK    1  A    between atoms: C_1  and  C_2
REMARK    2  A    between atoms: C_5  and  N_8
REMARK    3  A    between atoms: N_10  and  C_30
REMARK    4  A    between atoms: C_11  and  C_24
REMARK    5  A    between atoms: C_12  and  O_14
REMARK    6  A    between atoms: O_14  and  C_15
REMARK    7  A    between atoms: C_18  and  N_21
REMARK    8  A    between atoms: C_33  and  C_36
REMARK                            x       y       z     vdW  Elec       q    Type
REMARK                         _______ _______ _______ _____ _____    ______ ____
ROOT
ATOM      1  N   UNL     1      -0.096  -4.172  -0.066  0.00  0.00    -0.295 N 
ATOM      2  C   UNL     1       0.115  -4.847   1.070  0.00  0.00    +0.151 A 
ATOM      3  N   UNL     1       0.159  -6.196   1.256  0.00  0.00    -0.288 N 
ATOM      4  C   UNL     1       0.380  -6.659   2.453  0.00  0.00    +0.105 A 
ATOM      5  C   UNL     1       0.567  -5.653   3.534  0.00  0.00    +0.193 A 
ATOM      6  S   UNL     1       0.413  -4.197   2.703  0.00  0.00    -0.016 S 
ATOM      7  H   UNL     1      -0.324  -4.650  -0.878  0.00  0.00    +0.154 HD
ENDROOT
BRANCH   1  12
ATOM      8  C   UNL     1       0.343   1.476  -0.130  0.00  0.00    +0.044 C 
ATOM      9  C   UNL     1       0.226  -0.027  -0.113  0.00  0.00    -0.050 A 
ATOM     10  C   UNL     1       1.069  -0.775   0.689  0.00  0.00    +0.005 A 
ATOM     11  C   UNL     1       0.966  -2.151   0.708  0.00  0.00    +0.023 A 
ATOM     12  C   UNL     1       0.011  -2.786  -0.081  0.00  0.00    +0.033 A 
ATOM     13  C   UNL     1      -0.835  -2.029  -0.887  0.00  0.00    +0.023 A 
ATOM     14  C   UNL     1      -0.728  -0.653  -0.896  0.00  0.00    +0.005 A 
ENDBRANCH   1  12
BRANCH   3  15
ATOM     15  C   UNL     1      -0.026  -7.051   0.202  0.00  0.00    +0.049 A 
ATOM     16  C   UNL     1      -1.169  -7.854   0.140  0.00  0.00    +0.026 A 
ATOM     17  C   UNL     1      -1.348  -8.711  -0.925  0.00  0.00    +0.005 A 
ATOM     18  C   UNL     1      -0.400  -8.779  -1.931  0.00  0.00    -0.050 A 
ATOM     19  C   UNL     1       0.735  -7.987  -1.877  0.00  0.00    +0.005 A 
ATOM     20  C   UNL     1       0.925  -7.121  -0.821  0.00  0.00    +0.026 A 
ATOM     21  C   UNL     1      -0.603  -9.719  -3.091  0.00  0.00    +0.044 C 
ENDBRANCH   3  15
BRANCH   4  22
ATOM     22  C   UNL     1       0.439  -8.102   2.722  0.00  0.00    +0.003 A 
ATOM     23  C   UNL     1       1.333  -8.916   2.011  0.00  0.00    +0.010 A 
ATOM     24  C   UNL     1       1.382 -10.268   2.271  0.00  0.00    +0.001 A 
ATOM     25  C   UNL     1       0.552 -10.824   3.231  0.00  0.00    +0.000 A 
ATOM     26  C   UNL     1      -0.334 -10.027   3.938  0.00  0.00    +0.001 A 
ATOM     27  C   UNL     1      -0.393  -8.673   3.697  0.00  0.00    +0.010 A 
ENDBRANCH   4  22
BRANCH   5  28
ATOM     28  O   UNL     1       0.804  -5.855   4.831  0.00  0.00    -0.447 OA
BRANCH  28  29
ATOM     29  C   UNL     1       0.834  -4.772   5.649  0.00  0.00    +0.129 A 
ATOM     30  C   UNL     1       2.051  -4.272   6.097  0.00  0.00    +0.048 A 
ATOM     31  C   UNL     1       2.078  -3.171   6.929  0.00  0.00    +0.036 A 
ATOM     32  C   UNL     1       0.896  -2.565   7.316  0.00  0.00    +0.126 A 
ATOM     33  C   UNL     1      -0.316  -3.061   6.872  0.00  0.00    +0.036 A 
ATOM     34  C   UNL     1      -0.351  -4.158   6.035  0.00  0.00    +0.048 A 
BRANCH  32  35
ATOM     35  N   UNL     1       0.930  -1.385   8.209  0.00  0.00    +0.056 N 
ATOM     36  O   UNL     1       2.083  -0.912   8.633  0.00  0.00    -0.126 OA
ATOM     37  O   UNL     1      -0.195  -0.807   8.579  0.00  0.00    -0.126 OA
ENDBRANCH  32  35
ENDBRANCH  28  29
ENDBRANCH   5  28
TORSDOF 6
