REMARK  Name = ZINC22527096
REMARK  8 active torsions:
REMARK  status: ('A' for Active; 'I' for Inactive)
REMARK    1  A    between atoms: C_1  and  C_2
REMARK    2  A    between atoms: N_6  and  C_7
REMARK    3  A    between atoms: C_10  and  C_13
REMARK    4  A    between atoms: C_13  and  N_14
REMARK    5  A    between atoms: C_15  and  C_17
REMARK    6  A    between atoms: C_20  and  C_23
REMARK    7  A    between atoms: N_25  and  C_30
REMARK    8  A    between atoms: C_30  and  C_31
REMARK                            x       y       z     vdW  Elec       q    Type
REMARK                         _______ _______ _______ _____ _____    ______ ____
ROOT
ATOM      1  C   UNL     1       2.570   0.090   0.137  0.00  0.00    +0.037 A 
ATOM      2  C   UNL     1       1.431  -0.594   0.567  0.00  0.00    +0.013 A 
ATOM      3  C   UNL     1       0.203   0.033   0.539  0.00  0.00    +0.007 A 
ATOM      4  C   UNL     1       0.097   1.336   0.087  0.00  0.00    -0.017 A 
ATOM      5  C   UNL     1       1.222   2.019  -0.340  0.00  0.00    +0.007 A 
ATOM      6  C   UNL     1       2.456   1.405  -0.318  0.00  0.00    +0.013 A 
ENDROOT
BRANCH   4   7
ATOM      7  C   UNL     1      -1.250   2.012   0.054  0.00  0.00    +0.165 C 
ATOM      8  N   UNL     1      -1.225   3.279   0.808  0.00  0.00    -0.280 N 
ATOM      9  C   UNL     1      -1.747   4.369   0.260  0.00  0.00    +0.227 C 
ATOM     10  O   UNL     1      -1.750   5.429   0.850  0.00  0.00    -0.275 OA
ATOM     11  C   UNL     1      -2.341   4.241  -1.134  0.00  0.00    +0.167 C 
ATOM     12  S   UNL     1      -1.650   2.609  -1.645  0.00  0.00    -0.124 S 
BRANCH   8  13
ATOM     13  C   UNL     1      -0.631   3.334   2.146  0.00  0.00    +0.144 C 
BRANCH  13  14
ATOM     14  C   UNL     1      -1.660   2.926   3.169  0.00  0.00    -0.030 A 
ATOM     15  C   UNL     1      -2.501   3.874   3.720  0.00  0.00    +0.006 A 
ATOM     16  C   UNL     1      -3.448   3.499   4.654  0.00  0.00    +0.020 A 
ATOM     17  C   UNL     1      -3.547   2.176   5.046  0.00  0.00    +0.041 A 
ATOM     18  C   UNL     1      -2.701   1.228   4.498  0.00  0.00    +0.020 A 
ATOM     19  C   UNL     1      -1.758   1.603   3.560  0.00  0.00    +0.006 A 
ATOM     20 CL   UNL     1      -4.731   1.706   6.225  0.00  0.00    -0.084 Cl
ENDBRANCH  13  14
ENDBRANCH   8  13
ENDBRANCH   4   7
BRANCH   1  22
ATOM     21  N   UNL     1       4.987   0.088  -0.253  0.00  0.00    -0.307 N 
ATOM     22  C   UNL     1       3.890  -0.575   0.163  0.00  0.00    +0.244 C 
ATOM     23  O   UNL     1       3.985  -1.721   0.559  0.00  0.00    -0.270 OA
ATOM     24  H   UNL     1       4.900   1.124  -0.611  0.00  0.00    +0.149 HD
BRANCH  21  25
ATOM     25  C   UNL     1       6.295  -0.572  -0.227  0.00  0.00    +0.139 C 
BRANCH  25  29
ATOM     26  C   UNL     1       9.278   2.123  -1.677  0.00  0.00    +0.048 A 
ATOM     27  C   UNL     1       8.973   2.087  -0.323  0.00  0.00    +0.026 A 
ATOM     28  C   UNL     1       8.008   1.215   0.142  0.00  0.00    +0.007 A 
ATOM     29  C   UNL     1       7.347   0.379  -0.738  0.00  0.00    -0.030 A 
ATOM     30  C   UNL     1       7.652   0.409  -2.087  0.00  0.00    +0.007 A 
ATOM     31  C   UNL     1       8.612   1.283  -2.559  0.00  0.00    +0.026 A 
BRANCH  26  37
ATOM     32  C   UNL     1      11.617   1.323  -3.504  0.00  0.00    +0.084 C 
ATOM     33  C   UNL     1      11.304   2.694  -2.960  0.00  0.00    +0.088 A 
ATOM     34  N   UNL     1      11.992   3.779  -3.189  0.00  0.00    -0.350 N 
ATOM     35  C   UNL     1      11.427   4.808  -2.540  0.00  0.00    +0.102 A 
ATOM     36  C   UNL     1      10.343   4.349  -1.887  0.00  0.00    +0.110 A 
ATOM     37  N   UNL     1      10.257   3.007  -2.153  0.00  0.00    -0.305 N 
ATOM     38  H   UNL     1      12.883   3.740  -3.832  0.00  0.00    +0.166 HD
ENDBRANCH  26  37
ENDBRANCH  25  29
ENDBRANCH  21  25
ENDBRANCH   1  22
TORSDOF 7
