REMARK  Name = ZINC60421711
REMARK  4 active torsions:
REMARK  status: ('A' for Active; 'I' for Inactive)
REMARK    1  A    between atoms: C_1  and  C_2
REMARK    2  A    between atoms: C_5  and  C_8
REMARK    3  A    between atoms: C_10  and  C_13
REMARK    4  A    between atoms: N_19  and  C_20
REMARK                            x       y       z     vdW  Elec       q    Type
REMARK                         _______ _______ _______ _____ _____    ______ ____
ROOT
ATOM      1  C   UNL     1       0.102  -7.360   1.854  0.00  0.00    +0.048 C 
ATOM      2  C   UNL     1       0.097  -6.926   3.142  0.00  0.00    +0.081 C 
ATOM      3  C   UNL     1       0.113  -7.700   4.402  0.00  0.00    +0.276 C 
ATOM      4  O   UNL     1       0.137  -8.921   4.408  0.00  0.00    -0.267 OA
ATOM      5  N   UNL     1       0.102  -7.001   5.517  0.00  0.00    -0.154 NA
ATOM      6  C   UNL     1       0.077  -5.678   5.525  0.00  0.00    +0.152 C 
ATOM      7  N   UNL     1       0.064  -4.834   6.605  0.00  0.00    -0.322 N 
ATOM      8  S   UNL     1       0.074  -5.259   3.789  0.00  0.00    -0.052 S 
ATOM      9  H   UNL     1       0.046  -3.873   6.469  0.00  0.00    +0.148 HD
ENDROOT
BRANCH   1  12
ATOM     10  C   UNL     1       0.061  -4.252  -0.021  0.00  0.00    +0.109 A 
ATOM     11  N   UNL     1       0.072  -5.088   1.000  0.00  0.00    -0.240 NA
ATOM     12  C   UNL     1       0.089  -6.391   0.754  0.00  0.00    +0.073 A 
ATOM     13  C   UNL     1       0.095  -6.818  -0.563  0.00  0.00    +0.075 A 
ATOM     14  S   UNL     1       0.068  -5.366  -1.414  0.00  0.00    -0.075 S 
BRANCH  10  19
ATOM     15  C   UNL     1      -0.018   1.503   0.010  0.00  0.00    +0.044 C 
ATOM     16  C   UNL     1       0.002  -0.004   0.002  0.00  0.00    -0.050 A 
ATOM     17  C   UNL     1       0.006  -0.686  -1.202  0.00  0.00    +0.004 A 
ATOM     18  C   UNL     1       0.025  -2.066  -1.216  0.00  0.00    +0.011 A 
ATOM     19  C   UNL     1       0.041  -2.773  -0.013  0.00  0.00    +0.007 A 
ATOM     20  C   UNL     1       0.037  -2.079   1.197  0.00  0.00    +0.011 A 
ATOM     21  C   UNL     1       0.023  -0.699   1.198  0.00  0.00    +0.004 A 
ENDBRANCH  10  19
ENDBRANCH   1  12
BRANCH   7  22
ATOM     22  C   UNL     1       0.077  -5.382   7.963  0.00  0.00    +0.072 C 
ATOM     23  C   UNL     1      -1.365  -5.657   8.436  0.00  0.00    +0.022 C 
ATOM     24  C   UNL     1      -1.350  -5.285   9.939  0.00  0.00    +0.002 C 
ATOM     25  C   UNL     1      -0.431  -4.038   9.973  0.00  0.00    +0.002 C 
ATOM     26  C   UNL     1       0.671  -4.353   8.941  0.00  0.00    +0.022 C 
ENDBRANCH   7  22
TORSDOF 3
