REMARK  Name = ZINC16900808
REMARK  9 active torsions:
REMARK  status: ('A' for Active; 'I' for Inactive)
REMARK    1  A    between atoms: C_1  and  C_2
REMARK    2  A    between atoms: C_2  and  C_3
REMARK    3  A    between atoms: C_6  and  N_8
REMARK    4  A    between atoms: N_8  and  S_9
REMARK    5  A    between atoms: S_9  and  C_12
REMARK    6  A    between atoms: C_15  and  N_18
REMARK    7  A    between atoms: C_22  and  S_26
REMARK    8  A    between atoms: S_26  and  C_27
REMARK    9  A    between atoms: C_27  and  C_28
REMARK                            x       y       z     vdW  Elec       q    Type
REMARK                         _______ _______ _______ _____ _____    ______ ____
ROOT
ATOM      1  C   UNL     1       4.366  -2.716   6.424  0.00  0.00    +0.111 A 
ATOM      2  C   UNL     1       4.637  -4.059   6.607  0.00  0.00    +0.031 A 
ATOM      3  C   UNL     1       5.796  -4.450   7.250  0.00  0.00    +0.026 A 
ATOM      4  C   UNL     1       6.688  -3.493   7.712  0.00  0.00    +0.044 A 
ATOM      5  C   UNL     1       6.413  -2.145   7.526  0.00  0.00    +0.026 A 
ATOM      6  C   UNL     1       5.256  -1.760   6.879  0.00  0.00    +0.031 A 
ENDROOT
BRANCH   4   7
ATOM      7  N   UNL     1       7.865  -3.886   8.365  0.00  0.00    -0.209 N 
ATOM      8  C   UNL     1       8.085  -3.653   9.665  0.00  0.00    +0.228 C 
ATOM      9  O   UNL     1       7.318  -3.090  10.416  0.00  0.00    -0.275 OA
ATOM     10  C   UNL     1       9.441  -4.204  10.047  0.00  0.00    +0.120 C 
ATOM     11  C   UNL     1       9.973  -4.801   8.728  0.00  0.00    +0.142 C 
ATOM     12  C   UNL     1       8.859  -4.531   7.741  0.00  0.00    +0.240 C 
ATOM     13  O   UNL     1       8.866  -4.846   6.571  0.00  0.00    -0.274 OA
BRANCH  11  14
ATOM     14  S   UNL     1      11.504  -3.970   8.222  0.00  0.00    -0.136 S 
BRANCH  14  15
ATOM     15  C   UNL     1      12.046  -4.900   6.761  0.00  0.00    +0.194 C 
BRANCH  15  16
ATOM     16  C   UNL     1      13.325  -4.304   6.233  0.00  0.00    +0.366 C 
ATOM     17  O   UNL     1      13.825  -3.342   6.790  0.00  0.00    -0.245 OA
ATOM     18  O   UNL     1      13.860  -4.785   5.249  0.00  0.00    -0.245 OA
ENDBRANCH  15  16
ENDBRANCH  14  15
ENDBRANCH  11  14
ENDBRANCH   4   7
BRANCH   1  19
ATOM     19  S   UNL     1       2.887  -2.221   5.604  0.00  0.00    +0.094 S 
ATOM     20  O   UNL     1       2.606  -0.898   6.037  0.00  0.00    -0.148 OA
ATOM     21  O   UNL     1       1.960  -3.287   5.760  0.00  0.00    -0.148 OA
BRANCH  19  22
ATOM     22  N   UNL     1       3.232  -2.127   3.987  0.00  0.00    -0.068 NA
BRANCH  22  26
ATOM     23  C   UNL     1       0.606  -1.082   1.099  0.00  0.00    +0.104 A 
ATOM     24  N   UNL     1       0.202  -1.118   2.353  0.00  0.00    -0.145 NA
ATOM     25  N   UNL     1       0.974  -1.437   3.298  0.00  0.00    -0.123 NA
ATOM     26  C   UNL     1       2.244  -1.756   3.087  0.00  0.00    +0.224 A 
ATOM     27  S   UNL     1       2.315  -1.576   1.307  0.00  0.00    -0.032 S 
BRANCH  23  29
ATOM     28  C   UNL     1      -0.032   0.770  -0.421  0.00  0.00    +0.011 C 
ATOM     29  C   UNL     1      -0.155  -0.731  -0.153  0.00  0.00    +0.061 C 
ENDBRANCH  23  29
ENDBRANCH  22  26
ENDBRANCH  19  22
ENDBRANCH   1  19
TORSDOF 8
