REMARK  Name = ZINC39354442
REMARK  5 active torsions:
REMARK  status: ('A' for Active; 'I' for Inactive)
REMARK    1  A    between atoms: C_1  and  C_2
REMARK    2  A    between atoms: C_5  and  C_8
REMARK    3  A    between atoms: N_10  and  N_11
REMARK    4  A    between atoms: C_12  and  C_13
REMARK    5  A    between atoms: C_16  and  C_18
REMARK                            x       y       z     vdW  Elec       q    Type
REMARK                         _______ _______ _______ _____ _____    ______ ____
ROOT
ATOM      1  N   UNL     1       2.496  -4.340   2.676  0.00  0.00    -0.185 NA
ATOM      2  C   UNL     1       2.541  -4.940   3.830  0.00  0.00    +0.176 C 
ENDROOT
BRANCH   2   3
ATOM      3  C   UNL     1       3.756  -5.647   4.240  0.00  0.00    +0.148 A 
ATOM      4  C   UNL     1       3.935  -6.325   5.426  0.00  0.00    +0.051 A 
ATOM      5  C   UNL     1       5.236  -6.846   5.401  0.00  0.00    +0.050 A 
ATOM      6  C   UNL     1       5.795  -6.471   4.215  0.00  0.00    +0.138 A 
ATOM      7  O   UNL     1       4.891  -5.754   3.521  0.00  0.00    -0.454 OA
BRANCH   6   8
ATOM      8  C   UNL     1       7.161  -6.802   3.765  0.00  0.00    +0.052 A 
ATOM      9  C   UNL     1       8.252  -6.578   4.608  0.00  0.00    +0.014 A 
ATOM     10  C   UNL     1       9.525  -6.890   4.181  0.00  0.00    +0.001 A 
ATOM     11  C   UNL     1       9.726  -7.424   2.920  0.00  0.00    +0.003 A 
ATOM     12  C   UNL     1       8.652  -7.649   2.078  0.00  0.00    +0.039 A 
ATOM     13  C   UNL     1       7.370  -7.347   2.494  0.00  0.00    +0.134 A 
ATOM     14  F   UNL     1       6.321  -7.572   1.673  0.00  0.00    -0.205 F 
ENDBRANCH   6   8
ENDBRANCH   2   3
BRANCH   1  17
ATOM     15  C   UNL     1       1.287  -3.042   1.088  0.00  0.00    +0.254 C 
ATOM     16  O   UNL     1       2.251  -3.069   0.352  0.00  0.00    -0.272 OA
ATOM     17  N   UNL     1       1.334  -3.663   2.283  0.00  0.00    -0.205 N 
ATOM     18  H   UNL     1       0.563  -3.642   2.871  0.00  0.00    +0.177 HD
BRANCH  15  23
ATOM     19  C   UNL     1      -0.018   1.503   0.010  0.00  0.00    +0.062 C 
ATOM     20  C   UNL     1       0.002  -0.004   0.002  0.00  0.00    +0.036 C 
ATOM     21  N   UNL     1       0.008  -0.729  -1.041  0.00  0.00    -0.196 NA
ATOM     22  N   UNL     1       0.028  -2.099  -0.791  0.00  0.00    -0.257 N 
ATOM     23  C   UNL     1       0.037  -2.314   0.665  0.00  0.00    +0.182 C 
ATOM     24  C   UNL     1       0.026  -0.880   1.234  0.00  0.00    +0.085 C 
ATOM     25  H   UNL     1       0.034  -2.797  -1.465  0.00  0.00    +0.169 HD
ENDBRANCH  15  23
ENDBRANCH   1  17
TORSDOF 4
