REMARK  Name = ZINC09245036
REMARK  9 active torsions:
REMARK  status: ('A' for Active; 'I' for Inactive)
REMARK    1  A    between atoms: C_1  and  C_2
REMARK    2  A    between atoms: C_2  and  C_4
REMARK    3  A    between atoms: C_2  and  O_20
REMARK    4  A    between atoms: N_6  and  C_7
REMARK    5  A    between atoms: C_10  and  N_17
REMARK    6  A    between atoms: C_12  and  C_13
REMARK    7  A    between atoms: O_20  and  C_21
REMARK    8  A    between atoms: C_21  and  C_23
REMARK    9  A    between atoms: C_29  and  C_32
REMARK                            x       y       z     vdW  Elec       q    Type
REMARK                         _______ _______ _______ _____ _____    ______ ____
ROOT
ATOM      1  C   UNL     1      -3.907   3.331   1.445  0.00  0.00    +0.062 C 
ATOM      2  C   UNL     1      -3.499   3.011   0.005  0.00  0.00    +0.259 C 
ENDROOT
BRANCH   2   3
ATOM      3  C   UNL     1      -4.658   2.370  -0.714  0.00  0.00    +0.258 C 
ATOM      4  O   UNL     1      -4.574   1.222  -1.095  0.00  0.00    -0.271 OA
ATOM      5  N   UNL     1      -5.787   3.072  -0.934  0.00  0.00    -0.282 N 
ATOM      6  H   UNL     1      -5.834   4.007  -0.679  0.00  0.00    +0.155 HD
BRANCH   5   7
ATOM      7  C   UNL     1      -6.891   2.453  -1.530  0.00  0.00    +0.045 A 
ATOM      8  C   UNL     1      -6.710   1.353  -2.357  0.00  0.00    +0.026 A 
ATOM      9  C   UNL     1      -7.802   0.744  -2.943  0.00  0.00    +0.034 A 
ATOM     10  C   UNL     1      -9.075   1.229  -2.707  0.00  0.00    +0.127 A 
ATOM     11  C   UNL     1      -9.259   2.324  -1.884  0.00  0.00    +0.047 A 
ATOM     12  C   UNL     1      -8.172   2.934  -1.290  0.00  0.00    +0.078 A 
BRANCH  12  13
ATOM     13  C   UNL     1      -8.374   4.125  -0.389  0.00  0.00    +0.419 C 
ATOM     14  F   UNL     1      -9.739   4.419  -0.303  0.00  0.00    -0.166 F 
ATOM     15  F   UNL     1      -7.879   3.833   0.887  0.00  0.00    -0.166 F 
ATOM     16  F   UNL     1      -7.691   5.228  -0.912  0.00  0.00    -0.166 F 
ENDBRANCH  12  13
BRANCH  10  17
ATOM     17  N   UNL     1     -10.244   0.573  -3.336  0.00  0.00    +0.056 N 
ATOM     18  O   UNL     1     -10.083  -0.392  -4.062  0.00  0.00    -0.126 OA
ATOM     19  O   UNL     1     -11.366   0.999  -3.129  0.00  0.00    -0.126 OA
ENDBRANCH  10  17
ENDBRANCH   5   7
ENDBRANCH   2   3
BRANCH   2  20
ATOM     20  O   UNL     1      -2.370   2.099   0.013  0.00  0.00    -0.449 OA
BRANCH  20  21
ATOM     21  C   UNL     1      -1.139   2.649   0.022  0.00  0.00    +0.340 C 
ATOM     22  O   UNL     1      -1.014   3.858   0.024  0.00  0.00    -0.245 OA
BRANCH  21  23
ATOM     23  C   UNL     1       0.053   1.786   0.031  0.00  0.00    +0.060 A 
ATOM     24  C   UNL     1      -0.106   0.383   0.029  0.00  0.00    +0.017 A 
ATOM     25  C   UNL     1       0.956  -0.454   0.030  0.00  0.00    +0.032 A 
ATOM     26  C   UNL     1       2.267   0.073   0.034  0.00  0.00    +0.114 A 
ATOM     27  C   UNL     1       2.440   1.541   0.036  0.00  0.00    +0.050 A 
ATOM     28  C   UNL     1       1.314   2.364   0.034  0.00  0.00    +0.028 A 
ATOM     29  C   UNL     1       3.829   1.694   0.040  0.00  0.00    +0.175 A 
ATOM     30  O   UNL     1       4.331   0.449   0.040  0.00  0.00    -0.353 OA
ATOM     31  N   UNL     1       3.485  -0.415   0.037  0.00  0.00    -0.078 NA
BRANCH  29  32
ATOM     32  C   UNL     1       4.584   2.959   0.043  0.00  0.00    +0.021 A 
ATOM     33  C   UNL     1       4.275   3.964  -0.878  0.00  0.00    +0.011 A 
ATOM     34  C   UNL     1       4.984   5.147  -0.866  0.00  0.00    +0.001 A 
ATOM     35  C   UNL     1       6.006   5.336   0.047  0.00  0.00    +0.000 A 
ATOM     36  C   UNL     1       6.321   4.344   0.959  0.00  0.00    +0.001 A 
ATOM     37  C   UNL     1       5.618   3.158   0.963  0.00  0.00    +0.011 A 
ENDBRANCH  29  32
ENDBRANCH  21  23
ENDBRANCH  20  21
ENDBRANCH   2  20
TORSDOF 8
