REMARK  Name = ZINC32983831
REMARK  8 active torsions:
REMARK  status: ('A' for Active; 'I' for Inactive)
REMARK    1  A    between atoms: C_1  and  C_2
REMARK    2  A    between atoms: C_2  and  C_3
REMARK    3  A    between atoms: C_3  and  C_5
REMARK    4  A    between atoms: C_3  and  N_15
REMARK    5  A    between atoms: C_16  and  C_18
REMARK    6  A    between atoms: C_18  and  O_19
REMARK    7  A    between atoms: O_19  and  C_20
REMARK    8  A    between atoms: C_25  and  N_26
REMARK                            x       y       z     vdW  Elec       q    Type
REMARK                         _______ _______ _______ _____ _____    ______ ____
ROOT
ATOM      1  N   UNL     1      -2.105  -0.148  -1.230  0.00  0.00    -0.309 N 
ATOM      2  C   UNL     1      -2.690   1.062  -1.334  0.00  0.00    +0.251 C 
ATOM      3  O   UNL     1      -2.659   1.832  -0.397  0.00  0.00    -0.272 OA
ATOM      4  H   UNL     1      -2.133  -0.847  -2.080  0.00  0.00    +0.149 HD
ENDROOT
BRANCH   1   5
ATOM      5  C   UNL     1      -1.433  -0.534   0.013  0.00  0.00    +0.079 C 
BRANCH   5   6
ATOM      6  C   UNL     1      -1.413  -2.059   0.130  0.00  0.00    -0.010 C 
ATOM      7  C   UNL     1      -0.711  -2.461   1.429  0.00  0.00    +0.012 C 
ATOM      8  C   UNL     1      -0.691  -3.987   1.546  0.00  0.00    -0.010 C 
ATOM      9  C   UNL     1      -2.127  -4.516   1.557  0.00  0.00    +0.007 C 
ATOM     10  C   UNL     1      -2.829  -4.114   0.258  0.00  0.00    -0.010 C 
ATOM     11  C   UNL     1      -2.849  -2.589   0.141  0.00  0.00    +0.012 C 
ATOM     12  C   UNL     1      -2.075  -4.707  -0.934  0.00  0.00    +0.007 C 
ATOM     13  C   UNL     1      -0.640  -4.178  -0.945  0.00  0.00    -0.010 C 
ATOM     14  C   UNL     1       0.062  -4.580   0.354  0.00  0.00    +0.007 C 
ATOM     15  C   UNL     1      -0.660  -2.652  -1.062  0.00  0.00    +0.012 C 
ENDBRANCH   5   6
BRANCH   5  17
ATOM     16  C   UNL     1      -0.019   1.526   0.010  0.00  0.00    +0.006 C 
ATOM     17  C   UNL     1       0.002  -0.004   0.002  0.00  0.00    +0.019 C 
ENDBRANCH   5  17
ENDBRANCH   1   5
BRANCH   2  18
ATOM     18  C   UNL     1      -3.381   1.458  -2.613  0.00  0.00    +0.324 C 
BRANCH  18  19
ATOM     19  O   UNL     1      -3.917   2.776  -2.476  0.00  0.00    -0.480 OA
BRANCH  19  20
ATOM     20  C   UNL     1      -4.578   3.288  -3.548  0.00  0.00    +0.151 A 
ATOM     21  C   UNL     1      -4.702   2.539  -4.710  0.00  0.00    +0.048 A 
ATOM     22  C   UNL     1      -5.377   3.060  -5.796  0.00  0.00    +0.004 A 
ATOM     23  C   UNL     1      -5.920   4.330  -5.730  0.00  0.00    +0.002 A 
ATOM     24  C   UNL     1      -5.794   5.079  -4.575  0.00  0.00    +0.036 A 
ATOM     25  C   UNL     1      -5.124   4.561  -3.484  0.00  0.00    +0.168 A 
BRANCH  25  26
ATOM     26  N   UNL     1      -4.988   5.364  -2.248  0.00  0.00    +0.060 N 
ATOM     27  O   UNL     1      -5.468   6.482  -2.193  0.00  0.00    -0.126 OA
ATOM     28  O   UNL     1      -4.397   4.907  -1.287  0.00  0.00    -0.126 OA
ENDBRANCH  25  26
ENDBRANCH  19  20
ENDBRANCH  18  19
ENDBRANCH   2  18
TORSDOF 7
