REMARK  Name = ZINC24884599
REMARK  12 active torsions:
REMARK  status: ('A' for Active; 'I' for Inactive)
REMARK    1  A    between atoms: C_1  and  C_2
REMARK    2  A    between atoms: C_2  and  N_3
REMARK    3  A    between atoms: N_3  and  C_4
REMARK    4  A    between atoms: N_3  and  C_6
REMARK    5  A    between atoms: C_4  and  C_5
REMARK    6  A    between atoms: C_6  and  C_8
REMARK    7  A    between atoms: C_6  and  C_32
REMARK    8  A    between atoms: C_8  and  N_9
REMARK    9  A    between atoms: C_10  and  C_12
REMARK   10  A    between atoms: C_12  and  S_13
REMARK   11  A    between atoms: S_13  and  C_14
REMARK   12  A    between atoms: C_27  and  C_31
REMARK                            x       y       z     vdW  Elec       q    Type
REMARK                         _______ _______ _______ _____ _____    ______ ____
ROOT
ATOM      1  S   UNL     1      -1.988  -2.000   1.143  0.00  0.00    -0.078 S 
ENDROOT
BRANCH   1   2
ATOM      2  C   UNL     1      -0.748  -0.757   1.290  0.00  0.00    +0.178 A 
ATOM      3  N   UNL     1      -1.099   0.496   1.139  0.00  0.00    -0.223 NA
ATOM      4  C   UNL     1      -0.196   1.500   1.239  0.00  0.00    +0.079 A 
ATOM      5  C   UNL     1      -0.569   2.838   1.079  0.00  0.00    +0.028 A 
ATOM      6  C   UNL     1       0.375   3.820   1.187  0.00  0.00    +0.002 A 
ATOM      7  C   UNL     1       1.702   3.510   1.456  0.00  0.00    +0.001 A 
ATOM      8  C   UNL     1       2.097   2.210   1.617  0.00  0.00    +0.015 A 
ATOM      9  C   UNL     1       1.155   1.188   1.511  0.00  0.00    +0.065 A 
ATOM     10  C   UNL     1       1.522  -0.225   1.675  0.00  0.00    +0.268 A 
ATOM     11  O   UNL     1       2.669  -0.556   1.911  0.00  0.00    -0.267 OA
ATOM     12  N   UNL     1       0.537  -1.146   1.555  0.00  0.00    -0.239 N 
ATOM     13  C   UNL     1       0.835  -2.502   1.702  0.00  0.00    +0.142 A 
ATOM     14  C   UNL     1       0.678  -3.111   2.942  0.00  0.00    +0.050 A 
ATOM     15  C   UNL     1       0.971  -4.457   3.072  0.00  0.00    -0.046 A 
ATOM     16  C   UNL     1       1.423  -5.148   1.957  0.00  0.00    +0.023 A 
ATOM     17  C   UNL     1       1.561  -4.478   0.757  0.00  0.00    +0.113 A 
ATOM     18  N   UNL     1       1.268  -3.195   0.661  0.00  0.00    -0.237 NA
ATOM     19  C   UNL     1       0.809  -5.156   4.398  0.00  0.00    +0.044 C 
ENDBRANCH   1   2
BRANCH   1  20
ATOM     20  C   UNL     1      -3.433  -0.964   0.804  0.00  0.00    +0.173 C 
BRANCH  20  22
ATOM     21  N   UNL     1      -5.849  -1.281   0.375  0.00  0.00    -0.316 N 
ATOM     22  C   UNL     1      -4.649  -1.838   0.636  0.00  0.00    +0.223 C 
ATOM     23  O   UNL     1      -4.550  -3.042   0.737  0.00  0.00    -0.275 OA
ATOM     24  H   UNL     1      -5.939  -0.188   0.284  0.00  0.00    +0.149 HD
BRANCH  21  25
ATOM     25  C   UNL     1      -7.031  -2.130   0.213  0.00  0.00    +0.096 C 
BRANCH  25  26
ATOM     26  C   UNL     1      -8.253  -1.254  -0.074  0.00  0.00    +0.016 C 
BRANCH  26  27
ATOM     27  C   UNL     1      -9.489  -2.115  -0.119  0.00  0.00    +0.093 A 
ATOM     28  C   UNL     1     -10.101  -2.555  -1.234  0.00  0.00    +0.043 A 
ATOM     29  C   UNL     1     -11.210  -3.325  -0.815  0.00  0.00    +0.041 A 
ATOM     30  C   UNL     1     -11.214  -3.304   0.530  0.00  0.00    +0.195 A 
ATOM     31  O   UNL     1     -10.169  -2.569   0.946  0.00  0.00    -0.469 OA
ENDBRANCH  26  27
BRANCH  26  32
ATOM     32  N   UNL     1      -8.395  -0.249   0.988  0.00  0.00    +0.387 N 
ATOM     33  H   UNL     1      -7.459   0.328   1.035  0.00  0.00    -0.081 HD
BRANCH  32  35
ATOM     34  C   UNL     1      -9.031   1.671  -0.392  0.00  0.00    -0.017 C 
ATOM     35  C   UNL     1      -9.487   0.685   0.686  0.00  0.00    -0.081 C 
ENDBRANCH  32  35
BRANCH  32  36
ATOM     36  C   UNL     1      -8.596  -0.889   2.295  0.00  0.00    -0.081 C 
ATOM     37  C   UNL     1      -8.327   0.126   3.407  0.00  0.00    -0.017 C 
ENDBRANCH  32  36
ENDBRANCH  26  32
ENDBRANCH  25  26
ENDBRANCH  21  25
ENDBRANCH  20  22
ENDBRANCH   1  20
TORSDOF 9
