REMARK  Name = ZINC39638365
REMARK  9 active torsions:
REMARK  status: ('A' for Active; 'I' for Inactive)
REMARK    1  A    between atoms: C_1  and  O_2
REMARK    2  A    between atoms: O_2  and  C_3
REMARK    3  A    between atoms: C_7  and  C_11
REMARK    4  A    between atoms: C_8  and  O_9
REMARK    5  A    between atoms: O_9  and  C_10
REMARK    6  A    between atoms: C_11  and  N_12
REMARK    7  A    between atoms: C_13  and  C_15
REMARK    8  A    between atoms: C_26  and  C_28
REMARK    9  A    between atoms: C_30  and  C_35
REMARK                            x       y       z     vdW  Elec       q    Type
REMARK                         _______ _______ _______ _____ _____    ______ ____
ROOT
ATOM      1  C   UNL     1      -1.595  -6.549   2.547  0.00  0.00    +0.100 C 
ATOM      2  C   UNL     1      -0.288  -6.213   3.299  0.00  0.00    +0.121 C 
ATOM      3  N   UNL     1       0.002  -7.422   4.106  0.00  0.00    -0.296 N 
ATOM      4  C   UNL     1      -0.357  -8.553   3.217  0.00  0.00    +0.115 C 
ATOM      5  C   UNL     1      -1.637  -8.086   2.495  0.00  0.00    -0.004 C 
ATOM      6  C   UNL     1      -2.873  -8.606   3.222  0.00  0.00    -0.010 C 
ATOM      7  C   UNL     1      -2.922 -10.132   3.108  0.00  0.00    -0.082 C 
ATOM      8  N   UNL     1      -2.965 -10.517   1.692  0.00  0.00    +0.379 N 
ATOM      9  C   UNL     1      -1.730 -10.094   1.021  0.00  0.00    -0.082 C 
ATOM     10  C   UNL     1      -1.630  -8.566   1.047  0.00  0.00    -0.010 C 
ATOM     11  C   UNL     1       0.483  -7.480   5.363  0.00  0.00    +0.247 C 
ATOM     12  O   UNL     1       0.610  -6.461   6.013  0.00  0.00    -0.270 OA
ATOM     13  H   UNL     1      -3.058 -11.519   1.620  0.00  0.00    -0.086 HD
ATOM     14  H   UNL     1      -3.756 -10.075   1.248  0.00  0.00    -0.086 HD
ENDROOT
BRANCH  11  15
ATOM     15  C   UNL     1       0.857  -8.784   5.952  0.00  0.00    +0.040 A 
ATOM     16  C   UNL     1       0.931  -8.931   7.339  0.00  0.00    +0.025 A 
ATOM     17  C   UNL     1       1.279 -10.150   7.883  0.00  0.00    +0.058 A 
ATOM     18  C   UNL     1       1.556 -11.226   7.059  0.00  0.00    +0.050 A 
ATOM     19  C   UNL     1       1.484 -11.088   5.682  0.00  0.00    +0.125 A 
ATOM     20  C   UNL     1       1.131  -9.874   5.125  0.00  0.00    +0.051 A 
ATOM     21  F   UNL     1       1.756 -12.143   4.884  0.00  0.00    -0.205 F 
BRANCH  17  22
ATOM     22  C   UNL     1       1.360 -10.309   9.380  0.00  0.00    +0.418 C 
ATOM     23  F   UNL     1       0.114 -10.707   9.874  0.00  0.00    -0.166 F 
ATOM     24  F   UNL     1       2.319 -11.278   9.694  0.00  0.00    -0.166 F 
ATOM     25  F   UNL     1       1.723  -9.088   9.959  0.00  0.00    -0.166 F 
ENDBRANCH  17  22
ENDBRANCH  11  15
BRANCH   1  27
ATOM     26  N   UNL     1      -2.706  -5.605   0.549  0.00  0.00    -0.311 N 
ATOM     27  C   UNL     1      -1.561  -5.978   1.153  0.00  0.00    +0.218 C 
ATOM     28  O   UNL     1      -0.502  -5.853   0.575  0.00  0.00    -0.275 OA
ATOM     29  H   UNL     1      -3.553  -5.705   1.012  0.00  0.00    +0.149 HD
BRANCH  26  30
ATOM     30  C   UNL     1      -2.673  -5.050  -0.806  0.00  0.00    +0.143 C 
BRANCH  30  35
ATOM     31  C   UNL     1      -5.971  -3.241  -1.228  0.00  0.00    +0.162 A 
ATOM     32  C   UNL     1      -6.654  -4.112  -2.062  0.00  0.00    +0.049 A 
ATOM     33  C   UNL     1      -6.048  -5.279  -2.486  0.00  0.00    +0.004 A 
ATOM     34  C   UNL     1      -4.761  -5.582  -2.080  0.00  0.00    +0.009 A 
ATOM     35  C   UNL     1      -4.075  -4.717  -1.247  0.00  0.00    +0.015 A 
ATOM     36  C   UNL     1      -4.674  -3.542  -0.823  0.00  0.00    +0.166 A 
BRANCH  31  38
ATOM     37  C   UNL     1      -7.898  -1.847  -1.264  0.00  0.00    +0.277 C 
ATOM     38  O   UNL     1      -6.566  -2.091  -0.810  0.00  0.00    -0.491 OA
ENDBRANCH  31  38
BRANCH  36  39
ATOM     39  O   UNL     1      -3.998  -2.687  -0.009  0.00  0.00    -0.491 OA
ATOM     40  C   UNL     1      -4.135  -2.888   1.399  0.00  0.00    +0.277 C 
ENDBRANCH  36  39
ENDBRANCH  30  35
ENDBRANCH  26  30
ENDBRANCH   1  27
TORSDOF 7
