REMARK  Name = ZINC20912281
REMARK  8 active torsions:
REMARK  status: ('A' for Active; 'I' for Inactive)
REMARK    1  A    between atoms: C_1  and  C_2
REMARK    2  A    between atoms: C_5  and  N_9
REMARK    3  A    between atoms: C_10  and  C_12
REMARK    4  A    between atoms: C_12  and  S_13
REMARK    5  A    between atoms: S_13  and  C_14
REMARK    6  A    between atoms: N_18  and  N_19
REMARK    7  A    between atoms: N_20  and  N_21
REMARK    8  A    between atoms: C_22  and  C_23
REMARK                            x       y       z     vdW  Elec       q    Type
REMARK                         _______ _______ _______ _____ _____    ______ ____
ROOT
ATOM      1  C   UNL     1      -1.540  -1.960  -0.134  0.00  0.00    +0.210 A 
ATOM      2  N   UNL     1      -2.073  -0.762  -0.157  0.00  0.00    -0.119 NA
ATOM      3  N   UNL     1      -1.031   0.175  -0.158  0.00  0.00    -0.109 NA
ATOM      4  C   UNL     1       0.104  -0.481  -0.144  0.00  0.00    +0.254 A 
ATOM      5  N   UNL     1      -0.181  -1.818  -0.126  0.00  0.00    -0.211 N 
ATOM      6  N   UNL     1       1.371   0.083  -0.143  0.00  0.00    -0.204 N 
ATOM      7  H   UNL     1       2.261  -0.564  -0.125  0.00  0.00    +0.177 HD
ENDROOT
BRANCH   5   8
ATOM      8  N   UNL     1       0.732  -2.833  -0.103  0.00  0.00    -0.294 N 
ATOM      9  H   UNL     1       1.808  -2.605  -0.098  0.00  0.00    +0.163 HD
ATOM     10  H   UNL     1       0.391  -3.879  -0.090  0.00  0.00    +0.163 HD
ENDBRANCH   5   8
BRANCH   6  11
ATOM     11  N   UNL     1       1.519   1.476  -0.163  0.00  0.00    -0.187 NA
ATOM     12  C   UNL     1       2.707   2.004  -0.162  0.00  0.00    +0.139 C 
BRANCH  12  13
ATOM     13  C   UNL     1       2.861   3.466  -0.183  0.00  0.00    +0.002 A 
ATOM     14  C   UNL     1       4.120   4.045  -0.295  0.00  0.00    +0.010 A 
ATOM     15  C   UNL     1       4.262   5.425  -0.323  0.00  0.00    +0.001 A 
ATOM     16  C   UNL     1       3.191   6.260  -0.229  0.00  0.00    +0.008 A 
ATOM     17  C   UNL     1       1.889   5.744  -0.107  0.00  0.00    -0.017 A 
ATOM     18  C   UNL     1       1.695   4.341  -0.082  0.00  0.00    -0.009 A 
ATOM     19  C   UNL     1       0.400   3.824   0.038  0.00  0.00    +0.009 A 
ATOM     20  C   UNL     1      -0.660   4.676   0.131  0.00  0.00    +0.001 A 
ATOM     21  C   UNL     1      -0.473   6.056   0.106  0.00  0.00    +0.001 A 
ATOM     22  C   UNL     1       0.773   6.593  -0.010  0.00  0.00    +0.008 A 
ENDBRANCH  12  13
ENDBRANCH   6  11
BRANCH   1  23
ATOM     23  S   UNL     1      -2.422  -3.486  -0.117  0.00  0.00    -0.075 S 
BRANCH  23  24
ATOM     24  C   UNL     1      -4.122  -2.866  -0.141  0.00  0.00    +0.173 C 
BRANCH  24  26
ATOM     25  N   UNL     1      -6.410  -3.807  -0.144  0.00  0.00    -0.284 N 
ATOM     26  C   UNL     1      -5.081  -4.029  -0.130  0.00  0.00    +0.228 C 
ATOM     27  O   UNL     1      -4.656  -5.165  -0.109  0.00  0.00    -0.275 OA
ATOM     28  H   UNL     1      -6.796  -2.778  -0.087  0.00  0.00    +0.155 HD
BRANCH  25  33
ATOM     29  C   UNL     1     -10.013  -8.176  -0.494  0.00  0.00    +0.044 C 
ATOM     30  C   UNL     1      -9.056  -7.015  -0.402  0.00  0.00    -0.049 A 
ATOM     31  C   UNL     1      -7.872  -7.152   0.299  0.00  0.00    +0.005 A 
ATOM     32  C   UNL     1      -6.992  -6.090   0.386  0.00  0.00    +0.024 A 
ATOM     33  C   UNL     1      -7.299  -4.884  -0.231  0.00  0.00    +0.047 A 
ATOM     34  C   UNL     1      -8.492  -4.748  -0.929  0.00  0.00    +0.039 A 
ATOM     35  C   UNL     1      -9.365  -5.816  -1.017  0.00  0.00    +0.020 A 
ATOM     36 BR   UNL     1      -8.918  -3.106  -1.765  0.00  0.00    -0.048 Br
ENDBRANCH  25  33
ENDBRANCH  24  26
ENDBRANCH  23  24
ENDBRANCH   1  23
TORSDOF 7
