REMARK  Name = ZINC28296194
REMARK  10 active torsions:
REMARK  status: ('A' for Active; 'I' for Inactive)
REMARK    1  A    between atoms: C_1  and  C_2
REMARK    2  A    between atoms: C_2  and  O_3
REMARK    3  A    between atoms: O_3  and  C_4
REMARK    4  A    between atoms: C_4  and  C_6
REMARK    5  A    between atoms: C_7  and  C_38
REMARK    6  A    between atoms: C_14  and  C_15
REMARK    7  A    between atoms: C_16  and  C_27
REMARK    8  A    between atoms: N_18  and  C_21
REMARK    9  A    between atoms: C_19  and  C_20
REMARK   10  A    between atoms: C_29  and  C_31
REMARK                            x       y       z     vdW  Elec       q    Type
REMARK                         _______ _______ _______ _____ _____    ______ ____
ROOT
ATOM      1  C   UNL     1      -8.105  -1.042   2.834  0.00  0.00    +0.085 C 
ATOM      2  C   UNL     1      -8.617  -1.012   1.566  0.00  0.00    +0.053 C 
ATOM      3  N   UNL     1      -7.916  -0.491   0.568  0.00  0.00    -0.228 NA
ATOM      4  C   UNL     1      -6.718   0.025   0.685  0.00  0.00    +0.178 A 
ATOM      5  N   UNL     1      -6.023   0.095   1.870  0.00  0.00    -0.275 N 
ATOM      6  C   UNL     1      -4.799   0.640   1.865  0.00  0.00    +0.268 A 
ATOM      7  O   UNL     1      -4.144   0.719   2.888  0.00  0.00    -0.266 OA
ATOM      8  C   UNL     1      -4.274   1.145   0.592  0.00  0.00    +0.081 A 
ATOM      9  C   UNL     1      -3.081   1.738   0.324  0.00  0.00    +0.032 C 
ATOM     10  S   UNL     1      -5.624   0.763  -0.513  0.00  0.00    -0.046 S 
ATOM     11  C   UNL     1      -6.726  -0.466   3.058  0.00  0.00    +0.162 C 
ATOM     12  C   UNL     1      -9.989  -1.576   1.301  0.00  0.00    +0.066 C 
ENDROOT
BRANCH   9  13
ATOM     13  C   UNL     1      -2.054   1.827   1.370  0.00  0.00    +0.020 A 
ATOM     14  C   UNL     1      -1.456   0.743   2.056  0.00  0.00    +0.068 A 
ATOM     15  N   UNL     1      -0.598   1.229   2.911  0.00  0.00    -0.171 NA
ATOM     16  N   UNL     1      -0.599   2.625   2.814  0.00  0.00    -0.236 N 
ATOM     17  C   UNL     1      -1.488   2.987   1.868  0.00  0.00    +0.049 A 
ATOM     18  C   UNL     1      -1.810   4.395   1.438  0.00  0.00    +0.066 C 
ATOM     19  C   UNL     1      -1.762  -0.717   1.841  0.00  0.00    +0.068 C 
BRANCH  16  20
ATOM     20  C   UNL     1       0.192   3.498   3.572  0.00  0.00    +0.066 A 
ATOM     21  C   UNL     1       0.684   4.664   3.001  0.00  0.00    +0.028 A 
ATOM     22  C   UNL     1       1.460   5.526   3.753  0.00  0.00    +0.002 A 
ATOM     23  C   UNL     1       1.754   5.223   5.069  0.00  0.00    +0.000 A 
ATOM     24  C   UNL     1       1.270   4.059   5.639  0.00  0.00    +0.002 A 
ATOM     25  C   UNL     1       0.490   3.197   4.894  0.00  0.00    +0.028 A 
ENDBRANCH  16  20
ENDBRANCH   9  13
BRANCH  11  26
ATOM     26  C   UNL     1      -6.843   0.629   4.087  0.00  0.00    -0.020 A 
ATOM     27  C   UNL     1      -7.285   1.884   3.713  0.00  0.00    +0.009 A 
ATOM     28  C   UNL     1      -7.396   2.888   4.657  0.00  0.00    +0.039 A 
ATOM     29  C   UNL     1      -7.056   2.638   5.976  0.00  0.00    +0.123 A 
ATOM     30  C   UNL     1      -6.608   1.381   6.348  0.00  0.00    +0.039 A 
ATOM     31  C   UNL     1      -6.502   0.378   5.403  0.00  0.00    +0.009 A 
ATOM     32  F   UNL     1      -7.160   3.619   6.899  0.00  0.00    -0.205 F 
ENDBRANCH  11  26
BRANCH   1  33
ATOM     33  C   UNL     1      -8.840  -1.591   3.897  0.00  0.00    +0.339 C 
ATOM     34  O   UNL     1      -9.951  -2.050   3.696  0.00  0.00    -0.245 OA
BRANCH  33  35
ATOM     35  O   UNL     1      -8.316  -1.609   5.141  0.00  0.00    -0.462 OA
BRANCH  35  37
ATOM     36  C   UNL     1      -8.364  -2.115   7.504  0.00  0.00    +0.048 C 
ATOM     37  C   UNL     1      -9.119  -2.183   6.175  0.00  0.00    +0.229 C 
ENDBRANCH  35  37
ENDBRANCH  33  35
ENDBRANCH   1  33
TORSDOF 6
