REMARK  Name = ZINC03011947
REMARK  6 active torsions:
REMARK  status: ('A' for Active; 'I' for Inactive)
REMARK    1  A    between atoms: C_1  and  C_2
REMARK    2  A    between atoms: C_2  and  O_3
REMARK    3  A    between atoms: O_3  and  C_4
REMARK    4  A    between atoms: C_12  and  C_14
REMARK    5  A    between atoms: C_19  and  C_32
REMARK    6  A    between atoms: C_22  and  C_25
REMARK                            x       y       z     vdW  Elec       q    Type
REMARK                         _______ _______ _______ _____ _____    ______ ____
ROOT
ATOM      1  C   UNL     1       4.391  -5.164  -5.029  0.00  0.00    +0.149 A 
ATOM      2  C   UNL     1       5.113  -5.813  -6.056  0.00  0.00    +0.078 A 
ATOM      3  C   UNL     1       5.070  -7.137  -5.810  0.00  0.00    +0.119 A 
ATOM      4  N   UNL     1       4.346  -7.334  -4.669  0.00  0.00    -0.238 N 
ATOM      5  N   UNL     1       3.939  -6.087  -4.198  0.00  0.00    -0.164 NA
ATOM      6  C   UNL     1       4.081  -8.655  -4.091  0.00  0.00    +0.215 C 
ATOM      7  C   UNL     1       4.298  -9.721  -5.172  0.00  0.00    +0.063 C 
ATOM      8  C   UNL     1       5.653  -9.504  -5.854  0.00  0.00    +0.104 C 
ATOM      9  N   UNL     1       5.633  -8.193  -6.532  0.00  0.00    -0.322 N 
ATOM     10  H   UNL     1       5.989  -8.072  -7.426  0.00  0.00    +0.148 HD
ENDROOT
BRANCH   1  19
ATOM     11  C   UNL     1       2.909  -1.786  -0.141  0.00  0.00    +0.403 C 
ATOM     12  O   UNL     1       2.820  -0.583   0.006  0.00  0.00    -0.226 OA
ATOM     13  N   UNL     1       3.515  -2.288  -1.235  0.00  0.00    -0.264 N 
ATOM     14  C   UNL     1       3.624  -3.741  -1.429  0.00  0.00    +0.130 C 
ATOM     15  C   UNL     1       3.013  -4.100  -2.789  0.00  0.00    +0.127 C 
ATOM     16  N   UNL     1       3.577  -3.205  -3.809  0.00  0.00    -0.293 N 
ATOM     17  C   UNL     1       3.468  -1.752  -3.615  0.00  0.00    +0.127 C 
ATOM     18  C   UNL     1       4.074  -1.393  -2.257  0.00  0.00    +0.130 C 
ATOM     19  C   UNL     1       4.183  -3.707  -4.903  0.00  0.00    +0.267 C 
ATOM     20  O   UNL     1       4.559  -2.961  -5.786  0.00  0.00    -0.268 OA
BRANCH  11  21
ATOM     21  O   UNL     1       2.401  -2.618   0.788  0.00  0.00    -0.451 OA
BRANCH  21  23
ATOM     22  C   UNL     1       1.260  -3.111   2.861  0.00  0.00    +0.048 C 
ATOM     23  C   UNL     1       1.772  -2.017   1.922  0.00  0.00    +0.230 C 
ENDBRANCH  21  23
ENDBRANCH  11  21
ENDBRANCH   1  19
BRANCH   8  24
ATOM     24  C   UNL     1       6.750  -9.527  -4.821  0.00  0.00    -0.027 A 
ATOM     25  C   UNL     1       6.995  -8.407  -4.048  0.00  0.00    +0.007 A 
ATOM     26  C   UNL     1       8.001  -8.428  -3.100  0.00  0.00    +0.020 A 
ATOM     27  C   UNL     1       8.762  -9.569  -2.925  0.00  0.00    +0.041 A 
ATOM     28  C   UNL     1       8.517 -10.690  -3.698  0.00  0.00    +0.020 A 
ATOM     29  C   UNL     1       7.507 -10.670  -4.642  0.00  0.00    +0.007 A 
ATOM     30 CL   UNL     1      10.026  -9.595  -1.735  0.00  0.00    -0.084 Cl
ENDBRANCH   8  24
BRANCH   6  31
ATOM     31  C   UNL     1       2.637  -8.716  -3.591  0.00  0.00    +0.412 C 
ATOM     32  F   UNL     1       1.763  -8.493  -4.660  0.00  0.00    -0.168 F 
ATOM     33  F   UNL     1       2.387  -9.978  -3.040  0.00  0.00    -0.168 F 
ATOM     34  F   UNL     1       2.440  -7.734  -2.614  0.00  0.00    -0.168 F 
ENDBRANCH   6  31
TORSDOF 5
