REMARK  Name = ZINC13480103
REMARK  8 active torsions:
REMARK  status: ('A' for Active; 'I' for Inactive)
REMARK    1  A    between atoms: C_1  and  C_2
REMARK    2  A    between atoms: C_2  and  C_3
REMARK    3  A    between atoms: C_2  and  C_4
REMARK    4  A    between atoms: C_2  and  O_19
REMARK    5  A    between atoms: O_19  and  C_20
REMARK    6  A    between atoms: C_20  and  C_22
REMARK    7  A    between atoms: C_23  and  C_24
REMARK    8  A    between atoms: C_27  and  O_30
REMARK                            x       y       z     vdW  Elec       q    Type
REMARK                         _______ _______ _______ _____ _____    ______ ____
ROOT
ATOM      1  C   UNL     1      -6.469   6.509   0.212  0.00  0.00    +0.059 C 
ATOM      2  C   UNL     1      -5.002   6.528  -0.222  0.00  0.00    +0.145 C 
ATOM      3  C   UNL     1      -4.381   7.878   0.142  0.00  0.00    +0.059 C 
ENDROOT
BRANCH   2   4
ATOM      4  C   UNL     1      -4.244   5.408   0.493  0.00  0.00    +0.221 C 
ATOM      5  C   UNL     1      -2.754   5.401   0.075  0.00  0.00    +0.091 C 
ATOM      6  C   UNL     1      -2.445   3.917   0.049  0.00  0.00    +0.041 A 
ATOM      7  C   UNL     1      -3.659   3.246   0.051  0.00  0.00    +0.128 A 
ATOM      8  C   UNL     1      -3.671   1.847   0.047  0.00  0.00    +0.047 A 
ATOM      9  C   UNL     1      -2.506   1.139   0.034  0.00  0.00    +0.015 A 
ATOM     10  C   UNL     1      -1.278   1.810   0.018  0.00  0.00    +0.018 A 
ATOM     11  C   UNL     1      -1.252   3.219   0.031  0.00  0.00    +0.146 A 
ATOM     12  O   UNL     1      -0.067   3.866   0.025  0.00  0.00    -0.422 OA
ATOM     13  C   UNL     1       1.097   3.199   0.009  0.00  0.00    +0.337 A 
ATOM     14  O   UNL     1       2.141   3.826   0.003  0.00  0.00    -0.245 OA
ATOM     15  C   UNL     1       1.143   1.790   0.001  0.00  0.00    +0.092 A 
ATOM     16  C   UNL     1      -0.013   1.076   0.008  0.00  0.00    +0.018 A 
ATOM     17  O   UNL     1      -4.703   4.120   0.052  0.00  0.00    -0.484 OA
ENDBRANCH   2   4
BRANCH   2  18
ATOM     18  O   UNL     1      -4.921   6.332  -1.635  0.00  0.00    -0.452 OA
BRANCH  18  19
ATOM     19  C   UNL     1      -5.543   7.240  -2.417  0.00  0.00    +0.333 C 
ATOM     20  O   UNL     1      -6.137   8.172  -1.910  0.00  0.00    -0.246 OA
BRANCH  19  21
ATOM     21  C   UNL     1      -5.503   7.106  -3.828  0.00  0.00    +0.092 C 
ATOM     22  C   UNL     1      -6.125   8.015  -4.610  0.00  0.00    +0.015 C 
BRANCH  22  23
ATOM     23  C   UNL     1      -6.084   7.877  -6.072  0.00  0.00    -0.025 A 
ATOM     24  C   UNL     1      -5.395   6.808  -6.657  0.00  0.00    +0.011 A 
ATOM     25  C   UNL     1      -5.364   6.680  -8.028  0.00  0.00    +0.046 A 
ATOM     26  C   UNL     1      -6.005   7.617  -8.830  0.00  0.00    +0.117 A 
ATOM     27  C   UNL     1      -6.685   8.683  -8.255  0.00  0.00    +0.046 A 
ATOM     28  C   UNL     1      -6.728   8.817  -6.885  0.00  0.00    +0.011 A 
BRANCH  26  29
ATOM     29  O   UNL     1      -5.966   7.489 -10.181  0.00  0.00    -0.507 OA
ATOM     30  H   UNL     1      -5.216   7.937 -10.597  0.00  0.00    +0.292 HD
ENDBRANCH  26  29
ENDBRANCH  22  23
ENDBRANCH  19  21
ENDBRANCH  18  19
ENDBRANCH   2  18
TORSDOF 6
