REMARK  Name = ZINC36725639
REMARK  7 active torsions:
REMARK  status: ('A' for Active; 'I' for Inactive)
REMARK    1  A    between atoms: C_1  and  C_2
REMARK    2  A    between atoms: C_7  and  C_9
REMARK    3  A    between atoms: C_7  and  C_10
REMARK    4  A    between atoms: N_13  and  C_17
REMARK    5  A    between atoms: C_17  and  C_18
REMARK    6  A    between atoms: N_20  and  C_21
REMARK    7  A    between atoms: C_21  and  C_22
REMARK                            x       y       z     vdW  Elec       q    Type
REMARK                         _______ _______ _______ _____ _____    ______ ____
ROOT
ATOM      1  C   UNL     1      -0.159   1.471  -0.048  0.00  0.00    +0.007 C 
ATOM      2  C   UNL     1      -0.085  -0.057  -0.027  0.00  0.00    -0.011 C 
ATOM      3  C   UNL     1      -1.501  -0.636   0.015  0.00  0.00    +0.038 C 
ATOM      4  C   UNL     1      -1.428  -2.159   0.057  0.00  0.00    +0.113 C 
ATOM      5  C   UNL     1      -0.642  -2.627   1.276  0.00  0.00    +0.041 C 
ATOM      6  C   UNL     1       0.772  -2.041   1.230  0.00  0.00    -0.032 C 
ATOM      7  C   UNL     1       0.688  -0.513   1.212  0.00  0.00    +0.009 C 
ATOM      8  C   UNL     1       1.485  -2.527  -0.033  0.00  0.00    +0.011 C 
ATOM      9  C   UNL     1       1.553  -2.495   2.465  0.00  0.00    +0.011 C 
ATOM     10  C   UNL     1      -2.817  -2.754   0.064  0.00  0.00    +0.247 C 
ATOM     11  O   UNL     1      -3.679  -2.595   0.901  0.00  0.00    -0.273 OA
ATOM     12  N   UNL     1      -2.895  -3.499  -1.058  0.00  0.00    -0.215 N 
ATOM     13  C   UNL     1      -1.756  -3.453  -1.761  0.00  0.00    +0.310 C 
ATOM     14  O   UNL     1      -1.585  -4.042  -2.810  0.00  0.00    -0.252 OA
ATOM     15  N   UNL     1      -0.823  -2.679  -1.176  0.00  0.00    -0.285 N 
ATOM     16  H   UNL     1       0.073  -2.500  -1.504  0.00  0.00    +0.151 HD
ENDROOT
BRANCH  12  17
ATOM     17  C   UNL     1      -4.079  -4.264  -1.458  0.00  0.00    +0.213 C 
BRANCH  17  18
ATOM     18  C   UNL     1      -4.972  -3.399  -2.310  0.00  0.00    +0.231 C 
ATOM     19  O   UNL     1      -4.651  -2.256  -2.558  0.00  0.00    -0.274 OA
ATOM     20  N   UNL     1      -6.127  -3.895  -2.795  0.00  0.00    -0.313 N 
ATOM     21  H   UNL     1      -6.383  -4.809  -2.596  0.00  0.00    +0.149 HD
BRANCH  20  22
ATOM     22  C   UNL     1      -6.995  -3.054  -3.623  0.00  0.00    +0.111 C 
BRANCH  22  23
ATOM     23  C   UNL     1      -8.232  -3.853  -4.040  0.00  0.00    -0.013 C 
ATOM     24  C   UNL     1      -8.995  -4.301  -2.792  0.00  0.00    +0.012 C 
ATOM     25  C   UNL     1     -10.231  -5.100  -3.210  0.00  0.00    -0.010 C 
ATOM     26  C   UNL     1     -11.138  -4.222  -4.074  0.00  0.00    +0.007 C 
ATOM     27  C   UNL     1     -10.375  -3.774  -5.322  0.00  0.00    -0.010 C 
ATOM     28  C   UNL     1      -9.138  -2.975  -4.905  0.00  0.00    +0.012 C 
ATOM     29  C   UNL     1      -9.941  -5.003  -6.124  0.00  0.00    +0.007 C 
ATOM     30  C   UNL     1      -9.034  -5.881  -5.259  0.00  0.00    -0.010 C 
ATOM     31  C   UNL     1      -9.797  -6.329  -4.011  0.00  0.00    +0.007 C 
ATOM     32  C   UNL     1      -7.798  -5.082  -4.842  0.00  0.00    +0.012 C 
ENDBRANCH  22  23
ENDBRANCH  20  22
ENDBRANCH  17  18
ENDBRANCH  12  17
TORSDOF 4
