REMARK  Name = ZINC65751737
REMARK  9 active torsions:
REMARK  status: ('A' for Active; 'I' for Inactive)
REMARK    1  A    between atoms: C_1  and  C_2
REMARK    2  A    between atoms: C_5  and  C_29
REMARK    3  A    between atoms: C_6  and  C_8
REMARK    4  A    between atoms: C_8  and  C_9
REMARK    5  A    between atoms: C_8  and  N_10
REMARK    6  A    between atoms: N_13  and  C_14
REMARK    7  A    between atoms: C_18  and  C_20
REMARK    8  A    between atoms: C_20  and  N_21
REMARK    9  A    between atoms: C_25  and  C_26
REMARK                            x       y       z     vdW  Elec       q    Type
REMARK                         _______ _______ _______ _____ _____    ______ ____
ROOT
ATOM      1  C   UNL     1       2.441  -2.611   6.513  0.00  0.00    +0.035 A 
ATOM      2  C   UNL     1       2.513  -3.998   6.496  0.00  0.00    +0.023 A 
ATOM      3  C   UNL     1       3.222  -4.663   7.478  0.00  0.00    +0.002 A 
ATOM      4  C   UNL     1       3.858  -3.949   8.477  0.00  0.00    +0.002 A 
ATOM      5  C   UNL     1       3.788  -2.568   8.496  0.00  0.00    -0.062 A 
ATOM      6  C   UNL     1       3.086  -1.897   7.513  0.00  0.00    +0.025 A 
ENDROOT
BRANCH   1  10
ATOM      7  N   UNL     1      -0.013  -1.890   3.961  0.00  0.00    -0.293 N 
ATOM      8  C   UNL     1       0.617  -2.491   4.990  0.00  0.00    +0.304 C 
ATOM      9  O   UNL     1       0.186  -3.534   5.441  0.00  0.00    -0.252 OA
ATOM     10  N   UNL     1       1.725  -1.935   5.519  0.00  0.00    -0.269 N 
ATOM     11  H   UNL     1       0.330  -1.058   3.601  0.00  0.00    +0.151 HD
ATOM     12  H   UNL     1       2.025  -1.065   5.211  0.00  0.00    +0.156 HD
BRANCH   7  13
ATOM     13  C   UNL     1      -1.218  -2.495   3.386  0.00  0.00    +0.102 C 
ATOM     14  C   UNL     1      -2.450  -1.992   4.140  0.00  0.00    +0.033 C 
BRANCH  13  20
ATOM     15  C   UNL     1      -0.266   0.714  -0.334  0.00  0.00    +0.044 C 
ATOM     16  C   UNL     1      -0.873  -0.576   0.153  0.00  0.00    -0.050 A 
ATOM     17  C   UNL     1      -1.529  -1.410  -0.733  0.00  0.00    +0.003 A 
ATOM     18  C   UNL     1      -2.085  -2.593  -0.287  0.00  0.00    +0.004 A 
ATOM     19  C   UNL     1      -1.984  -2.945   1.047  0.00  0.00    -0.046 A 
ATOM     20  C   UNL     1      -1.327  -2.112   1.933  0.00  0.00    -0.024 A 
ATOM     21  C   UNL     1      -0.767  -0.930   1.485  0.00  0.00    +0.009 A 
ATOM     22  C   UNL     1      -2.592  -4.235   1.534  0.00  0.00    +0.044 C 
ENDBRANCH  13  20
ENDBRANCH   7  13
ENDBRANCH   1  10
BRANCH   5  23
ATOM     23  C   UNL     1       4.482  -1.794   9.587  0.00  0.00    -0.042 C 
BRANCH  23  24
ATOM     24  N   UNL     1       5.852  -1.474   9.164  0.00  0.00    +0.390 N 
ATOM     25  C   UNL     1       5.828  -0.487   8.054  0.00  0.00    -0.077 C 
ATOM     26  C   UNL     1       7.239   0.149   8.114  0.00  0.00    -0.020 C 
ATOM     27  C   UNL     1       7.517   0.230   9.633  0.00  0.00    -0.008 C 
ATOM     28  C   UNL     1       6.587  -0.819  10.268  0.00  0.00    +0.019 C 
ATOM     29  H   UNL     1       6.333  -2.312   8.875  0.00  0.00    -0.080 HD
BRANCH  28  30
ATOM     30  C   UNL     1       7.402  -1.841  11.018  0.00  0.00    +0.197 C 
ATOM     31  O   UNL     1       7.382  -3.004  10.675  0.00  0.00    -0.278 OA
ATOM     32  N   UNL     1       8.155  -1.462  12.070  0.00  0.00    -0.331 N 
ATOM     33  H   UNL     1       8.172  -0.531  12.345  0.00  0.00    +0.145 HD
ATOM     34  H   UNL     1       8.680  -2.119  12.553  0.00  0.00    +0.145 HD
ENDBRANCH  28  30
ENDBRANCH  23  24
ENDBRANCH   5  23
TORSDOF 6
