REMARK  Name = ZINC39687172
REMARK  11 active torsions:
REMARK  status: ('A' for Active; 'I' for Inactive)
REMARK    1  A    between atoms: C_1  and  C_2
REMARK    2  A    between atoms: C_2  and  C_4
REMARK    3  A    between atoms: C_2  and  N_12
REMARK    4  A    between atoms: C_4  and  C_5
REMARK    5  A    between atoms: C_13  and  C_15
REMARK    6  A    between atoms: C_26  and  C_28
REMARK    7  A    between atoms: C_28  and  C_30
REMARK    8  A    between atoms: C_28  and  O_33
REMARK    9  A    between atoms: C_30  and  C_31
REMARK   10  A    between atoms: C_30  and  C_32
REMARK   11  A    between atoms: O_33  and  C_34
REMARK                            x       y       z     vdW  Elec       q    Type
REMARK                         _______ _______ _______ _____ _____    ______ ____
ROOT
ATOM      1  C   UNL     1       0.874  -0.795   4.392  0.00  0.00    +0.100 C 
ATOM      2  C   UNL     1       1.233  -2.234   3.959  0.00  0.00    +0.121 C 
ATOM      3  N   UNL     1       1.062  -3.048   5.185  0.00  0.00    -0.297 N 
ATOM      4  C   UNL     1      -0.150  -2.490   5.831  0.00  0.00    +0.115 C 
ATOM      5  C   UNL     1      -0.035  -0.967   5.621  0.00  0.00    -0.004 C 
ATOM      6  C   UNL     1      -1.411  -0.367   5.349  0.00  0.00    -0.010 C 
ATOM      7  C   UNL     1      -2.277  -0.498   6.605  0.00  0.00    -0.082 C 
ATOM      8  N   UNL     1      -1.630   0.198   7.723  0.00  0.00    +0.379 N 
ATOM      9  C   UNL     1      -0.348  -0.446   8.039  0.00  0.00    -0.082 C 
ATOM     10  C   UNL     1       0.600  -0.312   6.843  0.00  0.00    -0.010 C 
ATOM     11  C   UNL     1       1.834  -4.065   5.616  0.00  0.00    +0.257 C 
ATOM     12  O   UNL     1       1.561  -4.638   6.649  0.00  0.00    -0.272 OA
ATOM     13  H   UNL     1      -1.468   1.161   7.470  0.00  0.00    -0.086 HD
ATOM     14  H   UNL     1      -2.231   0.162   8.533  0.00  0.00    -0.086 HD
ENDROOT
BRANCH   1  16
ATOM     15  N   UNL     1       0.295   1.244   3.115  0.00  0.00    -0.312 N 
ATOM     16  C   UNL     1       0.134  -0.083   3.288  0.00  0.00    +0.218 C 
ATOM     17  O   UNL     1      -0.606  -0.705   2.556  0.00  0.00    -0.275 OA
ATOM     18  H   UNL     1       0.887   1.741   3.701  0.00  0.00    +0.149 HD
BRANCH  15  20
ATOM     19  C   UNL     1      -1.823   2.317   2.530  0.00  0.00    +0.028 C 
ATOM     20  C   UNL     1      -0.424   1.935   2.042  0.00  0.00    +0.074 C 
BRANCH  20  21
ATOM     21  C   UNL     1       0.342   3.200   1.648  0.00  0.00    +0.060 C 
BRANCH  21  22
ATOM     22  C   UNL     1       1.673   2.817   1.054  0.00  0.00    -0.010 A 
ATOM     23  C   UNL     1       2.800   2.775   1.853  0.00  0.00    +0.006 A 
ATOM     24  C   UNL     1       4.021   2.424   1.308  0.00  0.00    +0.000 A 
ATOM     25  C   UNL     1       4.116   2.114  -0.036  0.00  0.00    +0.003 A 
ATOM     26  C   UNL     1       2.990   2.155  -0.836  0.00  0.00    +0.038 A 
ATOM     27  C   UNL     1       1.766   2.502  -0.291  0.00  0.00    +0.127 A 
ATOM     28  F   UNL     1       0.664   2.538  -1.071  0.00  0.00    -0.205 F 
ENDBRANCH  21  22
ENDBRANCH  20  21
ENDBRANCH  15  20
ENDBRANCH   1  16
BRANCH  11  29
ATOM     29  C   UNL     1       3.037  -4.490   4.814  0.00  0.00    +0.261 C 
BRANCH  29  30
ATOM     30  C   UNL     1       2.579  -5.047   3.464  0.00  0.00    +0.033 C 
ATOM     31  C   UNL     1       3.800  -5.479   2.650  0.00  0.00    +0.011 C 
ATOM     32  C   UNL     1       1.667  -6.254   3.694  0.00  0.00    +0.011 C 
ENDBRANCH  29  30
BRANCH  29  33
ATOM     33  O   UNL     1       3.753  -5.500   5.527  0.00  0.00    -0.479 OA
BRANCH  33  34
ATOM     34  C   UNL     1       5.109  -5.471   5.442  0.00  0.00    +0.122 A 
ATOM     35  C   UNL     1       5.734  -4.559   4.604  0.00  0.00    +0.045 A 
ATOM     36  C   UNL     1       7.112  -4.532   4.519  0.00  0.00    +0.004 A 
ATOM     37  C   UNL     1       7.869  -5.414   5.268  0.00  0.00    +0.000 A 
ATOM     38  C   UNL     1       7.249  -6.325   6.103  0.00  0.00    +0.004 A 
ATOM     39  C   UNL     1       5.871  -6.351   6.196  0.00  0.00    +0.045 A 
ENDBRANCH  33  34
ENDBRANCH  29  33
ENDBRANCH  11  29
TORSDOF 8
