REMARK  Name = ZINC23432870
REMARK  11 active torsions:
REMARK  status: ('A' for Active; 'I' for Inactive)
REMARK    1  A    between atoms: C_1  and  C_2
REMARK    2  A    between atoms: C_5  and  N_9
REMARK    3  A    between atoms: C_10  and  C_22
REMARK    4  A    between atoms: C_22  and  C_23
REMARK    5  A    between atoms: C_23  and  C_24
REMARK    6  A    between atoms: N_26  and  C_27
REMARK    7  A    between atoms: C_27  and  C_29
REMARK    8  A    between atoms: C_27  and  C_30
REMARK    9  A    between atoms: C_30  and  N_31
REMARK   10  A    between atoms: N_31  and  C_32
REMARK   11  A    between atoms: N_31  and  C_33
REMARK                            x       y       z     vdW  Elec       q    Type
REMARK                         _______ _______ _______ _____ _____    ______ ____
ROOT
ATOM      1  N   UNL     1       3.674   3.715  -0.170  0.00  0.00    -0.310 N 
ATOM      2  C   UNL     1       4.395   4.872  -0.015  0.00  0.00    +0.025 A 
ATOM      3  C   UNL     1       3.539   5.876   0.297  0.00  0.00    +0.030 A 
ATOM      4  C   UNL     1       2.258   5.338   0.339  0.00  0.00    +0.016 A 
ATOM      5  C   UNL     1       2.366   3.996   0.042  0.00  0.00    +0.064 A 
ATOM      6  C   UNL     1       1.145   3.168   0.008  0.00  0.00    +0.041 A 
ATOM      7  C   UNL     1       1.176   1.783   0.000  0.00  0.00    +0.013 A 
ATOM      8  C   UNL     1      -0.013   1.076   0.008  0.00  0.00    +0.001 A 
ATOM      9  C   UNL     1      -1.221   1.751   0.017  0.00  0.00    +0.004 A 
ATOM     10  C   UNL     1      -1.258   3.133   0.024  0.00  0.00    +0.046 A 
ATOM     11  C   UNL     1      -0.081   3.861   0.009  0.00  0.00    +0.130 A 
ATOM     12  O   UNL     1      -0.105   5.216  -0.015  0.00  0.00    -0.487 OA
ATOM     13  C   UNL     1       0.923   5.968   0.635  0.00  0.00    +0.266 C 
ENDROOT
BRANCH   1  18
ATOM     14  C   UNL     1       5.811  -1.379  -1.479  0.00  0.00    +0.044 C 
ATOM     15  C   UNL     1       5.243  -0.027  -1.133  0.00  0.00    -0.048 A 
ATOM     16  C   UNL     1       5.120   0.351   0.192  0.00  0.00    +0.005 A 
ATOM     17  C   UNL     1       4.606   1.592   0.513  0.00  0.00    +0.029 A 
ATOM     18  C   UNL     1       4.202   2.457  -0.494  0.00  0.00    +0.082 A 
ATOM     19  C   UNL     1       4.326   2.075  -1.825  0.00  0.00    +0.147 A 
ATOM     20  C   UNL     1       4.847   0.833  -2.140  0.00  0.00    +0.043 A 
ATOM     21  F   UNL     1       3.939   2.916  -2.809  0.00  0.00    -0.203 F 
ENDBRANCH   1  18
BRANCH   2  22
ATOM     22  C   UNL     1       5.889   5.004  -0.166  0.00  0.00    +0.063 C 
BRANCH  22  23
ATOM     23  C   UNL     1       6.553   4.880   1.207  0.00  0.00    +0.102 C 
BRANCH  23  24
ATOM     24  C   UNL     1       8.046   5.012   1.056  0.00  0.00    +0.214 C 
ATOM     25  O   UNL     1       8.532   5.189  -0.042  0.00  0.00    -0.276 OA
ATOM     26  N   UNL     1       8.843   4.934   2.140  0.00  0.00    -0.314 N 
ATOM     27  H   UNL     1       8.403   4.774   3.135  0.00  0.00    +0.149 HD
BRANCH  26  28
ATOM     28  C   UNL     1      10.295   5.063   1.994  0.00  0.00    +0.053 C 
ATOM     29  C   UNL     1      10.679   6.544   2.000  0.00  0.00    +0.026 C 
BRANCH  28  30
ATOM     30  C   UNL     1      10.990   4.351   3.156  0.00  0.00    -0.057 C 
BRANCH  30  31
ATOM     31  N   UNL     1      10.529   2.958   3.223  0.00  0.00    +0.377 N 
ATOM     32  C   UNL     1      10.964   2.203   2.040  0.00  0.00    -0.097 C 
ATOM     33  C   UNL     1      10.988   2.310   4.459  0.00  0.00    -0.097 C 
ATOM     34  H   UNL     1       9.430   2.966   3.233  0.00  0.00    -0.083 HD
ENDBRANCH  30  31
ENDBRANCH  28  30
ENDBRANCH  26  28
ENDBRANCH  23  24
ENDBRANCH  22  23
ENDBRANCH   2  22
TORSDOF 7
