REMARK  Name = ZINC20103213
REMARK  9 active torsions:
REMARK  status: ('A' for Active; 'I' for Inactive)
REMARK    1  A    between atoms: C_1  and  C_2
REMARK    2  A    between atoms: C_2  and  C_4
REMARK    3  A    between atoms: C_2  and  S_16
REMARK    4  A    between atoms: S_16  and  C_17
REMARK    5  A    between atoms: C_20  and  C_28
REMARK    6  A    between atoms: N_21  and  C_22
REMARK    7  A    between atoms: C_28  and  C_30
REMARK    8  A    between atoms: C_28  and  O_31
REMARK    9  A    between atoms: O_31  and  C_32
REMARK                            x       y       z     vdW  Elec       q    Type
REMARK                         _______ _______ _______ _____ _____    ______ ____
ROOT
ATOM      1  C   UNL     1       0.557   0.274   4.562  0.00  0.00    +0.197 A 
ATOM      2  N   UNL     1       1.507   1.055   4.102  0.00  0.00    -0.122 NA
ATOM      3  N   UNL     1       1.137   1.589   2.993  0.00  0.00    -0.129 NA
ATOM      4  C   UNL     1      -0.065   1.192   2.684  0.00  0.00    +0.179 A 
ATOM      5  N   UNL     1      -0.478   0.337   3.671  0.00  0.00    -0.271 N 
ENDROOT
BRANCH   5   6
ATOM      6  C   UNL     1      -1.708  -0.334   3.751  0.00  0.00    +0.050 A 
ATOM      7  C   UNL     1      -2.884   0.386   3.910  0.00  0.00    +0.026 A 
ATOM      8  C   UNL     1      -4.093  -0.278   3.983  0.00  0.00    +0.002 A 
ATOM      9  C   UNL     1      -4.132  -1.658   3.910  0.00  0.00    +0.000 A 
ATOM     10  C   UNL     1      -2.961  -2.378   3.756  0.00  0.00    +0.002 A 
ATOM     11  C   UNL     1      -1.749  -1.720   3.677  0.00  0.00    +0.026 A 
ENDBRANCH   5   6
BRANCH   4  12
ATOM     12  C   UNL     1      -0.852   1.595   1.464  0.00  0.00    +0.238 C 
ATOM     13  C   UNL     1      -0.294   0.874   0.235  0.00  0.00    +0.060 C 
BRANCH  12  14
ATOM     14  O   UNL     1      -0.748   3.008   1.275  0.00  0.00    -0.480 OA
BRANCH  14  15
ATOM     15  C   UNL     1      -1.755   3.615   0.593  0.00  0.00    +0.140 A 
ATOM     16  C   UNL     1      -2.762   2.855   0.018  0.00  0.00    +0.047 A 
ATOM     17  C   UNL     1      -3.785   3.474  -0.675  0.00  0.00    +0.004 A 
ATOM     18  C   UNL     1      -3.805   4.851  -0.795  0.00  0.00    +0.002 A 
ATOM     19  C   UNL     1      -2.803   5.613  -0.223  0.00  0.00    +0.023 A 
ATOM     20  C   UNL     1      -1.780   4.998   0.476  0.00  0.00    +0.083 A 
ATOM     21 CL   UNL     1      -0.526   5.955   1.201  0.00  0.00    -0.080 Cl
ENDBRANCH  14  15
ENDBRANCH  12  14
ENDBRANCH   4  12
BRANCH   1  22
ATOM     22  S   UNL     1       0.606  -0.673   6.047  0.00  0.00    -0.075 S 
BRANCH  22  24
ATOM     23  C   UNL     1       3.310  -0.760   5.668  0.00  0.00    +0.027 C 
ATOM     24  C   UNL     1       2.257  -0.234   6.645  0.00  0.00    +0.117 C 
BRANCH  24  25
ATOM     25  C   UNL     1       2.480  -0.851   8.002  0.00  0.00    +0.124 A 
ATOM     26  N   UNL     1       1.768  -1.961   8.331  0.00  0.00    -0.309 N 
ATOM     27  H   UNL     1       1.048  -2.384   7.615  0.00  0.00    +0.170 HD
ATOM     28  C   UNL     1       1.936  -2.555   9.535  0.00  0.00    +0.259 A 
ATOM     29  O   UNL     1       1.308  -3.553   9.840  0.00  0.00    -0.267 OA
ATOM     30  C   UNL     1       2.900  -1.946  10.462  0.00  0.00    +0.065 A 
ATOM     31  C   UNL     1       3.142  -2.476  11.728  0.00  0.00    +0.015 A 
ATOM     32  C   UNL     1       4.057  -1.864  12.557  0.00  0.00    +0.001 A 
ATOM     33  C   UNL     1       4.737  -0.726  12.141  0.00  0.00    +0.002 A 
ATOM     34  C   UNL     1       4.512  -0.187  10.895  0.00  0.00    +0.028 A 
ATOM     35  C   UNL     1       3.590  -0.789  10.036  0.00  0.00    +0.078 A 
ATOM     36  N   UNL     1       3.337  -0.290   8.800  0.00  0.00    -0.233 NA
ENDBRANCH  24  25
ENDBRANCH  22  24
ENDBRANCH   1  22
TORSDOF 7
