REMARK  Name = ZINC39855531
REMARK  9 active torsions:
REMARK  status: ('A' for Active; 'I' for Inactive)
REMARK    1  A    between atoms: C_1  and  C_2
REMARK    2  A    between atoms: C_6  and  C_7
REMARK    3  A    between atoms: N_9  and  C_10
REMARK    4  A    between atoms: C_13  and  C_16
REMARK    5  A    between atoms: C_16  and  O_18
REMARK    6  A    between atoms: O_18  and  C_19
REMARK    7  A    between atoms: C_21  and  C_26
REMARK    8  A    between atoms: C_21  and  C_27
REMARK    9  A    between atoms: C_23  and  O_25
REMARK                            x       y       z     vdW  Elec       q    Type
REMARK                         _______ _______ _______ _____ _____    ______ ____
ROOT
ATOM      1  C   UNL     1      -0.010   1.502   0.010  0.00  0.00    +0.048 C 
ATOM      2  C   UNL     1      -0.002  -0.005   0.002  0.00  0.00    +0.006 A 
ATOM      3  C   UNL     1      -0.007  -0.834  -1.122  0.00  0.00    +0.025 A 
ATOM      4  C   UNL     1       0.003  -2.116  -0.680  0.00  0.00    +0.112 A 
ATOM      5  O   UNL     1       0.016  -2.107   0.655  0.00  0.00    -0.454 OA
ATOM      6  C   UNL     1       0.018  -0.829   1.094  0.00  0.00    +0.193 A 
ATOM      7  C   UNL     1      -0.003  -3.319  -1.593  0.00  0.00    +0.081 C 
ATOM      8  C   UNL     1      -0.438  -2.864  -2.991  0.00  0.00    -0.025 C 
ATOM      9  C   UNL     1       0.390  -1.649  -3.415  0.00  0.00    +0.043 C 
ATOM     10  C   UNL     1      -0.020  -0.433  -2.574  0.00  0.00    +0.149 C 
ATOM     11  C   UNL     1      -1.921  -2.487  -2.965  0.00  0.00    +0.011 C 
ATOM     12  C   UNL     1      -0.219  -4.004  -3.988  0.00  0.00    +0.011 C 
ENDROOT
BRANCH   6  13
ATOM     13  C   UNL     1       0.035  -0.400   2.496  0.00  0.00    +0.284 C 
ATOM     14  O   UNL     1       0.031   0.786   2.769  0.00  0.00    -0.266 OA
ATOM     15  N   UNL     1       0.054  -1.319   3.481  0.00  0.00    -0.279 N 
ATOM     16  H   UNL     1      -0.011  -2.262   3.266  0.00  0.00    +0.155 HD
BRANCH  15  17
ATOM     17  C   UNL     1       0.165  -0.913   4.809  0.00  0.00    +0.034 A 
ATOM     18  C   UNL     1       0.888  -1.687   5.713  0.00  0.00    +0.024 A 
ATOM     19  C   UNL     1       1.001  -1.289   7.025  0.00  0.00    +0.017 A 
ATOM     20  C   UNL     1       0.388  -0.107   7.451  0.00  0.00    +0.059 A 
ATOM     21  C   UNL     1      -0.337   0.668   6.541  0.00  0.00    +0.017 A 
ATOM     22  C   UNL     1      -0.441   0.267   5.228  0.00  0.00    +0.024 A 
BRANCH  20  23
ATOM     23  C   UNL     1       0.506   0.322   8.857  0.00  0.00    +0.339 C 
ATOM     24  O   UNL     1       1.137  -0.352   9.647  0.00  0.00    -0.245 OA
BRANCH  23  25
ATOM     25  O   UNL     1      -0.085   1.462   9.265  0.00  0.00    -0.464 OA
ATOM     26  C   UNL     1       0.071   1.817  10.641  0.00  0.00    +0.280 C 
ENDBRANCH  23  25
ENDBRANCH  20  23
ENDBRANCH  15  17
ENDBRANCH   6  13
BRANCH  10  27
ATOM     27  O   UNL     1       0.906   0.634  -2.787  0.00  0.00    -0.387 OA
ATOM     28  H   UNL     1       0.715   1.430  -2.272  0.00  0.00    +0.210 HD
ENDBRANCH  10  27
TORSDOF 5
