REMARK  Name = ZINC46841560
REMARK  13 active torsions:
REMARK  status: ('A' for Active; 'I' for Inactive)
REMARK    1  A    between atoms: C_1  and  C_2
REMARK    2  A    between atoms: C_2  and  N_3
REMARK    3  A    between atoms: N_3  and  C_4
REMARK    4  A    between atoms: N_3  and  S_6
REMARK    5  A    between atoms: C_4  and  C_5
REMARK    6  A    between atoms: S_6  and  C_9
REMARK    7  A    between atoms: C_12  and  O_35
REMARK    8  A    between atoms: C_13  and  C_15
REMARK    9  A    between atoms: N_17  and  C_18
REMARK   10  A    between atoms: C_18  and  C_19
REMARK   11  A    between atoms: C_27  and  C_34
REMARK   12  A    between atoms: C_30  and  C_33
REMARK   13  A    between atoms: O_35  and  C_36
REMARK                            x       y       z     vdW  Elec       q    Type
REMARK                         _______ _______ _______ _____ _____    ______ ____
ROOT
ATOM      1  C   UNL     1       4.683   2.314   4.492  0.00  0.00    +0.248 C 
ATOM      2  O   UNL     1       5.285   3.336   4.759  0.00  0.00    -0.270 OA
ATOM      3  N   UNL     1       4.337   1.459   5.475  0.00  0.00    -0.307 N 
ATOM      4  H   UNL     1       3.856   0.644   5.262  0.00  0.00    +0.149 HD
ENDROOT
BRANCH   1   9
ATOM      5  C   UNL     1       3.309   0.561   1.471  0.00  0.00    +0.106 A 
ATOM      6  C   UNL     1       3.663   1.441   0.461  0.00  0.00    +0.032 A 
ATOM      7  C   UNL     1       4.348   2.603   0.755  0.00  0.00    +0.048 A 
ATOM      8  C   UNL     1       4.685   2.898   2.067  0.00  0.00    +0.132 A 
ATOM      9  C   UNL     1       4.329   2.011   3.092  0.00  0.00    +0.080 A 
ATOM     10  C   UNL     1       3.632   0.841   2.781  0.00  0.00    +0.045 A 
BRANCH   5  11
ATOM     11  S   UNL     1       2.435  -0.918   1.080  0.00  0.00    +0.061 S 
ATOM     12  O   UNL     1       2.694  -1.834   2.135  0.00  0.00    -0.153 OA
ATOM     13  O   UNL     1       2.730  -1.217  -0.277  0.00  0.00    -0.153 OA
BRANCH  11  14
ATOM     14  N   UNL     1       0.819  -0.564   1.147  0.00  0.00    -0.177 NA
BRANCH  14  16
ATOM     15  C   UNL     1       0.084   1.436  -0.053  0.00  0.00    +0.022 C 
ATOM     16  C   UNL     1       0.122  -0.093  -0.053  0.00  0.00    +0.106 C 
ENDBRANCH  14  16
BRANCH  14  17
ATOM     17  C   UNL     1       0.086  -0.722   2.405  0.00  0.00    +0.106 C 
ATOM     18  C   UNL     1      -0.587  -2.096   2.435  0.00  0.00    +0.022 C 
ENDBRANCH  14  17
ENDBRANCH  11  14
ENDBRANCH   5  11
BRANCH   8  19
ATOM     19  O   UNL     1       5.359   4.039   2.358  0.00  0.00    -0.494 OA
ATOM     20  C   UNL     1       5.689   4.894   1.261  0.00  0.00    +0.277 C 
ENDBRANCH   8  19
ENDBRANCH   1   9
BRANCH   3  21
ATOM     21  C   UNL     1       4.689   1.760   6.865  0.00  0.00    +0.141 C 
BRANCH  21  22
ATOM     22  C   UNL     1       4.192   0.653   7.759  0.00  0.00    -0.014 A 
ATOM     23  C   UNL     1       2.919   0.714   8.309  0.00  0.00    +0.010 A 
ATOM     24  C   UNL     1       2.502  -0.323   9.124  0.00  0.00    +0.042 A 
ATOM     25  C   UNL     1       3.368  -1.385   9.365  0.00  0.00    +0.099 A 
ATOM     26  N   UNL     1       4.575  -1.406   8.822  0.00  0.00    -0.349 N 
ATOM     27  C   UNL     1       4.997  -0.434   8.036  0.00  0.00    +0.089 A 
ATOM     28  N   UNL     1       2.962  -2.433  10.183  0.00  0.00    -0.312 N 
ATOM     29  C   UNL     1       1.679  -2.380  10.902  0.00  0.00    +0.137 C 
ATOM     30  C   UNL     1       1.937  -2.710  12.377  0.00  0.00    +0.133 C 
ATOM     31  O   UNL     1       2.663  -3.939  12.463  0.00  0.00    -0.371 OA
ATOM     32  C   UNL     1       3.957  -3.898  11.857  0.00  0.00    +0.133 C 
ATOM     33  C   UNL     1       3.800  -3.631  10.351  0.00  0.00    +0.137 C 
ATOM     34  C   UNL     1       4.662  -5.240  12.066  0.00  0.00    +0.039 C 
ATOM     35  C   UNL     1       0.602  -2.852  13.110  0.00  0.00    +0.039 C 
ATOM     36  H   UNL     1       5.163  -2.156   9.004  0.00  0.00    +0.167 HD
ENDBRANCH  21  22
ENDBRANCH   3  21
TORSDOF 8
