REMARK  Name = ZINC13204594
REMARK  9 active torsions:
REMARK  status: ('A' for Active; 'I' for Inactive)
REMARK    1  A    between atoms: C_1  and  O_2
REMARK    2  A    between atoms: O_2  and  C_3
REMARK    3  A    between atoms: C_3  and  C_5
REMARK    4  A    between atoms: C_16  and  C_18
REMARK    5  A    between atoms: C_18  and  S_19
REMARK    6  A    between atoms: S_19  and  C_20
REMARK    7  A    between atoms: C_23  and  C_28
REMARK    8  A    between atoms: N_24  and  C_25
REMARK    9  A    between atoms: C_25  and  C_26
REMARK                            x       y       z     vdW  Elec       q    Type
REMARK                         _______ _______ _______ _____ _____    ______ ____
ROOT
ATOM      1  C   UNL     1      -0.760   1.514  -1.241  0.00  0.00    +0.189 C 
ATOM      2  C   UNL     1      -1.859   0.459  -1.121  0.00  0.00    +0.069 C 
ATOM      3  C   UNL     1      -2.514   0.520   0.234  0.00  0.00    -0.040 A 
ATOM      4  C   UNL     1      -3.770  -0.060   0.368  0.00  0.00    +0.004 A 
ATOM      5  C   UNL     1      -4.422  -0.049   1.583  0.00  0.00    +0.000 A 
ATOM      6  C   UNL     1      -3.822   0.541   2.680  0.00  0.00    +0.000 A 
ATOM      7  C   UNL     1      -2.576   1.120   2.549  0.00  0.00    +0.005 A 
ATOM      8  C   UNL     1      -1.921   1.113   1.325  0.00  0.00    -0.027 A 
ATOM      9  C   UNL     1      -0.567   1.773   1.248  0.00  0.00    +0.144 C 
ATOM     10  N   UNL     1       0.072   1.440  -0.029  0.00  0.00    -0.283 N 
ATOM     11  C   UNL     1       1.370   1.080  -0.091  0.00  0.00    +0.227 C 
ATOM     12  O   UNL     1       1.896   0.892  -1.167  0.00  0.00    -0.275 OA
ENDROOT
BRANCH   1  13
ATOM     13  C   UNL     1       0.084   1.235  -2.458  0.00  0.00    +0.328 C 
ATOM     14  O   UNL     1       0.370   2.133  -3.214  0.00  0.00    -0.249 OA
BRANCH  13  16
ATOM     15  C   UNL     1       1.326  -0.207  -3.893  0.00  0.00    +0.280 C 
ATOM     16  O   UNL     1       0.518  -0.012  -2.702  0.00  0.00    -0.467 OA
ENDBRANCH  13  16
ENDBRANCH   1  13
BRANCH  11  17
ATOM     17  C   UNL     1       2.167   0.912   1.177  0.00  0.00    +0.173 C 
BRANCH  17  18
ATOM     18  S   UNL     1       3.861   0.429   0.765  0.00  0.00    -0.077 S 
BRANCH  18  19
ATOM     19  C   UNL     1       4.546   0.306   2.384  0.00  0.00    +0.193 A 
ATOM     20  N   UNL     1       3.917   0.531   3.515  0.00  0.00    -0.122 NA
ATOM     21  N   UNL     1       4.712   0.348   4.508  0.00  0.00    -0.128 NA
ATOM     22  C   UNL     1       5.903   0.002   4.071  0.00  0.00    +0.172 A 
ATOM     23  N   UNL     1       5.833  -0.035   2.696  0.00  0.00    -0.291 N 
BRANCH  22  24
ATOM     24  C   UNL     1       7.087  -0.290   4.896  0.00  0.00    +0.056 A 
ATOM     25  C   UNL     1       7.311  -0.006   6.219  0.00  0.00    +0.019 A 
ATOM     26  C   UNL     1       8.508  -0.385   6.783  0.00  0.00    +0.008 A 
ATOM     27  C   UNL     1       9.432  -1.016   6.013  0.00  0.00    +0.046 A 
ATOM     28  S   UNL     1       8.609  -1.100   4.432  0.00  0.00    -0.094 S 
ENDBRANCH  22  24
BRANCH  23  29
ATOM     29  C   UNL     1       6.912  -0.370   1.763  0.00  0.00    +0.250 C 
BRANCH  29  30
ATOM     30  C   UNL     1       7.658   0.883   1.387  0.00  0.00    +0.375 C 
ATOM     31  O   UNL     1       7.323   1.948   1.850  0.00  0.00    -0.244 OA
ATOM     32  O   UNL     1       8.694   0.818   0.536  0.00  0.00    -0.244 OA
ENDBRANCH  29  30
ENDBRANCH  23  29
ENDBRANCH  18  19
ENDBRANCH  17  18
ENDBRANCH  11  17
TORSDOF 8
