REMARK  Name = ZINC39696065
REMARK  10 active torsions:
REMARK  status: ('A' for Active; 'I' for Inactive)
REMARK    1  A    between atoms: C_1  and  C_2
REMARK    2  A    between atoms: C_2  and  C_3
REMARK    3  A    between atoms: C_6  and  C_9
REMARK    4  A    between atoms: C_9  and  C_11
REMARK    5  A    between atoms: C_9  and  N_12
REMARK    6  A    between atoms: C_13  and  C_15
REMARK    7  A    between atoms: C_26  and  C_28
REMARK    8  A    between atoms: C_28  and  C_30
REMARK    9  A    between atoms: C_28  and  O_31
REMARK   10  A    between atoms: O_31  and  C_32
REMARK                            x       y       z     vdW  Elec       q    Type
REMARK                         _______ _______ _______ _____ _____    ______ ____
ROOT
ATOM      1  C   UNL     1      -8.298  -0.547  -1.999  0.00  0.00    +0.100 C 
ATOM      2  C   UNL     1      -8.070  -1.257  -3.353  0.00  0.00    +0.121 C 
ATOM      3  N   UNL     1      -9.197  -2.212  -3.469  0.00  0.00    -0.297 N 
ATOM      4  C   UNL     1     -10.364  -1.473  -2.932  0.00  0.00    +0.115 C 
ATOM      5  C   UNL     1      -9.805  -0.688  -1.729  0.00  0.00    -0.004 C 
ATOM      6  C   UNL     1     -10.458   0.689  -1.647  0.00  0.00    -0.010 C 
ATOM      7  C   UNL     1     -11.945   0.525  -1.319  0.00  0.00    -0.082 C 
ATOM      8  N   UNL     1     -12.091  -0.186  -0.043  0.00  0.00    +0.379 N 
ATOM      9  C   UNL     1     -11.543  -1.543  -0.159  0.00  0.00    -0.082 C 
ATOM     10  C   UNL     1     -10.040  -1.466  -0.438  0.00  0.00    -0.010 C 
ATOM     11  C   UNL     1      -9.167  -3.469  -3.954  0.00  0.00    +0.256 C 
ATOM     12  O   UNL     1      -8.110  -3.972  -4.272  0.00  0.00    -0.272 OA
ATOM     13  H   UNL     1     -11.594   0.315   0.679  0.00  0.00    -0.086 HD
ATOM     14  H   UNL     1     -13.069  -0.238   0.201  0.00  0.00    -0.086 HD
ENDROOT
BRANCH   1  16
ATOM     15  N   UNL     1      -7.053  -0.510   0.138  0.00  0.00    -0.308 N 
ATOM     16  C   UNL     1      -7.504  -1.225  -0.912  0.00  0.00    +0.219 C 
ATOM     17  O   UNL     1      -7.271  -2.413  -0.981  0.00  0.00    -0.275 OA
ATOM     18  H   UNL     1      -7.239   0.441   0.193  0.00  0.00    +0.149 HD
BRANCH  15  19
ATOM     19  C   UNL     1      -6.281  -1.168   1.195  0.00  0.00    +0.100 C 
ATOM     20  C   UNL     1      -4.807  -1.227   0.789  0.00  0.00    +0.033 C 
BRANCH  19  24
ATOM     21  C   UNL     1      -6.667   1.044   4.829  0.00  0.00    -0.048 A 
ATOM     22  C   UNL     1      -6.681  -0.338   4.856  0.00  0.00    +0.004 A 
ATOM     23  C   UNL     1      -6.556  -1.054   3.680  0.00  0.00    +0.006 A 
ATOM     24  C   UNL     1      -6.418  -0.388   2.477  0.00  0.00    -0.027 A 
ATOM     25  C   UNL     1      -6.405   0.995   2.449  0.00  0.00    +0.006 A 
ATOM     26  C   UNL     1      -6.534   1.710   3.625  0.00  0.00    +0.004 A 
BRANCH  21  28
ATOM     27  C   UNL     1      -8.283   2.094   6.389  0.00  0.00    +0.009 C 
ATOM     28  C   UNL     1      -6.803   1.824   6.111  0.00  0.00    +0.032 C 
ENDBRANCH  21  28
ENDBRANCH  19  24
ENDBRANCH  15  19
ENDBRANCH   1  16
BRANCH  11  29
ATOM     29  C   UNL     1     -10.447  -4.250  -4.103  0.00  0.00    +0.256 C 
ATOM     30  C   UNL     1     -11.299  -3.628  -5.212  0.00  0.00    +0.062 C 
BRANCH  29  31
ATOM     31  O   UNL     1     -10.143  -5.605  -4.439  0.00  0.00    -0.480 OA
BRANCH  31  32
ATOM     32  C   UNL     1     -11.068  -6.545  -4.112  0.00  0.00    +0.122 A 
ATOM     33  C   UNL     1     -10.787  -7.891  -4.295  0.00  0.00    +0.045 A 
ATOM     34  C   UNL     1     -11.729  -8.845  -3.961  0.00  0.00    +0.004 A 
ATOM     35  C   UNL     1     -12.952  -8.458  -3.445  0.00  0.00    +0.000 A 
ATOM     36  C   UNL     1     -13.235  -7.117  -3.261  0.00  0.00    +0.004 A 
ATOM     37  C   UNL     1     -12.294  -6.160  -3.588  0.00  0.00    +0.045 A 
ENDBRANCH  31  32
ENDBRANCH  29  31
ENDBRANCH  11  29
TORSDOF 7
