REMARK  Name = ZINC20568324
REMARK  4 active torsions:
REMARK  status: ('A' for Active; 'I' for Inactive)
REMARK    1  A    between atoms: C_1  and  C_2
REMARK    2  A    between atoms: C_2  and  C_27
REMARK    3  A    between atoms: N_24  and  C_25
REMARK    4  A    between atoms: C_25  and  O_26
REMARK                            x       y       z     vdW  Elec       q    Type
REMARK                         _______ _______ _______ _____ _____    ______ ____
ROOT
ATOM      1  C   UNL     1       1.873   2.647   4.060  0.00  0.00    +0.011 C 
ATOM      2  C   UNL     1       1.505   3.851   3.190  0.00  0.00    -0.023 C 
ATOM      3  C   UNL     1       1.041   3.360   1.814  0.00  0.00    +0.058 C 
ATOM      4  C   UNL     1      -0.233   2.562   2.003  0.00  0.00    +0.024 C 
ATOM      5  C   UNL     1      -1.073   2.799   3.049  0.00  0.00    +0.038 C 
ATOM      6  C   UNL     1      -0.842   3.786   4.019  0.00  0.00    +0.163 C 
ATOM      7  O   UNL     1      -1.603   3.936   4.954  0.00  0.00    -0.292 OA
ATOM      8  C   UNL     1       0.393   4.647   3.873  0.00  0.00    +0.086 C 
ATOM      9  C   UNL     1      -2.199   1.822   2.916  0.00  0.00    +0.148 C 
ATOM     10  C   UNL     1      -2.306   0.917   4.111  0.00  0.00    -0.011 A 
ATOM     11  C   UNL     1      -1.431   0.045   4.717  0.00  0.00    +0.006 A 
ATOM     12  C   UNL     1      -1.825  -0.670   5.835  0.00  0.00    +0.000 A 
ATOM     13  C   UNL     1      -3.102  -0.513   6.345  0.00  0.00    +0.001 A 
ATOM     14  C   UNL     1      -3.989   0.356   5.746  0.00  0.00    +0.012 A 
ATOM     15  C   UNL     1      -3.599   1.083   4.617  0.00  0.00    +0.024 A 
ATOM     16  C   UNL     1      -4.325   2.063   3.785  0.00  0.00    +0.162 A 
ATOM     17  C   UNL     1      -3.529   2.510   2.782  0.00  0.00    +0.113 A 
ATOM     18  N   UNL     1      -4.236   3.393   2.059  0.00  0.00    -0.198 NA
ATOM     19  C   UNL     1      -5.434   3.503   2.582  0.00  0.00    +0.286 A 
ATOM     20  O   UNL     1      -5.518   2.694   3.649  0.00  0.00    -0.424 OA
ATOM     21  N   UNL     1      -6.443   4.318   2.111  0.00  0.00    -0.313 N 
ATOM     22  C   UNL     1      -1.861   1.042   1.667  0.00  0.00    +0.242 C 
ATOM     23  O   UNL     1      -2.500   0.137   1.174  0.00  0.00    -0.273 OA
ATOM     24  N   UNL     1      -0.698   1.558   1.213  0.00  0.00    -0.250 N 
ATOM     25  C   UNL     1       2.734   4.747   3.020  0.00  0.00    +0.011 C 
ATOM     26  H   UNL     1      -7.416   4.340   2.623  0.00  0.00    +0.147 HD
ATOM     27  H   UNL     1      -6.273   4.947   1.225  0.00  0.00    +0.147 HD
ENDROOT
BRANCH  24  28
ATOM     28  C   UNL     1      -0.013   1.086   0.008  0.00  0.00    +0.271 C 
BRANCH  28  29
ATOM     29  O   UNL     1      -0.704   1.559  -1.150  0.00  0.00    -0.377 OA
ATOM     30  H   UNL     1      -0.334   1.304  -2.154  0.00  0.00    +0.211 HD
ENDBRANCH  28  29
ENDBRANCH  24  28
TORSDOF 2
