REMARK  Name = ZINC19791234
REMARK  6 active torsions:
REMARK  status: ('A' for Active; 'I' for Inactive)
REMARK    1  A    between atoms: C_5  and  C_21
REMARK    2  A    between atoms: C_6  and  C_11
REMARK    3  A    between atoms: C_11  and  N_12
REMARK    4  A    between atoms: N_12  and  C_13
REMARK    5  A    between atoms: C_13  and  C_14
REMARK    6  A    between atoms: C_14  and  C_15
REMARK                            x       y       z     vdW  Elec       q    Type
REMARK                         _______ _______ _______ _____ _____    ______ ____
ROOT
ATOM      1  C   UNL     1      -0.017   1.402   0.010  0.00  0.00    +0.025 A 
ATOM      2  C   UNL     1       1.154   2.092   0.002  0.00  0.00    +0.048 A 
ATOM      3  C   UNL     1       2.375   1.383  -0.013  0.00  0.00    +0.139 A 
ATOM      4  N   UNL     1       3.634   1.789  -0.024  0.00  0.00    -0.223 NA
ATOM      5  C   UNL     1       4.441   0.712  -0.037  0.00  0.00    +0.149 A 
ATOM      6  C   UNL     1       3.658  -0.407  -0.035  0.00  0.00    +0.069 A 
ATOM      7  N   UNL     1       2.362   0.011  -0.021  0.00  0.00    -0.300 N 
ATOM      8  C   UNL     1       1.176  -0.669  -0.013  0.00  0.00    +0.113 A 
ATOM      9  C   UNL     1       0.002  -0.004   0.002  0.00  0.00    +0.058 A 
ATOM     10 CL   UNL     1      -1.492  -0.888   0.011  0.00  0.00    -0.082 Cl
ENDROOT
BRANCH   5  11
ATOM     11  C   UNL     1       5.917   0.737  -0.052  0.00  0.00    +0.267 C 
ATOM     12  O   UNL     1       6.542  -0.306  -0.064  0.00  0.00    -0.268 OA
ATOM     13  N   UNL     1       6.571   1.915  -0.052  0.00  0.00    -0.296 N 
ATOM     14  C   UNL     1       5.823   3.180  -0.032  0.00  0.00    +0.108 C 
ATOM     15  C   UNL     1       5.133   3.327   1.318  0.00  0.00    +0.019 C 
ATOM     16  C   UNL     1       6.186   3.649   2.392  0.00  0.00    +0.002 C 
ATOM     17  C   UNL     1       6.926   2.373   2.776  0.00  0.00    +0.000 C 
ATOM     18  C   UNL     1       8.402   2.449   2.347  0.00  0.00    +0.002 C 
ATOM     19  C   UNL     1       8.499   3.009   0.928  0.00  0.00    +0.019 C 
ATOM     20  C   UNL     1       8.024   1.948  -0.067  0.00  0.00    +0.108 C 
ENDBRANCH   5  11
BRANCH   6  21
ATOM     21  C   UNL     1       4.138  -1.835  -0.048  0.00  0.00    +0.137 C 
BRANCH  21  22
ATOM     22  N   UNL     1       4.281  -2.292  -1.437  0.00  0.00    -0.310 NA
ATOM     23  H   UNL     1       3.416  -2.182  -1.944  0.00  0.00    +0.122 HD
BRANCH  22  24
ATOM     24  C   UNL     1       4.748  -3.684  -1.488  0.00  0.00    +0.087 C 
BRANCH  24  25
ATOM     25  C   UNL     1       4.884  -4.122  -2.948  0.00  0.00    +0.070 C 
BRANCH  25  26
ATOM     26  C   UNL     1       5.364  -5.550  -3.000  0.00  0.00    +0.034 A 
ATOM     27  C   UNL     1       6.646  -5.957  -2.935  0.00  0.00    +0.105 A 
ATOM     28  N   UNL     1       6.632  -7.324  -3.018  0.00  0.00    -0.352 N 
ATOM     29  H   UNL     1       7.405  -7.909  -2.999  0.00  0.00    +0.166 HD
ATOM     30  C   UNL     1       5.341  -7.704  -3.131  0.00  0.00    +0.171 A 
ATOM     31  N   UNL     1       4.588  -6.638  -3.115  0.00  0.00    -0.350 N 
ATOM     32  H   UNL     1       3.620  -6.634  -3.177  0.00  0.00    +0.166 HD
ENDBRANCH  25  26
ENDBRANCH  24  25
ENDBRANCH  22  24
ENDBRANCH  21  22
ENDBRANCH   6  21
TORSDOF 6
