REMARK  Name = ZINC20753880
REMARK  5 active torsions:
REMARK  status: ('A' for Active; 'I' for Inactive)
REMARK    1  A    between atoms: C_14  and  C_15
REMARK    2  A    between atoms: C_26  and  S_31
REMARK    3  A    between atoms: S_31  and  N_34
REMARK    4  A    between atoms: N_34  and  C_35
REMARK    5  A    between atoms: C_35  and  C_36
REMARK                            x       y       z     vdW  Elec       q    Type
REMARK                         _______ _______ _______ _____ _____    ______ ____
ROOT
ATOM      1  C   UNL     1      -8.063  -0.001   5.149  0.00  0.00    +0.106 C 
ATOM      2  C   UNL     1      -8.842   1.050   4.353  0.00  0.00    +0.029 C 
ATOM      3  C   UNL     1      -9.640   0.297   3.248  0.00  0.00    +0.033 C 
ATOM      4  C   UNL     1      -8.616   0.103   2.146  0.00  0.00    -0.030 C 
ATOM      5  C   UNL     1      -7.642   0.972   2.266  0.00  0.00    -0.023 C 
ATOM      6  C   UNL     1      -7.878   1.860   3.465  0.00  0.00    +0.049 C 
ATOM      7  C   UNL     1      -6.595   2.199   4.154  0.00  0.00    -0.018 A 
ATOM      8  C   UNL     1      -5.748   3.130   3.567  0.00  0.00    +0.034 A 
ATOM      9  C   UNL     1      -4.554   3.470   4.169  0.00  0.00    +0.106 A 
ATOM     10  C   UNL     1      -4.191   2.894   5.373  0.00  0.00    +0.030 A 
ATOM     11  C   UNL     1      -5.026   1.970   5.969  0.00  0.00    +0.025 A 
ATOM     12  C   UNL     1      -6.225   1.622   5.360  0.00  0.00    +0.031 A 
ATOM     13  N   UNL     1      -7.056   0.678   5.972  0.00  0.00    -0.336 N 
ATOM     14  H   UNL     1      -6.971   0.441   7.043  0.00  0.00    +0.147 HD
ENDROOT
BRANCH   1  28
ATOM     15  C   UNL     1      -8.967  -4.755   3.489  0.00  0.00    +0.001 A 
ATOM     16  C   UNL     1      -9.597  -3.875   4.369  0.00  0.00    +0.001 A 
ATOM     17  C   UNL     1      -9.101  -2.635   4.615  0.00  0.00    +0.009 A 
ATOM     18  C   UNL     1      -7.918  -2.217   3.968  0.00  0.00    -0.012 A 
ATOM     19  C   UNL     1      -7.259  -3.140   3.039  0.00  0.00    -0.017 A 
ATOM     20  C   UNL     1      -7.834  -4.412   2.825  0.00  0.00    +0.008 A 
ATOM     21  C   UNL     1      -6.087  -2.762   2.388  0.00  0.00    +0.017 A 
ATOM     22  C   UNL     1      -5.547  -1.498   2.622  0.00  0.00    -0.017 A 
ATOM     23  C   UNL     1      -4.361  -1.081   1.980  0.00  0.00    +0.008 A 
ATOM     24  C   UNL     1      -3.863   0.156   2.231  0.00  0.00    +0.001 A 
ATOM     25  C   UNL     1      -4.493   1.036   3.111  0.00  0.00    +0.001 A 
ATOM     26  C   UNL     1      -5.636   0.699   3.761  0.00  0.00    +0.009 A 
ATOM     27  C   UNL     1      -6.210  -0.573   3.547  0.00  0.00    -0.012 A 
ATOM     28  C   UNL     1      -7.382  -0.951   4.198  0.00  0.00    -0.012 A 
ENDBRANCH   1  28
BRANCH   9  29
ATOM     29  S   UNL     1      -3.491   4.648   3.404  0.00  0.00    +0.058 S 
ATOM     30  O   UNL     1      -2.593   5.098   4.409  0.00  0.00    -0.153 OA
ATOM     31  O   UNL     1      -4.326   5.537   2.675  0.00  0.00    -0.153 OA
BRANCH  29  32
ATOM     32  N   UNL     1      -2.579   3.832   2.287  0.00  0.00    -0.187 NA
ATOM     33  H   UNL     1      -1.533   3.588   2.522  0.00  0.00    +0.148 HD
BRANCH  32  34
ATOM     34  C   UNL     1      -3.218   3.255   1.101  0.00  0.00    +0.137 C 
BRANCH  34  35
ATOM     35  C   UNL     1      -2.157   2.982   0.033  0.00  0.00    +0.134 C 
ATOM     36  C   UNL     1      -2.819   2.488  -1.279  0.00  0.00    +0.035 C 
ATOM     37  C   UNL     1      -1.667   1.694  -1.944  0.00  0.00    +0.031 C 
ATOM     38  C   UNL     1      -0.716   1.361  -0.778  0.00  0.00    +0.160 C 
ATOM     39  O   UNL     1      -1.312   1.877   0.424  0.00  0.00    -0.375 OA
ENDBRANCH  34  35
ENDBRANCH  32  34
ENDBRANCH  29  32
ENDBRANCH   9  29
TORSDOF 5
