REMARK  Name = ZINC20602718
REMARK  9 active torsions:
REMARK  status: ('A' for Active; 'I' for Inactive)
REMARK    1  A    between atoms: C_1  and  C_2
REMARK    2  A    between atoms: C_2  and  N_3
REMARK    3  A    between atoms: C_4  and  C_8
REMARK    4  A    between atoms: C_8  and  N_9
REMARK    5  A    between atoms: N_9  and  C_10
REMARK    6  A    between atoms: N_9  and  S_17
REMARK    7  A    between atoms: C_10  and  C_11
REMARK    8  A    between atoms: S_17  and  C_20
REMARK    9  A    between atoms: C_24  and  N_26
REMARK                            x       y       z     vdW  Elec       q    Type
REMARK                         _______ _______ _______ _____ _____    ______ ____
ROOT
ATOM      1  N   UNL     1      -5.678   0.829   1.847  0.00  0.00    -0.166 NA
ENDROOT
BRANCH   1   2
ATOM      2  S   UNL     1      -5.550   0.826   0.196  0.00  0.00    +0.062 S 
ATOM      3  O   UNL     1      -4.439  -0.002  -0.124  0.00  0.00    -0.153 OA
ATOM      4  O   UNL     1      -5.634   2.182  -0.221  0.00  0.00    -0.153 OA
BRANCH   2   5
ATOM      5  C   UNL     1      -6.980   0.015  -0.437  0.00  0.00    +0.108 A 
ATOM      6  C   UNL     1      -6.962  -1.351  -0.654  0.00  0.00    +0.028 A 
ATOM      7  C   UNL     1      -8.084  -1.987  -1.150  0.00  0.00    +0.004 A 
ATOM      8  C   UNL     1      -9.226  -1.258  -1.426  0.00  0.00    +0.033 A 
ATOM      9  C   UNL     1      -9.243   0.107  -1.214  0.00  0.00    +0.128 A 
ATOM     10  C   UNL     1      -8.121   0.744  -0.717  0.00  0.00    +0.061 A 
BRANCH   9  11
ATOM     11  N   UNL     1     -10.465   0.888  -1.513  0.00  0.00    +0.056 N 
ATOM     12  O   UNL     1     -10.481   2.091  -1.321  0.00  0.00    -0.126 OA
ATOM     13  O   UNL     1     -11.452   0.328  -1.956  0.00  0.00    -0.126 OA
ENDBRANCH   9  11
ENDBRANCH   2   5
ENDBRANCH   1   2
BRANCH   1  14
ATOM     14  C   UNL     1      -6.411   1.903   2.522  0.00  0.00    +0.164 C 
BRANCH  14  16
ATOM     15  N   UNL     1      -8.902   2.295   2.882  0.00  0.00    -0.267 N 
ATOM     16  C   UNL     1      -7.839   1.475   2.742  0.00  0.00    +0.055 A 
ATOM     17  C   UNL     1      -8.285   0.202   2.841  0.00  0.00    +0.045 A 
ATOM     18  C   UNL     1      -9.668   0.244   3.042  0.00  0.00    +0.134 A 
ATOM     19  N   UNL     1     -10.040   1.498   3.064  0.00  0.00    -0.179 NA
BRANCH  15  21
ATOM     20  C   UNL     1      -9.202   4.242   1.432  0.00  0.00    +0.029 C 
ATOM     21  C   UNL     1      -8.872   3.759   2.846  0.00  0.00    +0.140 C 
ENDBRANCH  15  21
ENDBRANCH  14  16
ENDBRANCH   1  14
BRANCH   1  22
ATOM     22  C   UNL     1      -5.060  -0.243   2.631  0.00  0.00    +0.145 C 
BRANCH  22  23
ATOM     23  C   UNL     1      -3.728   0.225   3.159  0.00  0.00    -0.032 A 
ATOM     24  C   UNL     1      -2.582   0.035   2.409  0.00  0.00    +0.005 A 
ATOM     25  C   UNL     1      -1.361   0.469   2.891  0.00  0.00    +0.000 A 
ATOM     26  C   UNL     1      -1.285   1.084   4.127  0.00  0.00    +0.000 A 
ATOM     27  C   UNL     1      -2.430   1.269   4.879  0.00  0.00    +0.000 A 
ATOM     28  C   UNL     1      -3.652   0.840   4.394  0.00  0.00    +0.005 A 
ENDBRANCH  22  23
ENDBRANCH   1  22
TORSDOF 8
