REMARK  Name = ZINC38793165
REMARK  5 active torsions:
REMARK  status: ('A' for Active; 'I' for Inactive)
REMARK    1  A    between atoms: C_4  and  C_10
REMARK    2  A    between atoms: C_16  and  C_18
REMARK    3  A    between atoms: C_19  and  C_20
REMARK    4  A    between atoms: C_23  and  S_26
REMARK    5  A    between atoms: S_26  and  C_27
REMARK                            x       y       z     vdW  Elec       q    Type
REMARK                         _______ _______ _______ _____ _____    ______ ____
ROOT
ATOM      1  C   UNL     1       4.185   3.110  -0.022  0.00  0.00    -0.043 C 
ATOM      2  C   UNL     1       3.304   4.100  -0.105  0.00  0.00    -0.004 C 
ATOM      3  C   UNL     1       3.695   5.551  -0.130  0.00  0.00    +0.135 C 
ATOM      4  N   UNL     1       5.118   5.673   0.217  0.00  0.00    -0.294 N 
ATOM      5  C   UNL     1       6.050   4.714  -0.401  0.00  0.00    +0.113 C 
ATOM      6  C   UNL     1       5.669   3.310   0.079  0.00  0.00    +0.054 C 
ATOM      7  C   UNL     1       5.554   6.625   1.066  0.00  0.00    +0.240 C 
ATOM      8  O   UNL     1       6.738   6.704   1.336  0.00  0.00    -0.271 OA
ENDROOT
BRANCH   1  12
ATOM      9  C   UNL     1       6.206  -0.914   0.559  0.00  0.00    +0.020 A 
ATOM     10  C   UNL     1       5.797   0.378   0.412  0.00  0.00    +0.013 A 
ATOM     11  C   UNL     1       4.426   0.622   0.168  0.00  0.00    +0.022 A 
ATOM     12  C   UNL     1       3.696   1.788  -0.024  0.00  0.00    -0.015 C 
ATOM     13  C   UNL     1       2.266   1.342  -0.236  0.00  0.00    +0.150 C 
ATOM     14  N   UNL     1       2.281  -0.121  -0.146  0.00  0.00    -0.365 N 
ATOM     15  C   UNL     1       3.509  -0.530   0.084  0.00  0.00    +0.135 A 
ATOM     16  N   UNL     1       4.017  -1.771   0.244  0.00  0.00    -0.238 NA
ATOM     17  C   UNL     1       5.291  -1.963   0.469  0.00  0.00    +0.113 A 
ATOM     18  H   UNL     1       1.506  -0.697  -0.240  0.00  0.00    +0.161 HD
ENDBRANCH   1  12
BRANCH   7  19
ATOM     19  C   UNL     1       4.604   7.562   1.662  0.00  0.00    +0.068 C 
ATOM     20  C   UNL     1       5.040   8.516   2.513  0.00  0.00    +0.013 C 
BRANCH  20  21
ATOM     21  C   UNL     1       4.086   9.458   3.112  0.00  0.00    -0.025 A 
ATOM     22  C   UNL     1       2.722   9.365   2.807  0.00  0.00    +0.009 A 
ATOM     23  C   UNL     1       1.837  10.242   3.367  0.00  0.00    +0.015 A 
ATOM     24  C   UNL     1       2.290  11.229   4.240  0.00  0.00    +0.016 A 
ATOM     25  C   UNL     1       3.646  11.325   4.546  0.00  0.00    +0.015 A 
ATOM     26  C   UNL     1       4.536  10.448   3.995  0.00  0.00    +0.009 A 
BRANCH  24  27
ATOM     27  S   UNL     1       1.145  12.360   4.958  0.00  0.00    -0.016 S 
BRANCH  27  28
ATOM     28  C   UNL     1       2.178  13.430   5.997  0.00  0.00    +0.448 C 
ATOM     29  F   UNL     1       3.128  14.077   5.199  0.00  0.00    -0.160 F 
ATOM     30  F   UNL     1       1.373  14.383   6.630  0.00  0.00    -0.160 F 
ATOM     31  F   UNL     1       2.829  12.655   6.962  0.00  0.00    -0.160 F 
ENDBRANCH  27  28
ENDBRANCH  24  27
ENDBRANCH  20  21
ENDBRANCH   7  19
TORSDOF 5
