REMARK  Name = ZINC64055257
REMARK  6 active torsions:
REMARK  status: ('A' for Active; 'I' for Inactive)
REMARK    1  A    between atoms: C_1  and  C_2
REMARK    2  A    between atoms: C_5  and  N_9
REMARK    3  A    between atoms: C_10  and  C_12
REMARK    4  A    between atoms: C_12  and  O_13
REMARK    5  A    between atoms: O_13  and  C_14
REMARK    6  A    between atoms: C_14  and  C_16
REMARK                            x       y       z     vdW  Elec       q    Type
REMARK                         _______ _______ _______ _____ _____    ______ ____
ROOT
ATOM      1  O   UNL     1       1.074  -6.823   2.287  0.00  0.00    -0.452 OA
ENDROOT
BRANCH   1   2
ATOM      2  C   UNL     1       1.221  -8.156   2.421  0.00  0.00    +0.337 C 
ATOM      3  O   UNL     1       0.971  -8.892   1.488  0.00  0.00    -0.245 OA
BRANCH   2   4
ATOM      4  C   UNL     1       1.686  -8.722   3.703  0.00  0.00    +0.054 C 
ATOM      5  C   UNL     1       1.860  -7.929   4.819  0.00  0.00    +0.007 A 
ATOM      6  C   UNL     1       1.589  -6.493   4.773  0.00  0.00    +0.010 A 
ATOM      7  C   UNL     1       1.775  -5.756   5.896  0.00  0.00    +0.001 A 
ATOM      8  C   UNL     1       2.219  -6.341   7.089  0.00  0.00    +0.002 A 
ATOM      9  C   UNL     1       2.488  -7.664   7.200  0.00  0.00    +0.024 A 
ATOM     10  C   UNL     1       2.327  -8.523   6.090  0.00  0.00    +0.041 A 
ATOM     11  N   UNL     1       2.593  -9.815   6.206  0.00  0.00    -0.285 N 
ATOM     12  C   UNL     1       2.465 -10.679   5.205  0.00  0.00    +0.222 C 
ATOM     13  O   UNL     1       2.726 -11.853   5.378  0.00  0.00    -0.275 OA
ATOM     14  C   UNL     1       1.986 -10.201   3.853  0.00  0.00    +0.139 C 
ATOM     15  H   UNL     1       2.897 -10.148   7.065  0.00  0.00    +0.155 HD
ENDBRANCH   2   4
ENDBRANCH   1   2
BRANCH   1  16
ATOM     16  C   UNL     1       0.620  -6.345   1.019  0.00  0.00    +0.328 C 
BRANCH  16  18
ATOM     17  N   UNL     1       0.106  -4.168  -0.036  0.00  0.00    -0.281 N 
ATOM     18  C   UNL     1       0.517  -4.842   1.056  0.00  0.00    +0.255 C 
ATOM     19  O   UNL     1       0.803  -4.240   2.069  0.00  0.00    -0.272 OA
ATOM     20  H   UNL     1      -0.171  -4.652  -0.830  0.00  0.00    +0.155 HD
BRANCH  17  25
ATOM     21  C   UNL     1      -0.004   1.506   0.008  0.00  0.00    +0.044 C 
ATOM     22  C   UNL     1       0.025  -0.001  -0.004  0.00  0.00    -0.048 A 
ATOM     23  C   UNL     1       1.123  -0.673   0.501  0.00  0.00    +0.020 A 
ATOM     24  C   UNL     1       1.153  -2.055   0.492  0.00  0.00    +0.040 A 
ATOM     25  C   UNL     1       0.079  -2.768  -0.025  0.00  0.00    +0.062 A 
ATOM     26  C   UNL     1      -1.022  -2.089  -0.532  0.00  0.00    +0.040 A 
ATOM     27  C   UNL     1      -1.048  -0.707  -0.515  0.00  0.00    +0.020 A 
ATOM     28 BR   UNL     1      -2.487  -3.054  -1.237  0.00  0.00    -0.048 Br
ATOM     29 BR   UNL     1       2.654  -2.974   1.183  0.00  0.00    -0.048 Br
ENDBRANCH  17  25
ENDBRANCH  16  18
ENDBRANCH   1  16
TORSDOF 5
