REMARK  Name = ZINC29051126
REMARK  12 active torsions:
REMARK  status: ('A' for Active; 'I' for Inactive)
REMARK    1  A    between atoms: C_1  and  C_2
REMARK    2  A    between atoms: C_13  and  C_43
REMARK    3  A    between atoms: C_14  and  O_27
REMARK    4  A    between atoms: C_17  and  C_24
REMARK    5  A    between atoms: C_17  and  C_25
REMARK    6  A    between atoms: C_18  and  O_23
REMARK    7  A    between atoms: C_20  and  C_22
REMARK    8  A    between atoms: O_27  and  C_28
REMARK    9  A    between atoms: C_28  and  C_30
REMARK   10  A    between atoms: C_30  and  S_31
REMARK   11  A    between atoms: S_31  and  C_32
REMARK   12  A    between atoms: N_41  and  C_42
REMARK                            x       y       z     vdW  Elec       q    Type
REMARK                         _______ _______ _______ _____ _____    ______ ____
ROOT
ATOM      1  C   UNL     1      -0.898   2.046  -0.555  0.00  0.00    +0.008 C 
ATOM      2  C   UNL     1      -0.002   1.321   0.444  0.00  0.00    -0.004 C 
ATOM      3  C   UNL     1       1.391   1.946   0.425  0.00  0.00    +0.004 C 
ATOM      4  C   UNL     1       2.327   1.204   1.385  0.00  0.00    +0.008 C 
ATOM      5  C   UNL     1       2.411  -0.254   0.958  0.00  0.00    -0.014 C 
ATOM      6  C   UNL     1       3.184  -1.103   1.942  0.00  0.00    +0.015 C 
ATOM      7  C   UNL     1       2.187  -1.271   3.122  0.00  0.00    +0.075 C 
ATOM      8  C   UNL     1       0.795  -0.970   2.564  0.00  0.00    +0.138 C 
ATOM      9  O   UNL     1      -0.204  -0.835   3.226  0.00  0.00    -0.297 OA
ATOM     10  C   UNL     1       0.959  -0.883   1.084  0.00  0.00    +0.071 C 
ATOM     11  C   UNL     1       0.030  -0.176   0.198  0.00  0.00    +0.018 C 
ATOM     12  C   UNL     1      -0.072  -0.582  -1.281  0.00  0.00    +0.184 C 
ATOM     13  C   UNL     1       0.309  -2.062  -1.510  0.00  0.00    +0.058 C 
ATOM     14  C   UNL     1       1.788  -2.262  -1.935  0.00  0.00    +0.015 C 
ATOM     15  C   UNL     1       2.713  -1.846  -0.869  0.00  0.00    +0.128 C 
ATOM     16  C   UNL     1       2.665  -0.376  -0.525  0.00  0.00    +0.022 C 
ATOM     17  C   UNL     1       4.050   0.229  -0.839  0.00  0.00    +0.011 C 
ATOM     18  C   UNL     1       2.006  -3.767  -2.196  0.00  0.00    +0.018 C 
ATOM     19  C   UNL     1      -1.354  -0.611   0.709  0.00  0.00    +0.016 C 
ENDROOT
BRANCH  15  20
ATOM     20  O   UNL     1       4.049  -2.159  -1.289  0.00  0.00    -0.391 OA
ATOM     21  H   UNL     1       4.900  -1.929  -0.633  0.00  0.00    +0.210 HD
ENDBRANCH  15  20
BRANCH  14  22
ATOM     22  C   UNL     1       2.075  -1.526  -3.217  0.00  0.00    -0.025 C 
ATOM     23  C   UNL     1       2.374  -2.193  -4.304  0.00  0.00    +0.004 C 
ENDBRANCH  14  22
BRANCH  12  24
ATOM     24  O   UNL     1      -1.476  -0.470  -1.678  0.00  0.00    -0.460 OA
BRANCH  24  25
ATOM     25  C   UNL     1      -1.725  -0.238  -2.976  0.00  0.00    +0.317 C 
ATOM     26  O   UNL     1      -0.811  -0.041  -3.741  0.00  0.00    -0.250 OA
BRANCH  25  27
ATOM     27  C   UNL     1      -3.146  -0.224  -3.480  0.00  0.00    +0.189 C 
BRANCH  27  28
ATOM     28  S   UNL     1      -3.152   0.113  -5.262  0.00  0.00    -0.146 S 
BRANCH  28  29
ATOM     29  C   UNL     1      -4.911   0.096  -5.706  0.00  0.00    +0.044 C 
ATOM     30  C   UNL     1      -5.478  -1.309  -5.487  0.00  0.00    -0.001 C 
ATOM     31  C   UNL     1      -6.925  -1.349  -6.005  0.00  0.00    -0.068 C 
ATOM     32  C   UNL     1      -7.660  -0.109  -5.446  0.00  0.00    -0.017 C 
ATOM     33  C   UNL     1      -7.409   1.002  -6.487  0.00  0.00    -0.017 C 
ATOM     34  C   UNL     1      -6.544   0.333  -7.580  0.00  0.00    -0.068 C 
ATOM     35  C   UNL     1      -5.069   0.494  -7.176  0.00  0.00    -0.001 C 
ATOM     36  N   UNL     1      -6.874  -1.113  -7.472  0.00  0.00    +0.382 N 
ATOM     37  C   UNL     1      -8.171  -1.405  -8.097  0.00  0.00    -0.095 C 
ATOM     38  H   UNL     1      -6.155  -1.764  -7.992  0.00  0.00    -0.081 HD
ENDBRANCH  28  29
ENDBRANCH  27  28
ENDBRANCH  25  27
ENDBRANCH  24  25
ENDBRANCH  12  24
TORSDOF 7
