REMARK  Name = ZINC13388233
REMARK  8 active torsions:
REMARK  status: ('A' for Active; 'I' for Inactive)
REMARK    1  A    between atoms: C_4  and  C_7
REMARK    2  A    between atoms: C_7  and  N_8
REMARK    3  A    between atoms: N_8  and  C_9
REMARK    4  A    between atoms: N_14  and  C_17
REMARK    5  A    between atoms: C_20  and  N_23
REMARK    6  A    between atoms: C_27  and  N_31
REMARK    7  A    between atoms: N_31  and  C_32
REMARK    8  A    between atoms: C_32  and  C_33
REMARK                            x       y       z     vdW  Elec       q    Type
REMARK                         _______ _______ _______ _____ _____    ______ ____
ROOT
ATOM      1  C   UNL     1       8.458  -0.074   2.726  0.00  0.00    +0.044 A 
ATOM      2  C   UNL     1       8.973   0.771   1.752  0.00  0.00    +0.026 A 
ATOM      3  C   UNL     1      10.098   1.526   2.017  0.00  0.00    +0.026 A 
ATOM      4  C   UNL     1      10.714   1.441   3.259  0.00  0.00    +0.044 A 
ATOM      5  C   UNL     1      10.198   0.597   4.233  0.00  0.00    +0.026 A 
ATOM      6  C   UNL     1       9.071  -0.155   3.969  0.00  0.00    +0.026 A 
ENDROOT
BRANCH   1  11
ATOM      7  C   UNL     1       5.124  -1.620   2.538  0.00  0.00    +0.150 C 
ATOM      8  C   UNL     1       5.929  -2.463   1.528  0.00  0.00    +0.125 C 
ATOM      9  C   UNL     1       7.312  -1.853   1.579  0.00  0.00    +0.228 C 
ATOM     10  O   UNL     1       8.267  -2.221   0.929  0.00  0.00    -0.275 OA
ATOM     11  N   UNL     1       7.315  -0.841   2.456  0.00  0.00    -0.209 N 
ATOM     12  C   UNL     1       6.134  -0.619   3.055  0.00  0.00    +0.244 C 
ATOM     13  O   UNL     1       5.912   0.243   3.877  0.00  0.00    -0.273 OA
BRANCH   7  14
ATOM     14  N   UNL     1       4.625  -2.463   3.634  0.00  0.00    -0.301 NA
ATOM     15  H   UNL     1       5.354  -2.651   4.306  0.00  0.00    +0.123 HD
BRANCH  14  16
ATOM     16  C   UNL     1       3.458  -1.849   4.280  0.00  0.00    +0.117 C 
BRANCH  16  20
ATOM     17  C   UNL     1       2.088  -4.372   7.443  0.00  0.00    +0.000 A 
ATOM     18  C   UNL     1       3.034  -3.397   7.698  0.00  0.00    +0.000 A 
ATOM     19  C   UNL     1       3.477  -2.580   6.674  0.00  0.00    +0.005 A 
ATOM     20  C   UNL     1       2.975  -2.740   5.396  0.00  0.00    -0.034 A 
ATOM     21  C   UNL     1       2.030  -3.716   5.141  0.00  0.00    +0.005 A 
ATOM     22  C   UNL     1       1.586  -4.532   6.165  0.00  0.00    +0.000 A 
ENDBRANCH  16  20
ENDBRANCH  14  16
ENDBRANCH   7  14
ENDBRANCH   1  11
BRANCH   4  23
ATOM     23  N   UNL     1      11.857   2.208   3.528  0.00  0.00    -0.209 N 
ATOM     24  C   UNL     1      13.069   1.665   3.699  0.00  0.00    +0.228 C 
ATOM     25  O   UNL     1      13.323   0.481   3.644  0.00  0.00    -0.275 OA
ATOM     26  C   UNL     1      14.072   2.765   3.972  0.00  0.00    +0.125 C 
ATOM     27  C   UNL     1      13.221   4.050   3.929  0.00  0.00    +0.150 C 
ATOM     28  C   UNL     1      11.827   3.542   3.630  0.00  0.00    +0.244 C 
ATOM     29  O   UNL     1      10.839   4.234   3.506  0.00  0.00    -0.273 OA
BRANCH  27  30
ATOM     30  N   UNL     1      13.261   4.741   5.224  0.00  0.00    -0.301 NA
ATOM     31  H   UNL     1      12.616   4.324   5.877  0.00  0.00    +0.123 HD
BRANCH  30  32
ATOM     32  C   UNL     1      12.993   6.177   5.064  0.00  0.00    +0.117 C 
BRANCH  32  33
ATOM     33  C   UNL     1      13.043   6.851   6.411  0.00  0.00    -0.034 A 
ATOM     34  C   UNL     1      11.896   6.952   7.176  0.00  0.00    +0.005 A 
ATOM     35  C   UNL     1      11.942   7.570   8.411  0.00  0.00    +0.000 A 
ATOM     36  C   UNL     1      13.135   8.086   8.882  0.00  0.00    +0.000 A 
ATOM     37  C   UNL     1      14.282   7.984   8.118  0.00  0.00    +0.000 A 
ATOM     38  C   UNL     1      14.237   7.362   6.884  0.00  0.00    +0.005 A 
ENDBRANCH  32  33
ENDBRANCH  30  32
ENDBRANCH  27  30
ENDBRANCH   4  23
TORSDOF 8
