REMARK  Name = ZINC08310449
REMARK  5 active torsions:
REMARK  status: ('A' for Active; 'I' for Inactive)
REMARK    1  A    between atoms: C_6  and  C_7
REMARK    2  A    between atoms: C_12  and  C_13
REMARK    3  A    between atoms: C_12  and  N_51
REMARK    4  A    between atoms: N_15  and  C_16
REMARK    5  A    between atoms: C_17  and  C_21
REMARK                            x       y       z     vdW  Elec       q    Type
REMARK                         _______ _______ _______ _____ _____    ______ ____
ROOT
ATOM      1  C   UNL     1       1.398   4.474  -4.474  0.00  0.00    -0.037 C 
ATOM      2  C   UNL     1       2.885   4.779  -4.194  0.00  0.00    -0.013 C 
ATOM      3  C   UNL     1       3.286   5.825  -5.255  0.00  0.00    -0.020 C 
ATOM      4  C   UNL     1       2.007   6.064  -6.086  0.00  0.00    -0.077 C 
ATOM      5  N   UNL     1       0.929   5.670  -5.181  0.00  0.00    +0.390 N 
ATOM      6  H   UNL     1       0.742   6.425  -4.510  0.00  0.00    -0.080 HD
ENDROOT
BRANCH   1  12
ATOM      7  C   UNL     1       0.296   5.363  -2.412  0.00  0.00    +0.006 A 
ATOM      8  C   UNL     1      -0.389   5.184  -1.223  0.00  0.00    +0.049 A 
ATOM      9  C   UNL     1      -0.719   3.906  -0.806  0.00  0.00    +0.162 A 
ATOM     10  C   UNL     1      -0.362   2.809  -1.579  0.00  0.00    +0.162 A 
ATOM     11  C   UNL     1       0.324   2.991  -2.767  0.00  0.00    +0.051 A 
ATOM     12  C   UNL     1       0.651   4.271  -3.181  0.00  0.00    -0.057 A 
ATOM     13  O   UNL     1      -0.692   1.553  -1.159  0.00  0.00    -0.488 OA
ATOM     14  C   UNL     1      -0.013   1.086   0.008  0.00  0.00    +0.232 C 
ATOM     15  C   UNL     1      -0.712   1.570   1.269  0.00  0.00    +0.082 C 
ATOM     16  C   UNL     1      -0.662   3.083   1.414  0.00  0.00    +0.232 C 
ATOM     17  O   UNL     1      -1.395   3.716   0.363  0.00  0.00    -0.488 OA
ENDBRANCH   1  12
BRANCH   5  18
ATOM     18  C   UNL     1      -0.325   5.369  -5.943  0.00  0.00    +0.020 C 
BRANCH  18  19
ATOM     19  C   UNL     1      -0.944   6.649  -6.442  0.00  0.00    +0.201 C 
ATOM     20  O   UNL     1      -0.423   7.714  -6.188  0.00  0.00    -0.278 OA
ATOM     21  N   UNL     1      -2.078   6.610  -7.170  0.00  0.00    -0.281 N 
ATOM     22  H   UNL     1      -2.495   5.758  -7.373  0.00  0.00    +0.155 HD
BRANCH  21  23
ATOM     23  C   UNL     1      -2.647   7.788  -7.629  0.00  0.00    +0.084 A 
ATOM     24  C   UNL     1      -3.798   7.951  -8.391  0.00  0.00    +0.065 A 
ATOM     25  C   UNL     1      -4.168   9.305  -8.728  0.00  0.00    +0.022 A 
ATOM     26  C   UNL     1      -3.365  10.289  -8.286  0.00  0.00    +0.048 A 
ATOM     27  S   UNL     1      -2.094   9.412  -7.398  0.00  0.00    -0.081 S 
BRANCH  24  28
ATOM     28  C   UNL     1      -4.600   6.803  -8.828  0.00  0.00    +0.244 C 
ATOM     29  O   UNL     1      -4.262   5.674  -8.524  0.00  0.00    -0.270 OA
ATOM     30  N   UNL     1      -5.710   6.999  -9.567  0.00  0.00    -0.325 N 
ATOM     31  H   UNL     1      -5.979   7.899  -9.809  0.00  0.00    +0.145 HD
ATOM     32  H   UNL     1      -6.240   6.240  -9.856  0.00  0.00    +0.145 HD
ENDBRANCH  24  28
ENDBRANCH  21  23
ENDBRANCH  18  19
ENDBRANCH   5  18
TORSDOF 5
