REMARK  Name = ZINC38686561
REMARK  10 active torsions:
REMARK  status: ('A' for Active; 'I' for Inactive)
REMARK    1  A    between atoms: C_4  and  C_7
REMARK    2  A    between atoms: C_7  and  O_8
REMARK    3  A    between atoms: O_8  and  C_9
REMARK    4  A    between atoms: C_13  and  C_15
REMARK    5  A    between atoms: C_20  and  O_29
REMARK    6  A    between atoms: C_24  and  N_28
REMARK    7  A    between atoms: C_25  and  C_26
REMARK    8  A    between atoms: O_29  and  C_30
REMARK    9  A    between atoms: C_30  and  C_32
REMARK   10  A    between atoms: C_37  and  N_38
REMARK                            x       y       z     vdW  Elec       q    Type
REMARK                         _______ _______ _______ _____ _____    ______ ____
ROOT
ATOM      1  C   UNL     1       7.501  -2.947   4.542  0.00  0.00    +0.098 C 
ATOM      2  C   UNL     1       8.838  -2.270   4.688  0.00  0.00    +0.008 A 
ATOM      3  C   UNL     1       8.891  -0.896   4.846  0.00  0.00    +0.012 A 
ATOM      4  C   UNL     1      10.108  -0.258   4.982  0.00  0.00    +0.047 A 
ATOM      5  C   UNL     1      11.284  -0.995   4.961  0.00  0.00    +0.135 A 
ATOM      6  C   UNL     1      11.234  -2.370   4.804  0.00  0.00    +0.093 A 
ATOM      7  C   UNL     1      10.009  -3.011   4.666  0.00  0.00    +0.138 A 
ATOM      8  O   UNL     1       9.977  -4.357   4.512  0.00  0.00    -0.441 OA
ATOM      9  C   UNL     1       8.844  -5.034   4.763  0.00  0.00    +0.199 C 
ATOM     10  C   UNL     1       7.639  -4.423   4.790  0.00  0.00    +0.098 C 
ENDROOT
BRANCH   1  15
ATOM     11  C   UNL     1       5.298  -1.859   1.670  0.00  0.00    +0.121 A 
ATOM     12  C   UNL     1       6.025  -2.315   0.579  0.00  0.00    +0.045 A 
ATOM     13  C   UNL     1       7.224  -2.972   0.775  0.00  0.00    +0.004 A 
ATOM     14  C   UNL     1       7.700  -3.176   2.057  0.00  0.00    +0.005 A 
ATOM     15  C   UNL     1       6.979  -2.723   3.146  0.00  0.00    -0.031 A 
ATOM     16  C   UNL     1       5.782  -2.060   2.955  0.00  0.00    +0.050 A 
BRANCH  11  17
ATOM     17  O   UNL     1       4.119  -1.212   1.480  0.00  0.00    -0.487 OA
BRANCH  17  18
ATOM     18  C   UNL     1       3.683  -1.041   0.130  0.00  0.00    +0.264 C 
BRANCH  18  22
ATOM     19  C   UNL     1      -0.050   1.036   0.089  0.00  0.00    +0.000 A 
ATOM     20  C   UNL     1       1.136   1.745   0.041  0.00  0.00    +0.000 A 
ATOM     21  C   UNL     1       2.344   1.073   0.055  0.00  0.00    +0.007 A 
ATOM     22  C   UNL     1       2.366  -0.308   0.116  0.00  0.00    -0.010 A 
ATOM     23  C   UNL     1       1.180  -1.017   0.165  0.00  0.00    +0.007 A 
ATOM     24  C   UNL     1      -0.028  -0.345   0.150  0.00  0.00    +0.000 A 
ENDBRANCH  18  22
ENDBRANCH  17  18
ENDBRANCH  11  17
ENDBRANCH   1  15
BRANCH   9  25
ATOM     25  N   UNL     1       8.913  -6.385   4.997  0.00  0.00    -0.328 N 
ATOM     26  H   UNL     1       9.771  -6.837   4.979  0.00  0.00    +0.145 HD
ATOM     27  H   UNL     1       8.103  -6.887   5.180  0.00  0.00    +0.145 HD
ENDBRANCH   9  25
BRANCH  10  28
ATOM     28  C   UNL     1       6.469  -5.201   5.063  0.00  0.00    +0.101 C 
ATOM     29  N   UNL     1       5.540  -5.819   5.279  0.00  0.00    -0.191 NA
ENDBRANCH  10  28
BRANCH   5  30
ATOM     30  O   UNL     1      12.482  -0.368   5.095  0.00  0.00    -0.422 OA
BRANCH  30  31
ATOM     31  C   UNL     1      12.759   0.223   6.273  0.00  0.00    +0.347 C 
ATOM     32  O   UNL     1      11.990   0.107   7.207  0.00  0.00    -0.244 OA
BRANCH  31  33
ATOM     33  C   UNL     1      13.997   1.014   6.430  0.00  0.00    +0.089 A 
ATOM     34  C   UNL     1      15.237   0.438   6.145  0.00  0.00    +0.017 A 
ATOM     35  C   UNL     1      16.389   1.182   6.294  0.00  0.00    +0.001 A 
ATOM     36  C   UNL     1      16.318   2.495   6.725  0.00  0.00    +0.002 A 
ATOM     37  C   UNL     1      15.093   3.071   7.010  0.00  0.00    +0.033 A 
ATOM     38  C   UNL     1      13.932   2.341   6.859  0.00  0.00    +0.140 A 
BRANCH  38  39
ATOM     39  N   UNL     1      12.622   2.960   7.158  0.00  0.00    +0.057 N 
ATOM     40  O   UNL     1      12.573   4.064   7.649  0.00  0.00    -0.126 OA
ATOM     41  O   UNL     1      11.600   2.363   6.911  0.00  0.00    -0.126 OA
ENDBRANCH  38  39
ENDBRANCH  31  33
ENDBRANCH  30  31
ENDBRANCH   5  30
TORSDOF 10
