REMARK  Name = ZINC08845499
REMARK  10 active torsions:
REMARK  status: ('A' for Active; 'I' for Inactive)
REMARK    1  A    between atoms: C_1  and  C_2
REMARK    2  A    between atoms: C_2  and  O_3
REMARK    3  A    between atoms: O_3  and  C_4
REMARK    4  A    between atoms: C_6  and  C_11
REMARK    5  A    between atoms: C_9  and  O_10
REMARK    6  A    between atoms: C_14  and  C_30
REMARK    7  A    between atoms: N_21  and  C_22
REMARK    8  A    between atoms: C_22  and  C_23
REMARK    9  A    between atoms: C_33  and  C_37
REMARK   10  A    between atoms: C_35  and  O_36
REMARK                            x       y       z     vdW  Elec       q    Type
REMARK                         _______ _______ _______ _____ _____    ______ ____
ROOT
ATOM      1  C   UNL     1       0.044  -4.975  -0.099  0.00  0.00    +0.142 C 
ATOM      2  C   UNL     1      -1.411  -5.346  -0.014  0.00  0.00    +0.035 A 
ATOM      3  C   UNL     1      -2.739  -4.908   0.027  0.00  0.00    +0.102 A 
ATOM      4  N   UNL     1      -3.505  -5.979   0.112  0.00  0.00    -0.173 NA
ATOM      5  N   UNL     1      -2.792  -7.048   0.129  0.00  0.00    -0.272 N 
ATOM      6  H   UNL     1      -3.142  -7.951   0.187  0.00  0.00    +0.189 HD
ATOM      7  C   UNL     1      -1.467  -6.725   0.052  0.00  0.00    +0.126 A 
ATOM      8  C   UNL     1      -0.097  -7.250   0.013  0.00  0.00    +0.266 C 
ATOM      9  O   UNL     1       0.196  -8.429   0.054  0.00  0.00    -0.268 OA
ATOM     10  N   UNL     1       0.790  -6.240  -0.075  0.00  0.00    -0.281 N 
ENDROOT
BRANCH   3  11
ATOM     11  C   UNL     1      -3.202  -3.499  -0.016  0.00  0.00    +0.045 A 
ATOM     12  C   UNL     1      -2.289  -2.470  -0.233  0.00  0.00    +0.034 A 
ATOM     13  C   UNL     1      -2.724  -1.159  -0.272  0.00  0.00    +0.045 A 
ATOM     14  C   UNL     1      -4.066  -0.866  -0.096  0.00  0.00    -0.029 A 
ATOM     15  C   UNL     1      -4.979  -1.880   0.121  0.00  0.00    +0.050 A 
ATOM     16  C   UNL     1      -4.556  -3.199   0.157  0.00  0.00    +0.126 A 
ATOM     17  C   UNL     1      -4.532   0.567  -0.140  0.00  0.00    +0.045 C 
ATOM     18 CL   UNL     1      -1.585   0.123  -0.543  0.00  0.00    -0.083 Cl
BRANCH  16  19
ATOM     19  O   UNL     1      -5.454  -4.197   0.364  0.00  0.00    -0.506 OA
ATOM     20  H   UNL     1      -5.588  -4.418   1.296  0.00  0.00    +0.292 HD
ENDBRANCH  16  19
ENDBRANCH   3  11
BRANCH   1  23
ATOM     21  C   UNL     1       0.692  -3.852   3.450  0.00  0.00    +0.162 A 
ATOM     22  C   UNL     1       0.336  -4.634   2.363  0.00  0.00    +0.055 A 
ATOM     23  C   UNL     1       0.432  -4.123   1.082  0.00  0.00    -0.019 A 
ATOM     24  C   UNL     1       0.883  -2.831   0.882  0.00  0.00    +0.009 A 
ATOM     25  C   UNL     1       1.240  -2.046   1.962  0.00  0.00    +0.049 A 
ATOM     26  C   UNL     1       1.140  -2.550   3.249  0.00  0.00    +0.158 A 
BRANCH  26  27
ATOM     27  O   UNL     1       1.485  -1.777   4.313  0.00  0.00    -0.503 OA
ATOM     28  H   UNL     1       2.416  -1.848   4.566  0.00  0.00    +0.292 HD
ENDBRANCH  26  27
BRANCH  21  29
ATOM     29  O   UNL     1       0.597  -4.354   4.710  0.00  0.00    -0.489 OA
BRANCH  29  31
ATOM     30  C   UNL     1      -0.060  -6.020   6.332  0.00  0.00    +0.048 C 
ATOM     31  C   UNL     1       0.037  -5.661   4.848  0.00  0.00    +0.226 C 
ENDBRANCH  29  31
ENDBRANCH  21  29
ENDBRANCH   1  23
BRANCH  10  32
ATOM     32  C   UNL     1       2.247  -6.379  -0.138  0.00  0.00    +0.144 C 
BRANCH  32  33
ATOM     33  C   UNL     1       2.814  -6.361   1.258  0.00  0.00    -0.030 A 
ATOM     34  C   UNL     1       3.179  -5.161   1.840  0.00  0.00    +0.008 A 
ATOM     35  C   UNL     1       3.698  -5.143   3.121  0.00  0.00    +0.038 A 
ATOM     36  C   UNL     1       3.853  -6.328   3.821  0.00  0.00    +0.123 A 
ATOM     37  C   UNL     1       3.486  -7.529   3.237  0.00  0.00    +0.038 A 
ATOM     38  C   UNL     1       2.962  -7.543   1.959  0.00  0.00    +0.008 A 
ATOM     39  F   UNL     1       4.361  -6.312   5.073  0.00  0.00    -0.205 F 
ENDBRANCH  32  33
ENDBRANCH  10  32
TORSDOF 8
