REMARK  Name = ZINC09335222
REMARK  10 active torsions:
REMARK  status: ('A' for Active; 'I' for Inactive)
REMARK    1  A    between atoms: C_1  and  C_2
REMARK    2  A    between atoms: C_5  and  S_11
REMARK    3  A    between atoms: C_7  and  N_8
REMARK    4  A    between atoms: S_11  and  N_14
REMARK    5  A    between atoms: N_14  and  C_15
REMARK    6  A    between atoms: C_20  and  C_21
REMARK    7  A    between atoms: C_21  and  O_23
REMARK    8  A    between atoms: O_23  and  C_24
REMARK    9  A    between atoms: C_24  and  C_25
REMARK   10  A    between atoms: C_25  and  C_27
REMARK                            x       y       z     vdW  Elec       q    Type
REMARK                         _______ _______ _______ _____ _____    ______ ____
ROOT
ATOM      1  C   UNL     1       2.259   4.428   0.300  0.00  0.00    +0.062 A 
ATOM      2  C   UNL     1       2.102   5.780   0.580  0.00  0.00    +0.025 A 
ATOM      3  C   UNL     1       0.857   6.279   0.900  0.00  0.00    +0.002 A 
ATOM      4  C   UNL     1      -0.246   5.440   0.946  0.00  0.00    +0.001 A 
ATOM      5  C   UNL     1      -0.112   4.098   0.667  0.00  0.00    +0.017 A 
ATOM      6  C   UNL     1       1.144   3.575   0.346  0.00  0.00    +0.081 A 
ENDROOT
BRANCH   1   7
ATOM      7  N   UNL     1       3.511   3.923  -0.023  0.00  0.00    -0.215 N 
ATOM      8  H   UNL     1       3.593   3.211  -0.676  0.00  0.00    +0.174 HD
BRANCH   7   9
ATOM      9  S   UNL     1       4.865   4.535   0.708  0.00  0.00    +0.072 S 
ATOM     10  O   UNL     1       5.955   3.728   0.286  0.00  0.00    -0.150 OA
ATOM     11  O   UNL     1       4.835   5.941   0.505  0.00  0.00    -0.150 OA
BRANCH   9  16
ATOM     12  C   UNL     1       4.250   3.638   6.643  0.00  0.00    +0.046 C 
ATOM     13  C   UNL     1       4.404   3.862   5.161  0.00  0.00    -0.020 A 
ATOM     14  C   UNL     1       3.936   5.030   4.586  0.00  0.00    +0.007 A 
ATOM     15  C   UNL     1       4.082   5.237   3.227  0.00  0.00    +0.029 A 
ATOM     16  C   UNL     1       4.686   4.273   2.441  0.00  0.00    +0.111 A 
ATOM     17  C   UNL     1       5.153   3.107   3.016  0.00  0.00    +0.061 A 
ATOM     18  C   UNL     1       5.013   2.901   4.376  0.00  0.00    +0.131 A 
BRANCH  18  19
ATOM     19  N   UNL     1       5.514   1.652   4.991  0.00  0.00    +0.057 N 
ATOM     20  O   UNL     1       6.108   0.834   4.312  0.00  0.00    -0.126 OA
ATOM     21  O   UNL     1       5.333   1.442   6.177  0.00  0.00    -0.126 OA
ENDBRANCH  18  19
ENDBRANCH   9  16
ENDBRANCH   7   9
ENDBRANCH   1   7
BRANCH   6  22
ATOM     22  C   UNL     1       1.296   2.140   0.052  0.00  0.00    +0.341 C 
ATOM     23  O   UNL     1       2.389   1.690  -0.231  0.00  0.00    -0.245 OA
BRANCH  22  24
ATOM     24  O   UNL     1       0.224   1.325   0.098  0.00  0.00    -0.453 OA
BRANCH  24  25
ATOM     25  C   UNL     1       0.448  -0.077  -0.203  0.00  0.00    +0.311 C 
BRANCH  25  26
ATOM     26  C   UNL     1      -0.856  -0.827  -0.104  0.00  0.00    +0.200 C 
ATOM     27  O   UNL     1      -1.873  -0.237   0.192  0.00  0.00    -0.288 OA
BRANCH  26  28
ATOM     28  C   UNL     1      -0.894  -2.273  -0.365  0.00  0.00    +0.021 A 
ATOM     29  C   UNL     1       0.278  -2.956  -0.712  0.00  0.00    +0.014 A 
ATOM     30  C   UNL     1       0.236  -4.312  -0.950  0.00  0.00    +0.039 A 
ATOM     31  C   UNL     1      -0.966  -4.999  -0.857  0.00  0.00    +0.123 A 
ATOM     32  C   UNL     1      -2.131  -4.327  -0.519  0.00  0.00    +0.039 A 
ATOM     33  C   UNL     1      -2.103  -2.972  -0.274  0.00  0.00    +0.014 A 
ATOM     34  F   UNL     1      -1.000  -6.328  -1.097  0.00  0.00    -0.205 F 
ENDBRANCH  26  28
ENDBRANCH  25  26
ENDBRANCH  24  25
ENDBRANCH  22  24
ENDBRANCH   6  22
TORSDOF 9
