REMARK  Name = ZINC39488111
REMARK  8 active torsions:
REMARK  status: ('A' for Active; 'I' for Inactive)
REMARK    1  A    between atoms: C_1  and  C_2
REMARK    2  A    between atoms: C_2  and  C_29
REMARK    3  A    between atoms: N_7  and  C_8
REMARK    4  A    between atoms: C_8  and  C_9
REMARK    5  A    between atoms: C_9  and  C_22
REMARK    6  A    between atoms: N_12  and  C_15
REMARK    7  A    between atoms: C_15  and  C_16
REMARK    8  A    between atoms: C_34  and  O_35
REMARK                            x       y       z     vdW  Elec       q    Type
REMARK                         _______ _______ _______ _____ _____    ______ ____
ROOT
ATOM      1  C   UNL     1       2.232   0.578   2.509  0.00  0.00    -0.014 C 
ATOM      2  C   UNL     1       1.598   0.304   3.875  0.00  0.00    -0.010 C 
ATOM      3  C   UNL     1       0.155  -0.165   3.677  0.00  0.00    -0.078 C 
ATOM      4  N   UNL     1      -0.610   0.876   2.981  0.00  0.00    +0.382 N 
ATOM      5  C   UNL     1      -0.051   1.093   1.641  0.00  0.00    -0.078 C 
ATOM      6  C   UNL     1       1.384   1.610   1.761  0.00  0.00    -0.010 C 
ATOM      7  H   UNL     1      -0.563   1.735   3.507  0.00  0.00    -0.081 HD
ENDROOT
BRANCH   1   8
ATOM      8  C   UNL     1       3.650   1.122   2.700  0.00  0.00    -0.003 C 
ATOM      9  C   UNL     1       4.429   0.195   3.635  0.00  0.00    +0.004 C 
ATOM     10  C   UNL     1       5.847   0.739   3.827  0.00  0.00    +0.000 C 
ATOM     11  C   UNL     1       5.777   2.140   4.438  0.00  0.00    +0.000 C 
ATOM     12  C   UNL     1       4.997   3.067   3.503  0.00  0.00    +0.000 C 
ATOM     13  C   UNL     1       3.580   2.522   3.312  0.00  0.00    +0.004 C 
ENDBRANCH   1   8
BRANCH   1  14
ATOM     14  C   UNL     1       2.288  -0.721   1.701  0.00  0.00    +0.117 C 
BRANCH  14  21
ATOM     15  C   UNL     1       5.188  -0.064   0.624  0.00  0.00    +0.039 C 
ATOM     16  C   UNL     1       4.096  -0.773  -0.179  0.00  0.00    +0.082 C 
ATOM     17  C   UNL     1       4.065  -0.252  -1.629  0.00  0.00    +0.159 C 
ATOM     18  N   UNL     1       2.720   0.327  -1.767  0.00  0.00    -0.196 N 
ATOM     19  C   UNL     1       2.058   0.182  -0.611  0.00  0.00    +0.320 C 
ATOM     20  O   UNL     1       0.919   0.574  -0.447  0.00  0.00    -0.251 OA
ATOM     21  N   UNL     1       2.765  -0.433   0.346  0.00  0.00    -0.273 N 
ATOM     22 CL   UNL     1       2.100   1.067  -3.178  0.00  0.00    +0.005 Cl
BRANCH  16  23
ATOM     23  C   UNL     1       4.308  -2.265  -0.154  0.00  0.00    +0.019 A 
ATOM     24  C   UNL     1       3.327  -3.095   0.353  0.00  0.00    +0.009 A 
ATOM     25  C   UNL     1       3.522  -4.464   0.377  0.00  0.00    +0.001 A 
ATOM     26  C   UNL     1       4.698  -5.005  -0.108  0.00  0.00    +0.004 A 
ATOM     27  C   UNL     1       5.682  -4.180  -0.617  0.00  0.00    +0.046 A 
ATOM     28  C   UNL     1       5.487  -2.807  -0.646  0.00  0.00    +0.122 A 
BRANCH  28  29
ATOM     29  O   UNL     1       6.451  -1.993  -1.152  0.00  0.00    -0.506 OA
ATOM     30  H   UNL     1       7.095  -1.692  -0.496  0.00  0.00    +0.292 HD
ENDBRANCH  28  29
ENDBRANCH  16  23
ENDBRANCH  14  21
ENDBRANCH   1  14
BRANCH   4  31
ATOM     31  C   UNL     1      -2.012   0.454   2.862  0.00  0.00    -0.043 C 
BRANCH  31  32
ATOM     32  C   UNL     1      -2.829   1.582   2.285  0.00  0.00    -0.064 A 
ATOM     33  C   UNL     1      -3.415   2.510   3.125  0.00  0.00    +0.002 A 
ATOM     34  C   UNL     1      -4.164   3.545   2.596  0.00  0.00    +0.000 A 
ATOM     35  C   UNL     1      -4.327   3.651   1.227  0.00  0.00    +0.000 A 
ATOM     36  C   UNL     1      -3.740   2.723   0.388  0.00  0.00    +0.000 A 
ATOM     37  C   UNL     1      -2.987   1.691   0.916  0.00  0.00    +0.002 A 
ENDBRANCH  31  32
ENDBRANCH   4  31
TORSDOF 7
