REMARK  Name = ZINC02124715
REMARK  7 active torsions:
REMARK  status: ('A' for Active; 'I' for Inactive)
REMARK    1  A    between atoms: C_1  and  C_2
REMARK    2  A    between atoms: C_5  and  S_8
REMARK    3  A    between atoms: S_8  and  O_11
REMARK    4  A    between atoms: O_11  and  C_12
REMARK    5  A    between atoms: C_13  and  O_34
REMARK    6  A    between atoms: C_15  and  C_19
REMARK    7  A    between atoms: O_34  and  C_35
REMARK                            x       y       z     vdW  Elec       q    Type
REMARK                         _______ _______ _______ _____ _____    ______ ____
ROOT
ATOM      1  C   UNL     1     -11.077  -0.114   1.414  0.00  0.00    +0.216 A 
ATOM      2  C   UNL     1     -10.213   0.225   2.453  0.00  0.00    +0.167 A 
ATOM      3  C   UNL     1      -8.866   0.404   2.201  0.00  0.00    +0.061 A 
ATOM      4  C   UNL     1      -8.373   0.244   0.903  0.00  0.00    +0.022 A 
ATOM      5  C   UNL     1      -9.246  -0.090  -0.135  0.00  0.00    +0.035 A 
ATOM      6  C   UNL     1     -10.589  -0.272   0.124  0.00  0.00    +0.090 A 
ATOM      7 CL   UNL     1     -11.671  -0.693  -1.167  0.00  0.00    -0.080 Cl
ENDROOT
BRANCH   4   8
ATOM      8  C   UNL     1      -6.936   0.434   0.629  0.00  0.00    +0.142 A 
ATOM      9  N   UNL     1      -6.486   0.271  -0.649  0.00  0.00    -0.306 N 
ATOM     10  H   UNL     1      -7.146   0.028  -1.360  0.00  0.00    +0.170 HD
ATOM     11  C   UNL     1      -5.187   0.424  -0.997  0.00  0.00    +0.260 A 
ATOM     12  O   UNL     1      -4.802   0.275  -2.144  0.00  0.00    -0.267 OA
ATOM     13  C   UNL     1      -4.290   0.772   0.068  0.00  0.00    +0.075 A 
ATOM     14  C   UNL     1      -2.859   0.991  -0.040  0.00  0.00    -0.023 A 
ATOM     15  C   UNL     1      -2.205   1.312   1.102  0.00  0.00    -0.004 A 
ATOM     16  S   UNL     1      -3.456   1.338   2.361  0.00  0.00    -0.073 S 
ATOM     17  C   UNL     1      -4.847   0.919   1.359  0.00  0.00    +0.116 A 
ATOM     18  N   UNL     1      -6.134   0.755   1.635  0.00  0.00    -0.222 NA
ATOM     19  C   UNL     1      -0.738   1.584   1.266  0.00  0.00    +0.043 C 
ATOM     20  C   UNL     1      -0.013   1.086   0.008  0.00  0.00    +0.005 C 
ATOM     21  C   UNL     1      -0.760   1.597  -1.227  0.00  0.00    +0.005 C 
ATOM     22  C   UNL     1      -2.100   0.873  -1.359  0.00  0.00    +0.037 C 
ENDBRANCH   4   8
BRANCH   2  23
ATOM     23  O   UNL     1     -10.695   0.380   3.715  0.00  0.00    -0.491 OA
ATOM     24  C   UNL     1      -9.752   0.727   4.732  0.00  0.00    +0.277 C 
ENDBRANCH   2  23
BRANCH   1  25
ATOM     25  O   UNL     1     -12.402  -0.289   1.664  0.00  0.00    -0.337 OA
BRANCH  25  26
ATOM     26  S   UNL     1     -13.231   0.980   1.526  0.00  0.00    +0.151 S 
ATOM     27  O   UNL     1     -14.528   0.672   2.017  0.00  0.00    -0.131 OA
ATOM     28  O   UNL     1     -12.446   2.038   2.059  0.00  0.00    -0.131 OA
BRANCH  26  33
ATOM     29  C   UNL     1     -13.836   2.084  -4.375  0.00  0.00    +0.044 C 
ATOM     30  C   UNL     1     -13.685   1.808  -2.901  0.00  0.00    -0.050 A 
ATOM     31  C   UNL     1     -14.616   1.025  -2.245  0.00  0.00    +0.005 A 
ATOM     32  C   UNL     1     -14.478   0.772  -0.893  0.00  0.00    +0.031 A 
ATOM     33  C   UNL     1     -13.408   1.302  -0.197  0.00  0.00    +0.128 A 
ATOM     34  C   UNL     1     -12.479   2.090  -0.852  0.00  0.00    +0.031 A 
ATOM     35  C   UNL     1     -12.615   2.339  -2.205  0.00  0.00    +0.005 A 
ENDBRANCH  26  33
ENDBRANCH  25  26
ENDBRANCH   1  25
TORSDOF 5
