REMARK  Name = ZINC09535590
REMARK  5 active torsions:
REMARK  status: ('A' for Active; 'I' for Inactive)
REMARK    1  A    between atoms: C_1  and  C_2
REMARK    2  A    between atoms: C_2  and  C_4
REMARK    3  A    between atoms: C_2  and  S_16
REMARK    4  A    between atoms: S_16  and  C_17
REMARK    5  A    between atoms: N_26  and  C_27
REMARK                            x       y       z     vdW  Elec       q    Type
REMARK                         _______ _______ _______ _____ _____    ______ ____
ROOT
ATOM      1  C   UNL     1      -0.729   1.579   1.267  0.00  0.00    +0.027 C 
ATOM      2  C   UNL     1      -0.013   1.086   0.008  0.00  0.00    +0.117 C 
ENDROOT
BRANCH   2   3
ATOM      3  C   UNL     1      -0.742   1.585  -1.213  0.00  0.00    +0.124 A 
ATOM      4  N   UNL     1      -1.654   0.766  -1.798  0.00  0.00    -0.309 N 
ATOM      5  H   UNL     1      -1.819  -0.114  -1.425  0.00  0.00    +0.170 HD
ATOM      6  C   UNL     1      -2.339   1.170  -2.894  0.00  0.00    +0.259 A 
ATOM      7  O   UNL     1      -3.163   0.448  -3.426  0.00  0.00    -0.267 OA
ATOM      8  C   UNL     1      -2.045   2.511  -3.420  0.00  0.00    +0.065 A 
ATOM      9  C   UNL     1      -2.690   3.019  -4.546  0.00  0.00    +0.015 A 
ATOM     10  C   UNL     1      -2.376   4.282  -4.996  0.00  0.00    +0.001 A 
ATOM     11  C   UNL     1      -1.424   5.050  -4.338  0.00  0.00    +0.002 A 
ATOM     12  C   UNL     1      -0.775   4.567  -3.224  0.00  0.00    +0.028 A 
ATOM     13  C   UNL     1      -1.077   3.289  -2.748  0.00  0.00    +0.078 A 
ATOM     14  N   UNL     1      -0.461   2.773  -1.655  0.00  0.00    -0.233 NA
ENDBRANCH   2   3
BRANCH   2  15
ATOM     15  S   UNL     1       1.685   1.712  -0.005  0.00  0.00    -0.077 S 
BRANCH  15  16
ATOM     16  C   UNL     1       2.330   0.877   1.406  0.00  0.00    +0.173 A 
ATOM     17  N   UNL     1       1.539   0.086   2.079  0.00  0.00    -0.222 NA
ATOM     18  C   UNL     1       1.968  -0.599   3.181  0.00  0.00    +0.086 A 
ATOM     19  C   UNL     1       1.242  -1.480   3.996  0.00  0.00    +0.036 A 
ATOM     20  C   UNL     1       1.835  -2.068   5.056  0.00  0.00    +0.048 A 
ATOM     21  S   UNL     1       3.496  -1.416   4.991  0.00  0.00    -0.090 S 
ATOM     22  C   UNL     1       3.308  -0.395   3.553  0.00  0.00    +0.102 A 
ATOM     23  C   UNL     1       4.144   0.454   2.833  0.00  0.00    +0.269 A 
ATOM     24  O   UNL     1       5.305   0.621   3.168  0.00  0.00    -0.266 OA
ATOM     25  N   UNL     1       3.635   1.089   1.751  0.00  0.00    -0.290 N 
ATOM     26  C   UNL     1       4.473   1.994   0.959  0.00  0.00    +0.154 C 
ENDBRANCH  15  16
ENDBRANCH   2  15
TORSDOF 3
