REMARK  Name = ZINC09360196
REMARK  8 active torsions:
REMARK  status: ('A' for Active; 'I' for Inactive)
REMARK    1  A    between atoms: C_1  and  C_2
REMARK    2  A    between atoms: C_5  and  C_8
REMARK    3  A    between atoms: C_9  and  N_28
REMARK    4  A    between atoms: N_12  and  C_13
REMARK    5  A    between atoms: N_19  and  C_20
REMARK    6  A    between atoms: C_20  and  C_21
REMARK    7  A    between atoms: C_21  and  C_22
REMARK    8  A    between atoms: C_29  and  C_31
REMARK                            x       y       z     vdW  Elec       q    Type
REMARK                         _______ _______ _______ _____ _____    ______ ____
ROOT
ATOM      1  C   UNL     1       1.179  -4.076  -0.050  0.00  0.00    +0.079 A 
ATOM      2  C   UNL     1       1.506  -4.818   1.039  0.00  0.00    +0.100 A 
ATOM      3  S   UNL     1       0.786  -6.403   0.642  0.00  0.00    -0.036 S 
ATOM      4  C   UNL     1       0.097  -5.974  -0.948  0.00  0.00    +0.154 A 
ATOM      5  N   UNL     1      -0.586  -6.728  -1.790  0.00  0.00    -0.336 N 
ATOM      6  N   UNL     1       0.457  -4.654  -1.065  0.00  0.00    -0.319 N 
ATOM      7  H   UNL     1      -0.994  -7.694  -1.456  0.00  0.00    +0.168 HD
ENDROOT
BRANCH   1  12
ATOM      8  C   UNL     1       2.781   1.438  -0.396  0.00  0.00    +0.044 C 
ATOM      9  C   UNL     1       2.361  -0.006  -0.305  0.00  0.00    -0.050 A 
ATOM     10  C   UNL     1       1.712  -0.465   0.828  0.00  0.00    +0.004 A 
ATOM     11  C   UNL     1       1.320  -1.784   0.915  0.00  0.00    +0.010 A 
ATOM     12  C   UNL     1       1.589  -2.661  -0.139  0.00  0.00    +0.001 A 
ATOM     13  C   UNL     1       2.249  -2.192  -1.278  0.00  0.00    +0.010 A 
ATOM     14  C   UNL     1       2.630  -0.869  -1.354  0.00  0.00    +0.004 A 
ENDBRANCH   1  12
BRANCH   5  15
ATOM     15  C   UNL     1      -0.784  -6.309  -3.076  0.00  0.00    +0.041 A 
ATOM     16  C   UNL     1      -2.033  -5.820  -3.470  0.00  0.00    +0.025 A 
ATOM     17  C   UNL     1      -2.225  -5.394  -4.767  0.00  0.00    +0.002 A 
ATOM     18  C   UNL     1      -1.188  -5.460  -5.681  0.00  0.00    +0.000 A 
ATOM     19  C   UNL     1       0.050  -5.949  -5.300  0.00  0.00    +0.002 A 
ATOM     20  C   UNL     1       0.258  -6.373  -4.004  0.00  0.00    +0.025 A 
ENDBRANCH   5  15
BRANCH   2  21
ATOM     21  N   UNL     1       2.220  -4.441   2.174  0.00  0.00    -0.274 N 
ATOM     22  C   UNL     1       2.546  -5.361   3.102  0.00  0.00    +0.255 C 
ATOM     23  O   UNL     1       2.217  -6.523   2.949  0.00  0.00    -0.269 OA
ATOM     24  H   UNL     1       2.517  -3.391   2.312  0.00  0.00    +0.156 HD
BRANCH  22  25
ATOM     25  C   UNL     1       3.297  -4.964   4.296  0.00  0.00    +0.074 A 
ATOM     26  C   UNL     1       3.727  -5.745   5.358  0.00  0.00    +0.021 A 
ATOM     27  C   UNL     1       4.421  -5.111   6.359  0.00  0.00    +0.008 A 
ATOM     28  C   UNL     1       4.649  -3.775   6.265  0.00  0.00    +0.046 A 
ATOM     29  S   UNL     1       3.903  -3.351   4.758  0.00  0.00    -0.092 S 
ENDBRANCH  22  25
ENDBRANCH   2  21
BRANCH   6  30
ATOM     30  C   UNL     1       0.083  -3.880  -2.251  0.00  0.00    +0.129 C 
BRANCH  30  31
ATOM     31  C   UNL     1      -1.181  -3.071  -1.953  0.00  0.00    +0.057 C 
BRANCH  31  32
ATOM     32  C   UNL     1      -1.611  -2.335  -3.197  0.00  0.00    -0.046 A 
ATOM     33  C   UNL     1      -0.929  -1.203  -3.600  0.00  0.00    +0.004 A 
ATOM     34  C   UNL     1      -1.320  -0.531  -4.743  0.00  0.00    +0.000 A 
ATOM     35  C   UNL     1      -2.399  -0.986  -5.477  0.00  0.00    +0.000 A 
ATOM     36  C   UNL     1      -3.084  -2.116  -5.071  0.00  0.00    +0.000 A 
ATOM     37  C   UNL     1      -2.691  -2.790  -3.931  0.00  0.00    +0.004 A 
ENDBRANCH  31  32
ENDBRANCH  30  31
ENDBRANCH   6  30
TORSDOF 7
