REMARK  Name = ZINC49122153
REMARK  5 active torsions:
REMARK  status: ('A' for Active; 'I' for Inactive)
REMARK    1  A    between atoms: C_1  and  C_2
REMARK    2  A    between atoms: C_2  and  C_3
REMARK    3  A    between atoms: C_9  and  N_11
REMARK    4  A    between atoms: C_12  and  C_16
REMARK    5  A    between atoms: C_18  and  N_23
REMARK                            x       y       z     vdW  Elec       q    Type
REMARK                         _______ _______ _______ _____ _____    ______ ____
ROOT
ATOM      1  N   UNL     1      -0.575  -2.527   1.005  0.00  0.00    -0.222 N 
ATOM      2  C   UNL     1       0.392  -3.476   0.937  0.00  0.00    +0.185 A 
ATOM      3  N   UNL     1       0.648  -3.855   2.172  0.00  0.00    -0.108 NA
ATOM      4  N   UNL     1      -0.089  -3.210   3.002  0.00  0.00    -0.023 NA
ATOM      5  N   UNL     1      -0.853  -2.382   2.376  0.00  0.00    -0.043 NA
ENDROOT
BRANCH   2   6
ATOM      6  C   UNL     1       1.036  -3.989  -0.292  0.00  0.00    +0.058 A 
ATOM      7  C   UNL     1       0.257  -4.362  -1.387  0.00  0.00    +0.037 A 
ATOM      8  C   UNL     1       0.867  -4.841  -2.535  0.00  0.00    +0.025 A 
ATOM      9  C   UNL     1       2.252  -4.950  -2.594  0.00  0.00    +0.025 A 
ATOM     10  C   UNL     1       3.025  -4.581  -1.510  0.00  0.00    +0.041 A 
ATOM     11  C   UNL     1       2.427  -4.097  -0.362  0.00  0.00    +0.134 A 
ATOM     12  F   UNL     1       3.187  -3.732   0.694  0.00  0.00    -0.205 F 
BRANCH   8  13
ATOM     13  N   UNL     1       0.089  -5.216  -3.635  0.00  0.00    -0.358 N 
ATOM     14  H   UNL     1      -0.877  -5.140  -3.595  0.00  0.00    +0.142 HD
ATOM     15  H   UNL     1       0.516  -5.551  -4.439  0.00  0.00    +0.142 HD
ENDBRANCH   8  13
ENDBRANCH   2   6
BRANCH   1  21
ATOM     16  C   UNL     1      -0.964  -0.301   0.069  0.00  0.00    +0.013 C 
ATOM     17  C   UNL     1      -1.595   0.157   1.386  0.00  0.00    +0.005 C 
ATOM     18  C   UNL     1      -3.097  -0.132   1.359  0.00  0.00    +0.000 C 
ATOM     19  C   UNL     1      -3.324  -1.634   1.181  0.00  0.00    +0.002 C 
ATOM     20  C   UNL     1      -2.694  -2.093  -0.136  0.00  0.00    +0.027 C 
ATOM     21  C   UNL     1      -1.191  -1.804  -0.110  0.00  0.00    +0.114 C 
BRANCH  16  23
ATOM     22  C   UNL     1       0.766   1.499   0.149  0.00  0.00    +0.004 C 
ATOM     23  C   UNL     1       0.538  -0.013   0.096  0.00  0.00    +0.002 C 
ENDBRANCH  16  23
ENDBRANCH   1  21
TORSDOF 4
