REMARK  Name = ZINC22321032
REMARK  11 active torsions:
REMARK  status: ('A' for Active; 'I' for Inactive)
REMARK    1  A    between atoms: C_1  and  C_2
REMARK    2  A    between atoms: C_5  and  S_8
REMARK    3  A    between atoms: S_8  and  N_11
REMARK    4  A    between atoms: N_11  and  C_12
REMARK    5  A    between atoms: N_11  and  C_27
REMARK    6  A    between atoms: C_12  and  C_13
REMARK    7  A    between atoms: N_15  and  C_16
REMARK    8  A    between atoms: C_16  and  C_18
REMARK    9  A    between atoms: C_16  and  C_19
REMARK   10  A    between atoms: C_22  and  C_26
REMARK   11  A    between atoms: C_23  and  C_25
REMARK                            x       y       z     vdW  Elec       q    Type
REMARK                         _______ _______ _______ _____ _____    ______ ____
ROOT
ATOM      1  N   UNL     1       1.553   2.269  -0.001  0.00  0.00    -0.194 N 
ENDROOT
BRANCH   1   2
ATOM      2  C   UNL     1       2.196   2.578   1.200  0.00  0.00    +0.053 A 
ATOM      3  C   UNL     1       1.590   3.429   2.116  0.00  0.00    +0.025 A 
ATOM      4  C   UNL     1       2.228   3.733   3.302  0.00  0.00    +0.003 A 
ATOM      5  C   UNL     1       3.470   3.191   3.580  0.00  0.00    +0.015 A 
ATOM      6  C   UNL     1       4.077   2.344   2.670  0.00  0.00    +0.020 A 
ATOM      7  C   UNL     1       3.441   2.031   1.484  0.00  0.00    +0.040 A 
ATOM      8 BR   UNL     1       5.775   1.606   3.055  0.00  0.00    -0.050 Br
ENDBRANCH   1   2
BRANCH   1   9
ATOM      9  S   UNL     1       0.071   1.531   0.021  0.00  0.00    +0.075 S 
ATOM     10  O   UNL     1      -0.608   1.951  -1.155  0.00  0.00    -0.150 OA
ATOM     11  O   UNL     1      -0.464   1.731   1.322  0.00  0.00    -0.150 OA
BRANCH   9  16
ATOM     12  C   UNL     1       1.020  -4.399  -0.560  0.00  0.00    +0.044 C 
ATOM     13  C   UNL     1       0.783  -2.918  -0.415  0.00  0.00    -0.050 A 
ATOM     14  C   UNL     1       0.744  -2.344   0.842  0.00  0.00    +0.005 A 
ATOM     15  C   UNL     1       0.527  -0.985   0.975  0.00  0.00    +0.029 A 
ATOM     16  C   UNL     1       0.348  -0.201  -0.149  0.00  0.00    +0.109 A 
ATOM     17  C   UNL     1       0.382  -0.775  -1.406  0.00  0.00    +0.029 A 
ATOM     18  C   UNL     1       0.604  -2.133  -1.539  0.00  0.00    +0.005 A 
ENDBRANCH   9  16
ENDBRANCH   1   9
BRANCH   1  19
ATOM     19  C   UNL     1       2.190   2.597  -1.278  0.00  0.00    +0.227 C 
BRANCH  19  20
ATOM     20  C   UNL     1       1.875   4.024  -1.645  0.00  0.00    +0.233 C 
ATOM     21  O   UNL     1       1.186   4.701  -0.911  0.00  0.00    -0.274 OA
ATOM     22  N   UNL     1       2.358   4.549  -2.788  0.00  0.00    -0.307 N 
ATOM     23  H   UNL     1       2.983   3.936  -3.454  0.00  0.00    +0.149 HD
BRANCH  22  24
ATOM     24  C   UNL     1       2.052   5.937  -3.144  0.00  0.00    +0.100 C 
ATOM     25  C   UNL     1       3.054   6.871  -2.464  0.00  0.00    +0.033 C 
BRANCH  24  26
ATOM     26  C   UNL     1       2.144   6.104  -4.639  0.00  0.00    -0.027 A 
ATOM     27  C   UNL     1       3.158   5.481  -5.343  0.00  0.00    +0.006 A 
ATOM     28  C   UNL     1       3.240   5.631  -6.715  0.00  0.00    +0.004 A 
ATOM     29  C   UNL     1       2.314   6.411  -7.382  0.00  0.00    -0.048 A 
ATOM     30  C   UNL     1       1.303   7.038  -6.677  0.00  0.00    -0.047 A 
ATOM     31  C   UNL     1       1.218   6.884  -5.306  0.00  0.00    +0.009 A 
ATOM     32  C   UNL     1       0.293   7.888  -7.404  0.00  0.00    +0.044 C 
ATOM     33  C   UNL     1       2.406   6.577  -8.877  0.00  0.00    +0.044 C 
ENDBRANCH  24  26
ENDBRANCH  22  24
ENDBRANCH  19  20
ENDBRANCH   1  19
TORSDOF 7
