REMARK  Name = ZINC20580464
REMARK  7 active torsions:
REMARK  status: ('A' for Active; 'I' for Inactive)
REMARK    1  A    between atoms: C_1  and  C_2
REMARK    2  A    between atoms: C_5  and  C_20
REMARK    3  A    between atoms: C_7  and  S_8
REMARK    4  A    between atoms: S_8  and  N_11
REMARK    5  A    between atoms: N_11  and  C_12
REMARK    6  A    between atoms: C_21  and  C_26
REMARK    7  A    between atoms: C_22  and  C_25
REMARK                            x       y       z     vdW  Elec       q    Type
REMARK                         _______ _______ _______ _____ _____    ______ ____
ROOT
ATOM      1  C   UNL     1      -0.329   1.135   1.772  0.00  0.00    +0.046 C 
ATOM      2  C   UNL     1      -1.397   0.790   2.778  0.00  0.00    -0.024 A 
ATOM      3  C   UNL     1      -1.302   1.266   4.074  0.00  0.00    +0.006 A 
ATOM      4  C   UNL     1      -2.276   0.954   5.000  0.00  0.00    +0.012 A 
ATOM      5  C   UNL     1      -3.359   0.157   4.627  0.00  0.00    +0.022 A 
ATOM      6  C   UNL     1      -3.452  -0.315   3.316  0.00  0.00    +0.040 A 
ATOM      7  C   UNL     1      -2.468   0.000   2.402  0.00  0.00    +0.112 A 
ENDROOT
BRANCH   5   8
ATOM      8  C   UNL     1      -4.407  -0.181   5.613  0.00  0.00    +0.170 A 
ATOM      9  C   UNL     1      -4.218  -0.613   6.898  0.00  0.00    +0.019 A 
ATOM     10  C   UNL     1      -5.527  -0.786   7.392  0.00  0.00    +0.084 A 
ATOM     11  N   UNL     1      -6.337  -0.464   6.424  0.00  0.00    -0.083 NA
ATOM     12  O   UNL     1      -5.738  -0.120   5.431  0.00  0.00    -0.354 OA
ATOM     13  C   UNL     1      -5.914  -1.252   8.772  0.00  0.00    +0.069 C 
ATOM     14  C   UNL     1      -2.915  -0.848   7.616  0.00  0.00    +0.049 C 
ENDBRANCH   5   8
BRANCH   7  15
ATOM     15  S   UNL     1      -2.580  -0.600   0.749  0.00  0.00    +0.073 S 
ATOM     16  O   UNL     1      -2.370   0.517  -0.104  0.00  0.00    -0.150 OA
ATOM     17  O   UNL     1      -3.755  -1.397   0.685  0.00  0.00    -0.150 OA
BRANCH  15  18
ATOM     18  N   UNL     1      -1.300  -1.624   0.512  0.00  0.00    -0.213 N 
ATOM     19  H   UNL     1      -0.561  -1.408  -0.274  0.00  0.00    +0.174 HD
BRANCH  18  20
ATOM     20  C   UNL     1      -1.159  -2.764   1.312  0.00  0.00    +0.083 A 
ATOM     21  C   UNL     1      -2.283  -3.455   1.742  0.00  0.00    +0.030 A 
ATOM     22  C   UNL     1      -2.141  -4.584   2.526  0.00  0.00    +0.040 A 
ATOM     23  C   UNL     1      -0.879  -5.024   2.887  0.00  0.00    +0.126 A 
ATOM     24  C   UNL     1       0.245  -4.335   2.465  0.00  0.00    +0.078 A 
ATOM     25  C   UNL     1       0.108  -3.204   1.680  0.00  0.00    +0.148 A 
ATOM     26  F   UNL     1       1.204  -2.531   1.266  0.00  0.00    -0.203 F 
ATOM     27  F   UNL     1      -0.744  -6.128   3.654  0.00  0.00    -0.205 F 
ENDBRANCH  18  20
ENDBRANCH  15  18
ENDBRANCH   7  15
TORSDOF 4
