REMARK  Name = ZINC22017540
REMARK  6 active torsions:
REMARK  status: ('A' for Active; 'I' for Inactive)
REMARK    1  A    between atoms: C_1  and  O_2
REMARK    2  A    between atoms: O_2  and  C_3
REMARK    3  A    between atoms: C_6  and  C_11
REMARK    4  A    between atoms: C_8  and  O_9
REMARK    5  A    between atoms: O_9  and  C_10
REMARK    6  A    between atoms: N_29  and  C_32
REMARK                            x       y       z     vdW  Elec       q    Type
REMARK                         _______ _______ _______ _____ _____    ______ ____
ROOT
ATOM      1  C   UNL     1       0.002  -0.004   0.002  0.00  0.00    +0.153 C 
ATOM      2  C   UNL     1      -0.041   1.511   0.002  0.00  0.00    +0.046 A 
ATOM      3  C   UNL     1       1.062   2.290  -0.003  0.00  0.00    -0.015 A 
ATOM      4  C   UNL     1       0.601   3.667   0.008  0.00  0.00    +0.003 A 
ATOM      5  C   UNL     1       1.278   4.890   0.013  0.00  0.00    +0.010 A 
ATOM      6  C   UNL     1       0.506   6.025   0.022  0.00  0.00    +0.001 A 
ATOM      7  C   UNL     1      -0.878   5.974   0.027  0.00  0.00    +0.002 A 
ATOM      8  C   UNL     1      -1.574   4.778   0.023  0.00  0.00    +0.026 A 
ATOM      9  C   UNL     1      -0.816   3.608   0.013  0.00  0.00    +0.047 A 
ATOM     10  N   UNL     1      -1.167   2.289   0.011  0.00  0.00    -0.356 N 
ATOM     11  H   UNL     1      -2.161   1.818   0.017  0.00  0.00    +0.166 HD
ATOM     12  C   UNL     1       2.488   1.802  -0.018  0.00  0.00    +0.069 C 
ATOM     13  C   UNL     1       2.531   0.344   0.454  0.00  0.00    +0.167 C 
ATOM     14  N   UNL     1       1.409  -0.377  -0.188  0.00  0.00    -0.288 N 
ATOM     15  C   UNL     1       1.937  -1.354  -0.927  0.00  0.00    +0.144 C 
ATOM     16  S   UNL     1       1.009  -2.505  -1.791  0.00  0.00    -0.018 S 
ATOM     17  N   UNL     1       3.277  -1.331  -0.913  0.00  0.00    -0.249 N 
ATOM     18  C   UNL     1       3.751  -0.343  -0.127  0.00  0.00    +0.242 C 
ATOM     19  O   UNL     1       4.913  -0.063   0.075  0.00  0.00    -0.273 OA
ENDROOT
BRANCH   1  23
ATOM     20  C   UNL     1      -1.438  -1.514   3.735  0.00  0.00    +0.162 A 
ATOM     21  C   UNL     1      -2.146  -1.753   2.568  0.00  0.00    +0.050 A 
ATOM     22  C   UNL     1      -1.681  -1.260   1.364  0.00  0.00    +0.009 A 
ATOM     23  C   UNL     1      -0.503  -0.536   1.318  0.00  0.00    -0.018 A 
ATOM     24  C   UNL     1       0.208  -0.294   2.479  0.00  0.00    +0.055 A 
ATOM     25  C   UNL     1      -0.256  -0.781   3.690  0.00  0.00    +0.162 A 
BRANCH  20  27
ATOM     26  C   UNL     1      -3.116  -2.739   4.891  0.00  0.00    +0.277 C 
ATOM     27  O   UNL     1      -1.897  -1.996   4.921  0.00  0.00    -0.491 OA
ENDBRANCH  20  27
BRANCH  25  28
ATOM     28  O   UNL     1       0.443  -0.544   4.833  0.00  0.00    -0.491 OA
ATOM     29  C   UNL     1       1.647   0.216   4.711  0.00  0.00    +0.277 C 
ENDBRANCH  25  28
ENDBRANCH   1  23
BRANCH  17  30
ATOM     30  C   UNL     1       4.123  -2.265  -1.661  0.00  0.00    +0.083 C 
ATOM     31  C   UNL     1       3.826  -2.137  -3.156  0.00  0.00    +0.023 C 
ATOM     32  C   UNL     1       4.710  -3.112  -3.937  0.00  0.00    +0.002 C 
ATOM     33  C   UNL     1       4.419  -4.543  -3.479  0.00  0.00    +0.000 C 
ATOM     34  C   UNL     1       4.716  -4.670  -1.984  0.00  0.00    +0.002 C 
ATOM     35  C   UNL     1       3.833  -3.695  -1.203  0.00  0.00    +0.023 C 
ENDBRANCH  17  30
TORSDOF 4
