REMARK  Name = ZINC34974179
REMARK  10 active torsions:
REMARK  status: ('A' for Active; 'I' for Inactive)
REMARK    1  A    between atoms: C_5  and  C_7
REMARK    2  A    between atoms: C_7  and  N_8
REMARK    3  A    between atoms: N_8  and  C_9
REMARK    4  A    between atoms: C_9  and  C_10
REMARK    5  A    between atoms: C_10  and  C_11
REMARK    6  A    between atoms: C_11  and  C_12
REMARK    7  A    between atoms: C_12  and  C_13
REMARK    8  A    between atoms: C_13  and  C_14
REMARK    9  A    between atoms: C_14  and  N_15
REMARK   10  A    between atoms: N_24  and  C_25
REMARK                            x       y       z     vdW  Elec       q    Type
REMARK                         _______ _______ _______ _____ _____    ______ ____
ROOT
ATOM      1  N   UNL     1       1.524  -1.994   1.478  0.00  0.00    -0.281 N 
ATOM      2  C   UNL     1       2.858  -1.883   1.633  0.00  0.00    +0.307 C 
ATOM      3  O   UNL     1       3.324  -1.632   2.728  0.00  0.00    -0.252 OA
ATOM      4  N   UNL     1       3.676  -2.049   0.574  0.00  0.00    -0.269 N 
ATOM      5  H   UNL     1       3.303  -2.174  -0.312  0.00  0.00    +0.156 HD
ENDROOT
BRANCH   4   6
ATOM      6  C   UNL     1       5.064  -2.041   0.754  0.00  0.00    +0.035 A 
ATOM      7  C   UNL     1       5.616  -2.536   1.928  0.00  0.00    +0.024 A 
ATOM      8  C   UNL     1       6.986  -2.527   2.103  0.00  0.00    +0.017 A 
ATOM      9  C   UNL     1       7.809  -2.025   1.110  0.00  0.00    +0.018 A 
ATOM     10  C   UNL     1       7.261  -1.531  -0.061  0.00  0.00    +0.017 A 
ATOM     11  C   UNL     1       5.892  -1.543  -0.243  0.00  0.00    +0.024 A 
ATOM     12 BR   UNL     1       9.684  -2.014   1.353  0.00  0.00    -0.050 Br
ENDBRANCH   4   6
BRANCH   1  13
ATOM     13  C   UNL     1       0.955  -2.179   0.141  0.00  0.00    +0.147 C 
BRANCH  13  18
ATOM     14  C   UNL     1       1.500  -5.727  -1.030  0.00  0.00    +0.000 A 
ATOM     15  C   UNL     1       0.346  -6.346  -0.586  0.00  0.00    +0.003 A 
ATOM     16  C   UNL     1      -0.611  -5.618   0.094  0.00  0.00    +0.038 A 
ATOM     17  C   UNL     1      -0.415  -4.268   0.330  0.00  0.00    +0.128 A 
ATOM     18  C   UNL     1       0.740  -3.649  -0.115  0.00  0.00    +0.005 A 
ATOM     19  C   UNL     1       1.697  -4.379  -0.795  0.00  0.00    +0.008 A 
ATOM     20  F   UNL     1      -1.351  -3.555   0.995  0.00  0.00    -0.205 F 
ENDBRANCH  13  18
ENDBRANCH   1  13
BRANCH   1  21
ATOM     21  C   UNL     1       0.643  -1.931   2.647  0.00  0.00    +0.110 C 
BRANCH  21  22
ATOM     22  C   UNL     1       0.578  -3.308   3.311  0.00  0.00    +0.019 C 
BRANCH  22  23
ATOM     23  C   UNL     1      -0.445  -3.277   4.449  0.00  0.00    +0.002 C 
BRANCH  23  24
ATOM     24  C   UNL     1      -0.510  -4.653   5.113  0.00  0.00    +0.002 C 
BRANCH  24  25
ATOM     25  C   UNL     1      -1.532  -4.622   6.251  0.00  0.00    +0.019 C 
BRANCH  25  26
ATOM     26  C   UNL     1      -1.598  -5.999   6.916  0.00  0.00    +0.103 C 
BRANCH  26  27
ATOM     27  N   UNL     1      -2.577  -5.969   8.005  0.00  0.00    -0.331 N 
ATOM     28  C   UNL     1      -2.812  -7.112   8.760  0.00  0.00    +0.096 A 
ATOM     29  C   UNL     1      -2.110  -8.280   8.479  0.00  0.00    +0.041 A 
ATOM     30  C   UNL     1      -2.353  -9.411   9.238  0.00  0.00    +0.005 A 
ATOM     31  C   UNL     1      -3.294  -9.335  10.257  0.00  0.00    +0.018 A 
ATOM     32  C   UNL     1      -3.954  -8.143  10.480  0.00  0.00    +0.084 A 
ATOM     33  N   UNL     1      -3.697  -7.079   9.744  0.00  0.00    -0.350 N 
ATOM     34  H   UNL     1      -3.061  -5.151   8.200  0.00  0.00    +0.147 HD
ATOM     35  H   UNL     1      -4.172  -6.253   9.925  0.00  0.00    +0.166 HD
ENDBRANCH  26  27
ENDBRANCH  25  26
ENDBRANCH  24  25
ENDBRANCH  23  24
ENDBRANCH  22  23
ENDBRANCH  21  22
ENDBRANCH   1  21
TORSDOF 10
