REMARK  Name = ZINC09408985
REMARK  7 active torsions:
REMARK  status: ('A' for Active; 'I' for Inactive)
REMARK    1  A    between atoms: C_4  and  O_7
REMARK    2  A    between atoms: O_7  and  C_8
REMARK    3  A    between atoms: C_12  and  C_14
REMARK    4  A    between atoms: C_17  and  C_31
REMARK    5  A    between atoms: N_24  and  C_25
REMARK    6  A    between atoms: C_25  and  C_26
REMARK    7  A    between atoms: C_36  and  O_37
REMARK                            x       y       z     vdW  Elec       q    Type
REMARK                         _______ _______ _______ _____ _____    ______ ____
ROOT
ATOM      1  C   UNL     1       5.529  -5.128  -0.534  0.00  0.00    +0.142 C 
ATOM      2  C   UNL     1       6.064  -5.473  -1.897  0.00  0.00    +0.035 A 
ATOM      3  C   UNL     1       6.536  -5.011  -3.130  0.00  0.00    +0.102 A 
ATOM      4  N   UNL     1       6.836  -6.068  -3.858  0.00  0.00    -0.173 NA
ATOM      5  N   UNL     1       6.601  -7.152  -3.207  0.00  0.00    -0.272 N 
ATOM      6  H   UNL     1       6.748  -8.048  -3.546  0.00  0.00    +0.189 HD
ATOM      7  C   UNL     1       6.114  -6.852  -1.967  0.00  0.00    +0.126 A 
ATOM      8  C   UNL     1       5.629  -7.402  -0.696  0.00  0.00    +0.266 C 
ATOM      9  O   UNL     1       5.548  -8.588  -0.438  0.00  0.00    -0.268 OA
ATOM     10  N   UNL     1       5.287  -6.407   0.145  0.00  0.00    -0.278 N 
ENDROOT
BRANCH   1  15
ATOM     11  C   UNL     1       1.925  -4.269  -1.275  0.00  0.00    +0.129 A 
ATOM     12  C   UNL     1       1.877  -2.934  -0.896  0.00  0.00    +0.046 A 
ATOM     13  C   UNL     1       3.010  -2.317  -0.403  0.00  0.00    +0.004 A 
ATOM     14  C   UNL     1       4.191  -3.028  -0.286  0.00  0.00    +0.006 A 
ATOM     15  C   UNL     1       4.241  -4.357  -0.662  0.00  0.00    -0.019 A 
ATOM     16  C   UNL     1       3.109  -4.981  -1.151  0.00  0.00    +0.052 A 
BRANCH  11  17
ATOM     17  O   UNL     1       0.812  -4.878  -1.761  0.00  0.00    -0.456 OA
BRANCH  17  21
ATOM     18  C   UNL     1       0.051  -4.584  -5.805  0.00  0.00    +0.000 A 
ATOM     19  C   UNL     1       1.163  -3.965  -5.265  0.00  0.00    +0.004 A 
ATOM     20  C   UNL     1       1.420  -4.061  -3.911  0.00  0.00    +0.046 A 
ATOM     21  C   UNL     1       0.561  -4.781  -3.093  0.00  0.00    +0.128 A 
ATOM     22  C   UNL     1      -0.554  -5.402  -3.637  0.00  0.00    +0.046 A 
ATOM     23  C   UNL     1      -0.807  -5.302  -4.991  0.00  0.00    +0.004 A 
ENDBRANCH  17  21
ENDBRANCH  11  17
ENDBRANCH   1  15
BRANCH   3  24
ATOM     24  C   UNL     1       6.673  -3.592  -3.543  0.00  0.00    +0.044 A 
ATOM     25  C   UNL     1       6.445  -2.571  -2.624  0.00  0.00    +0.014 A 
ATOM     26  C   UNL     1       6.573  -1.253  -3.012  0.00  0.00    +0.001 A 
ATOM     27  C   UNL     1       6.928  -0.942  -4.313  0.00  0.00    +0.004 A 
ATOM     28  C   UNL     1       7.156  -1.947  -5.233  0.00  0.00    +0.046 A 
ATOM     29  C   UNL     1       7.036  -3.275  -4.854  0.00  0.00    +0.126 A 
BRANCH  29  30
ATOM     30  O   UNL     1       7.267  -4.264  -5.756  0.00  0.00    -0.506 OA
ATOM     31  H   UNL     1       6.481  -4.537  -6.250  0.00  0.00    +0.292 HD
ENDBRANCH  29  30
ENDBRANCH   3  24
BRANCH  10  32
ATOM     32  C   UNL     1       4.763  -6.572   1.504  0.00  0.00    +0.183 C 
BRANCH  32  33
ATOM     33  C   UNL     1       3.259  -6.651   1.456  0.00  0.00    +0.122 A 
ATOM     34  C   UNL     1       2.534  -7.777   1.328  0.00  0.00    +0.046 A 
ATOM     35  C   UNL     1       1.174  -7.390   1.329  0.00  0.00    +0.041 A 
ATOM     36  C   UNL     1       1.149  -6.051   1.457  0.00  0.00    +0.195 A 
ATOM     37  O   UNL     1       2.415  -5.610   1.540  0.00  0.00    -0.466 OA
ENDBRANCH  32  33
ENDBRANCH  10  32
TORSDOF 7
