REMARK  Name = ZINC08849589
REMARK  9 active torsions:
REMARK  status: ('A' for Active; 'I' for Inactive)
REMARK    1  A    between atoms: C_1  and  C_2
REMARK    2  A    between atoms: C_7  and  N_12
REMARK    3  A    between atoms: C_9  and  C_11
REMARK    4  A    between atoms: C_13  and  C_15
REMARK    5  A    between atoms: C_15  and  S_16
REMARK    6  A    between atoms: S_16  and  C_17
REMARK    7  A    between atoms: C_20  and  C_32
REMARK    8  A    between atoms: N_21  and  C_22
REMARK    9  A    between atoms: C_22  and  C_23
REMARK                            x       y       z     vdW  Elec       q    Type
REMARK                         _______ _______ _______ _____ _____    ______ ____
ROOT
ATOM      1  C   UNL     1       3.909   5.536  -0.187  0.00  0.00    +0.193 A 
ATOM      2  N   UNL     1       4.485   4.433   0.237  0.00  0.00    -0.122 NA
ATOM      3  N   UNL     1       3.616   3.490   0.332  0.00  0.00    -0.128 NA
ATOM      4  C   UNL     1       2.435   3.931  -0.034  0.00  0.00    +0.165 A 
ATOM      5  N   UNL     1       2.586   5.255  -0.374  0.00  0.00    -0.298 N 
ENDROOT
BRANCH   4   6
ATOM      6  C   UNL     1       1.179   3.152  -0.068  0.00  0.00    +0.019 A 
ATOM      7  C   UNL     1       1.200   1.803  -0.423  0.00  0.00    +0.011 A 
ATOM      8  C   UNL     1       0.024   1.082  -0.453  0.00  0.00    +0.001 A 
ATOM      9  C   UNL     1      -1.175   1.695  -0.135  0.00  0.00    +0.000 A 
ATOM     10  C   UNL     1      -1.202   3.031   0.223  0.00  0.00    +0.001 A 
ATOM     11  C   UNL     1      -0.033   3.763   0.257  0.00  0.00    +0.011 A 
ENDBRANCH   4   6
BRANCH   1  12
ATOM     12  S   UNL     1       4.698   7.087  -0.464  0.00  0.00    -0.077 S 
BRANCH  12  13
ATOM     13  C   UNL     1       6.397   6.662  -0.004  0.00  0.00    +0.173 C 
BRANCH  13  15
ATOM     14  N   UNL     1       8.594   7.792   0.119  0.00  0.00    -0.312 N 
ATOM     15  C   UNL     1       7.279   7.873  -0.167  0.00  0.00    +0.224 C 
ATOM     16  O   UNL     1       6.806   8.920  -0.555  0.00  0.00    -0.275 OA
ATOM     17  H   UNL     1       8.972   6.955   0.430  0.00  0.00    +0.149 HD
BRANCH  14  23
ATOM     18  C   UNL     1      13.236   9.301  -0.662  0.00  0.00    +0.008 C 
ATOM     19  C   UNL     1      11.792   9.750  -0.433  0.00  0.00    -0.009 C 
ATOM     20  C   UNL     1      11.719  10.607   0.832  0.00  0.00    +0.003 C 
ATOM     21  C   UNL     1      10.274  11.056   1.061  0.00  0.00    +0.002 C 
ATOM     22  C   UNL     1       9.378   9.827   1.226  0.00  0.00    +0.022 C 
ATOM     23  C   UNL     1       9.451   8.969  -0.039  0.00  0.00    +0.076 C 
ATOM     24  C   UNL     1      10.896   8.520  -0.268  0.00  0.00    +0.009 C 
ATOM     25  C   UNL     1      11.372   7.700   0.932  0.00  0.00    +0.009 C 
ENDBRANCH  14  23
ENDBRANCH  13  15
ENDBRANCH  12  13
ENDBRANCH   1  12
BRANCH   5  26
ATOM     26  C   UNL     1       1.544   6.173  -0.841  0.00  0.00    +0.161 C 
BRANCH  26  27
ATOM     27  C   UNL     1       1.341   5.992  -2.323  0.00  0.00    -0.024 A 
ATOM     28  C   UNL     1       2.151   6.667  -3.217  0.00  0.00    +0.009 A 
ATOM     29  C   UNL     1       1.972   6.500  -4.578  0.00  0.00    +0.050 A 
ATOM     30  C   UNL     1       0.973   5.663  -5.048  0.00  0.00    +0.166 A 
ATOM     31  C   UNL     1       0.154   4.987  -4.147  0.00  0.00    +0.167 A 
ATOM     32  C   UNL     1       0.343   5.155  -2.785  0.00  0.00    +0.055 A 
ATOM     33  O   UNL     1      -0.741   4.234  -4.851  0.00  0.00    -0.453 OA
ATOM     34  C   UNL     1      -0.200   4.139  -6.182  0.00  0.00    +0.466 C 
ATOM     35  O   UNL     1       0.591   5.334  -6.317  0.00  0.00    -0.453 OA
ENDBRANCH  26  27
ENDBRANCH   5  26
TORSDOF 7
