REMARK  Name = ZINC36530944
REMARK  12 active torsions:
REMARK  status: ('A' for Active; 'I' for Inactive)
REMARK    1  A    between atoms: C_1  and  C_2
REMARK    2  A    between atoms: C_2  and  C_3
REMARK    3  A    between atoms: C_3  and  C_4
REMARK    4  A    between atoms: C_4  and  N_5
REMARK    5  A    between atoms: C_6  and  C_8
REMARK    6  A    between atoms: C_8  and  C_10
REMARK    7  A    between atoms: C_8  and  N_17
REMARK    8  A    between atoms: C_14  and  O_16
REMARK    9  A    between atoms: N_17  and  C_18
REMARK   10  A    between atoms: C_19  and  C_21
REMARK   11  A    between atoms: C_22  and  O_28
REMARK   12  A    between atoms: C_26  and  O_27
REMARK                            x       y       z     vdW  Elec       q    Type
REMARK                         _______ _______ _______ _____ _____    ______ ____
ROOT
ATOM      1  C   UNL     1       2.293  -4.328  -3.921  0.00  0.00    +0.192 C 
ENDROOT
BRANCH   1   2
ATOM      2  C   UNL     1       3.666  -3.712  -3.834  0.00  0.00    -0.015 A 
ATOM      3  C   UNL     1       4.191  -3.364  -2.603  0.00  0.00    +0.006 A 
ATOM      4  C   UNL     1       5.449  -2.798  -2.520  0.00  0.00    +0.004 A 
ATOM      5  C   UNL     1       6.185  -2.578  -3.668  0.00  0.00    +0.045 A 
ATOM      6  C   UNL     1       5.661  -2.925  -4.904  0.00  0.00    +0.117 A 
ATOM      7  C   UNL     1       4.400  -3.499  -4.984  0.00  0.00    +0.051 A 
BRANCH   6   8
ATOM      8  O   UNL     1       6.383  -2.709  -6.035  0.00  0.00    -0.507 OA
ATOM      9  H   UNL     1       6.950  -3.452  -6.288  0.00  0.00    +0.292 HD
ENDBRANCH   6   8
ENDBRANCH   1   2
BRANCH   1  11
ATOM     10  N   UNL     1       1.226  -2.580  -2.533  0.00  0.00    -0.313 N 
ATOM     11  C   UNL     1       1.470  -3.890  -2.737  0.00  0.00    +0.238 C 
ATOM     12  O   UNL     1       1.027  -4.716  -1.967  0.00  0.00    -0.273 OA
ATOM     13  H   UNL     1       1.580  -1.920  -3.149  0.00  0.00    +0.149 HD
BRANCH  10  14
ATOM     14  C   UNL     1       0.426  -2.154  -1.383  0.00  0.00    +0.104 C 
BRANCH  14  15
ATOM     15  C   UNL     1       0.301  -0.629  -1.385  0.00  0.00    +0.018 C 
BRANCH  15  17
ATOM     16  C   UNL     1      -0.660   1.341  -0.185  0.00  0.00    +0.004 C 
ATOM     17  C   UNL     1      -0.535  -0.184  -0.183  0.00  0.00    -0.002 C 
ENDBRANCH  15  17
ENDBRANCH  14  15
ENDBRANCH  10  14
ENDBRANCH   1  11
BRANCH   1  18
ATOM     18  N   UNL     1       2.413  -5.788  -3.918  0.00  0.00    -0.285 N 
ATOM     19  C   UNL     1       2.971  -6.476  -2.751  0.00  0.00    +0.133 C 
ATOM     20  C   UNL     1       2.010  -6.499  -4.990  0.00  0.00    +0.254 C 
ATOM     21  O   UNL     1       1.546  -5.928  -5.959  0.00  0.00    -0.270 OA
BRANCH  20  22
ATOM     22  C   UNL     1       2.130  -7.967  -4.988  0.00  0.00    +0.119 A 
ATOM     23  C   UNL     1       1.075  -8.761  -4.514  0.00  0.00    +0.133 A 
ATOM     24  C   UNL     1       1.199 -10.141  -4.517  0.00  0.00    +0.046 A 
ATOM     25  C   UNL     1       2.357 -10.735  -4.985  0.00  0.00    +0.007 A 
ATOM     26  C   UNL     1       3.402  -9.962  -5.453  0.00  0.00    +0.046 A 
ATOM     27  C   UNL     1       3.298  -8.580  -5.464  0.00  0.00    +0.133 A 
BRANCH  27  28
ATOM     28  O   UNL     1       4.323  -7.824  -5.930  0.00  0.00    -0.506 OA
ATOM     29  H   UNL     1       4.967  -7.574  -5.253  0.00  0.00    +0.292 HD
ENDBRANCH  27  28
BRANCH  23  30
ATOM     30  O   UNL     1      -0.061  -8.180  -4.055  0.00  0.00    -0.506 OA
ATOM     31  H   UNL     1      -0.734  -8.041  -4.735  0.00  0.00    +0.292 HD
ENDBRANCH  23  30
ENDBRANCH  20  22
ENDBRANCH   1  18
TORSDOF 10
