REMARK  Name = ZINC01435222
REMARK  6 active torsions:
REMARK  status: ('A' for Active; 'I' for Inactive)
REMARK    1  A    between atoms: C_5  and  C_7
REMARK    2  A    between atoms: C_7  and  O_9
REMARK    3  A    between atoms: O_9  and  C_10
REMARK    4  A    between atoms: C_14  and  C_16
REMARK    5  A    between atoms: N_17  and  N_18
REMARK    6  A    between atoms: C_19  and  C_21
REMARK                            x       y       z     vdW  Elec       q    Type
REMARK                         _______ _______ _______ _____ _____    ______ ____
ROOT
ATOM      1  C   UNL     1       1.187   1.975   0.011  0.00  0.00    +0.133 A 
ATOM      2  C   UNL     1       2.359   1.237  -0.099  0.00  0.00    +0.046 A 
ATOM      3  C   UNL     1       3.586   1.874  -0.103  0.00  0.00    +0.004 A 
ATOM      4  C   UNL     1       3.655   3.247   0.014  0.00  0.00    +0.010 A 
ATOM      5  C   UNL     1       2.483   3.998   0.131  0.00  0.00    -0.002 A 
ATOM      6  C   UNL     1       1.245   3.353   0.129  0.00  0.00    +0.055 A 
ENDROOT
BRANCH   5   7
ATOM      7  C   UNL     1       2.553   5.466   0.256  0.00  0.00    +0.138 C 
ATOM      8  N   UNL     1       3.705   6.062   0.257  0.00  0.00    -0.188 NA
BRANCH   8   9
ATOM      9  N   UNL     1       3.772   7.457   0.376  0.00  0.00    -0.204 N 
ATOM     10  C   UNL     1       4.969   8.077   0.377  0.00  0.00    +0.276 C 
ATOM     11  O   UNL     1       5.988   7.427   0.276  0.00  0.00    -0.270 OA
ATOM     12  H   UNL     1       2.957   7.976   0.458  0.00  0.00    +0.177 HD
BRANCH  10  13
ATOM     13  C   UNL     1       5.041   9.576   0.505  0.00  0.00    +0.297 C 
ATOM     14  C   UNL     1       4.542  10.002   1.893  0.00  0.00    +0.283 C 
ATOM     15  O   UNL     1       4.636  11.428   1.985  0.00  0.00    -0.484 OA
ATOM     16  C   UNL     1       5.798  11.993   1.558  0.00  0.00    +0.162 A 
ATOM     17  C   UNL     1       6.103  13.291   1.938  0.00  0.00    +0.049 A 
ATOM     18  C   UNL     1       7.277  13.881   1.507  0.00  0.00    +0.004 A 
ATOM     19  C   UNL     1       8.150  13.178   0.698  0.00  0.00    +0.004 A 
ATOM     20  C   UNL     1       7.852  11.883   0.317  0.00  0.00    +0.049 A 
ATOM     21  C   UNL     1       6.676  11.285   0.746  0.00  0.00    +0.163 A 
ATOM     22  O   UNL     1       6.398  10.009   0.365  0.00  0.00    -0.472 OA
ENDBRANCH  10  13
ENDBRANCH   8   9
ENDBRANCH   5   7
BRANCH   1  23
ATOM     23  O   UNL     1      -0.016   1.343   0.009  0.00  0.00    -0.422 OA
BRANCH  23  24
ATOM     24  C   UNL     1      -0.733   1.397  -1.130  0.00  0.00    +0.346 C 
ATOM     25  O   UNL     1      -0.339   2.064  -2.065  0.00  0.00    -0.244 OA
BRANCH  24  30
ATOM     26  C   UNL     1      -3.637  -0.826  -0.281  0.00  0.00    +0.001 A 
ATOM     27  C   UNL     1      -4.372  -0.769  -1.453  0.00  0.00    +0.001 A 
ATOM     28  C   UNL     1      -3.927  -0.010  -2.520  0.00  0.00    +0.016 A 
ATOM     29  C   UNL     1      -2.744   0.697  -2.422  0.00  0.00    +0.032 A 
ATOM     30  C   UNL     1      -1.998   0.644  -1.242  0.00  0.00    +0.073 A 
ATOM     31  C   UNL     1      -2.452  -0.130  -0.171  0.00  0.00    +0.016 A 
ATOM     32 BR   UNL     1      -2.136   1.733  -3.883  0.00  0.00    -0.049 Br
ENDBRANCH  24  30
ENDBRANCH  23  24
ENDBRANCH   1  23
TORSDOF 6
