REMARK  Name = ZINC05608339
REMARK  6 active torsions:
REMARK  status: ('A' for Active; 'I' for Inactive)
REMARK    1  A    between atoms: C_1  and  C_2
REMARK    2  A    between atoms: C_11  and  O_20
REMARK    3  A    between atoms: C_12  and  C_14
REMARK    4  A    between atoms: O_20  and  C_21
REMARK    5  A    between atoms: C_21  and  C_22
REMARK    6  A    between atoms: C_22  and  C_24
REMARK                            x       y       z     vdW  Elec       q    Type
REMARK                         _______ _______ _______ _____ _____    ______ ____
ROOT
ATOM      1  C   UNL     1       2.454   1.701   0.558  0.00  0.00    +0.045 C 
ATOM      2  C   UNL     1       1.156   2.445   0.377  0.00  0.00    -0.029 A 
ATOM      3  C   UNL     1       1.154   3.824   0.377  0.00  0.00    +0.051 A 
ATOM      4  C   UNL     1      -0.040   4.516   0.210  0.00  0.00    +0.140 A 
ATOM      5  C   UNL     1      -1.235   3.796   0.043  0.00  0.00    +0.069 A 
ATOM      6  C   UNL     1      -1.219   2.402   0.039  0.00  0.00    +0.035 A 
ATOM      7  C   UNL     1      -0.025   1.734   0.211  0.00  0.00    +0.045 A 
ATOM      8 CL   UNL     1       0.002  -0.001   0.213  0.00  0.00    -0.083 Cl
ATOM      9  C   UNL     1      -2.491   4.549  -0.133  0.00  0.00    +0.235 A 
ATOM     10  O   UNL     1      -3.558   3.977  -0.282  0.00  0.00    -0.283 OA
ATOM     11  C   UNL     1      -2.409   5.965  -0.121  0.00  0.00    +0.211 A 
ATOM     12  C   UNL     1      -1.197   6.565   0.049  0.00  0.00    +0.181 A 
ATOM     13  O   UNL     1      -0.062   5.864   0.208  0.00  0.00    -0.451 OA
ENDROOT
BRANCH  12  14
ATOM     14  C   UNL     1      -1.129   8.039   0.058  0.00  0.00    +0.021 A 
ATOM     15  C   UNL     1      -0.174   8.702  -0.717  0.00  0.00    +0.012 A 
ATOM     16  C   UNL     1      -0.120  10.080  -0.707  0.00  0.00    +0.001 A 
ATOM     17  C   UNL     1      -1.001  10.806   0.075  0.00  0.00    +0.000 A 
ATOM     18  C   UNL     1      -1.946  10.155   0.849  0.00  0.00    +0.001 A 
ATOM     19  C   UNL     1      -2.015   8.778   0.846  0.00  0.00    +0.012 A 
ENDBRANCH  12  14
BRANCH  11  20
ATOM     20  O   UNL     1      -3.531   6.719  -0.279  0.00  0.00    -0.477 OA
BRANCH  20  21
ATOM     21  C   UNL     1      -3.954   6.981  -1.618  0.00  0.00    +0.308 C 
BRANCH  21  22
ATOM     22  C   UNL     1      -5.203   7.824  -1.595  0.00  0.00    +0.200 C 
ATOM     23  O   UNL     1      -5.684   8.165  -0.536  0.00  0.00    -0.288 OA
BRANCH  22  24
ATOM     24  C   UNL     1      -5.839   8.231  -2.858  0.00  0.00    +0.021 A 
ATOM     25  C   UNL     1      -5.284   7.844  -4.082  0.00  0.00    +0.011 A 
ATOM     26  C   UNL     1      -5.889   8.225  -5.261  0.00  0.00    +0.001 A 
ATOM     27  C   UNL     1      -7.037   8.998  -5.235  0.00  0.00    +0.000 A 
ATOM     28  C   UNL     1      -7.589   9.391  -4.028  0.00  0.00    +0.001 A 
ATOM     29  C   UNL     1      -6.999   9.013  -2.841  0.00  0.00    +0.011 A 
ENDBRANCH  22  24
ENDBRANCH  21  22
ENDBRANCH  20  21
ENDBRANCH  11  20
TORSDOF 5
