REMARK  Name = ZINC27522137
REMARK  6 active torsions:
REMARK  status: ('A' for Active; 'I' for Inactive)
REMARK    1  A    between atoms: C_3  and  C_10
REMARK    2  A    between atoms: C_5  and  N_7
REMARK    3  A    between atoms: C_11  and  C_12
REMARK    4  A    between atoms: C_11  and  N_23
REMARK    5  A    between atoms: N_14  and  C_15
REMARK    6  A    between atoms: C_24  and  C_26
REMARK                            x       y       z     vdW  Elec       q    Type
REMARK                         _______ _______ _______ _____ _____    ______ ____
ROOT
ATOM      1  C   UNL     1       0.049   5.282  -0.046  0.00  0.00    +0.036 C 
ATOM      2  C   UNL     1      -1.159   5.886  -0.108  0.00  0.00    +0.097 C 
ENDROOT
BRANCH   1   5
ATOM      3  C   UNL     1      -0.783   1.687  -0.719  0.00  0.00    +0.003 A 
ATOM      4  C   UNL     1      -0.879   3.062  -0.679  0.00  0.00    +0.008 A 
ATOM      5  C   UNL     1       0.141   3.814  -0.087  0.00  0.00    -0.021 A 
ATOM      6  C   UNL     1       1.249   3.163   0.466  0.00  0.00    +0.040 A 
ATOM      7  C   UNL     1       1.327   1.787   0.423  0.00  0.00    +0.127 A 
ATOM      8  C   UNL     1       0.314   1.050  -0.165  0.00  0.00    +0.033 A 
BRANCH   7   9
ATOM      9  N   UNL     1       2.498   1.096   1.008  0.00  0.00    +0.056 N 
ATOM     10  O   UNL     1       2.570  -0.119   0.970  0.00  0.00    -0.126 OA
ATOM     11  O   UNL     1       3.391   1.742   1.526  0.00  0.00    -0.126 OA
ENDBRANCH   7   9
ENDBRANCH   1   5
BRANCH   2  12
ATOM     12  C   UNL     1      -1.245   7.351  -0.204  0.00  0.00    +0.262 C 
ATOM     13  O   UNL     1      -0.228   8.019  -0.227  0.00  0.00    -0.268 OA
ATOM     14  N   UNL     1      -2.449   7.953  -0.267  0.00  0.00    -0.280 N 
ATOM     15  H   UNL     1      -3.368   7.359  -0.150  0.00  0.00    +0.155 HD
BRANCH  14  16
ATOM     16  C   UNL     1      -2.530   9.332  -0.480  0.00  0.00    +0.036 A 
ATOM     17  C   UNL     1      -3.544  10.070   0.118  0.00  0.00    +0.043 A 
ATOM     18  C   UNL     1      -3.619  11.434  -0.090  0.00  0.00    +0.044 A 
ATOM     19  C   UNL     1      -2.692  12.063  -0.902  0.00  0.00    +0.040 A 
ATOM     20  C   UNL     1      -1.684  11.330  -1.504  0.00  0.00    +0.044 A 
ATOM     21  C   UNL     1      -1.601   9.966  -1.294  0.00  0.00    +0.043 A 
ATOM     22 CL   UNL     1      -0.523  12.124  -2.522  0.00  0.00    -0.083 Cl
ATOM     23 CL   UNL     1      -4.882  12.358   0.661  0.00  0.00    -0.083 Cl
ENDBRANCH  14  16
ENDBRANCH   2  12
BRANCH   2  24
ATOM     24  N   UNL     1      -2.327   5.118  -0.082  0.00  0.00    -0.277 N 
ATOM     25  C   UNL     1      -3.200   5.183  -1.107  0.00  0.00    +0.255 C 
ATOM     26  O   UNL     1      -3.014   5.972  -2.015  0.00  0.00    -0.269 OA
ATOM     27  H   UNL     1      -2.534   4.461   0.776  0.00  0.00    +0.155 HD
BRANCH  25  28
ATOM     28  C   UNL     1      -4.372   4.304  -1.128  0.00  0.00    +0.074 A 
ATOM     29  C   UNL     1      -5.331   4.150  -2.117  0.00  0.00    +0.021 A 
ATOM     30  C   UNL     1      -6.334   3.244  -1.879  0.00  0.00    +0.008 A 
ATOM     31  C   UNL     1      -6.347   2.561  -0.704  0.00  0.00    +0.046 A 
ATOM     32  S   UNL     1      -4.942   3.159   0.116  0.00  0.00    -0.092 S 
ENDBRANCH  25  28
ENDBRANCH   2  24
TORSDOF 6
