REMARK  Name = ZINC62711855
REMARK  6 active torsions:
REMARK  status: ('A' for Active; 'I' for Inactive)
REMARK    1  A    between atoms: C_1  and  N_2
REMARK    2  A    between atoms: N_2  and  C_3
REMARK    3  A    between atoms: N_2  and  C_11
REMARK    4  A    between atoms: C_3  and  C_4
REMARK    5  A    between atoms: C_14  and  C_18
REMARK    6  A    between atoms: C_18  and  N_19
REMARK                            x       y       z     vdW  Elec       q    Type
REMARK                         _______ _______ _______ _____ _____    ______ ____
ROOT
ATOM      1  C   UNL     1       0.000  -0.698  -1.214  0.00  0.00    +0.101 A 
ATOM      2  C   UNL     1      -1.204  -1.054  -1.811  0.00  0.00    +0.147 A 
ATOM      3  C   UNL     1      -1.202  -1.739  -3.013  0.00  0.00    +0.042 A 
ATOM      4  C   UNL     1      -0.004  -2.069  -3.621  0.00  0.00    -0.059 A 
ATOM      5  C   UNL     1       1.195  -1.716  -3.030  0.00  0.00    +0.042 A 
ATOM      6  C   UNL     1       1.202  -1.026  -1.831  0.00  0.00    +0.147 A 
ATOM      7  F   UNL     1       2.374  -0.677  -1.258  0.00  0.00    -0.203 F 
ATOM      8  F   UNL     1      -2.374  -0.733  -1.218  0.00  0.00    -0.203 F 
ENDROOT
BRANCH   1  10
ATOM      9  C   UNL     1      -0.018   1.461   0.010  0.00  0.00    +0.130 C 
ATOM     10  N   UNL     1       0.002  -0.004   0.002  0.00  0.00    -0.324 N 
BRANCH  10  11
ATOM     11  C   UNL     1       0.024  -0.743   1.267  0.00  0.00    +0.141 C 
BRANCH  11  12
ATOM     12  C   UNL     1      -1.389  -1.016   1.714  0.00  0.00    -0.016 A 
ATOM     13  C   UNL     1      -1.975  -0.218   2.678  0.00  0.00    +0.006 A 
ATOM     14  C   UNL     1      -3.271  -0.468   3.088  0.00  0.00    +0.000 A 
ATOM     15  C   UNL     1      -3.982  -1.516   2.534  0.00  0.00    +0.001 A 
ATOM     16  C   UNL     1      -3.397  -2.314   1.569  0.00  0.00    +0.015 A 
ATOM     17  C   UNL     1      -2.102  -2.062   1.155  0.00  0.00    +0.023 A 
ATOM     18 BR   UNL     1      -1.303  -3.149  -0.170  0.00  0.00    -0.050 Br
ENDBRANCH  11  12
ENDBRANCH  10  11
ENDBRANCH   1  10
BRANCH   4  19
ATOM     19  C   UNL     1      -0.006  -2.815  -4.930  0.00  0.00    -0.050 C 
BRANCH  19  20
ATOM     20  N   UNL     1      -0.023  -1.855  -6.041  0.00  0.00    +0.381 N 
ATOM     21  H   UNL     1      -0.852  -1.283  -5.979  0.00  0.00    -0.090 HD
ATOM     22  H   UNL     1       0.795  -1.267  -5.990  0.00  0.00    -0.090 HD
ATOM     23  H   UNL     1      -0.025  -2.354  -6.918  0.00  0.00    -0.090 HD
ENDBRANCH  19  20
ENDBRANCH   4  19
TORSDOF 5
