REMARK  Name = ZINC35622213
REMARK  9 active torsions:
REMARK  status: ('A' for Active; 'I' for Inactive)
REMARK    1  A    between atoms: C_1  and  O_2
REMARK    2  A    between atoms: O_2  and  C_3
REMARK    3  A    between atoms: C_6  and  C_9
REMARK    4  A    between atoms: C_9  and  C_11
REMARK    5  A    between atoms: C_9  and  N_24
REMARK    6  A    between atoms: N_15  and  C_16
REMARK    7  A    between atoms: C_19  and  O_22
REMARK    8  A    between atoms: O_22  and  C_23
REMARK    9  A    between atoms: C_31  and  C_37
REMARK                            x       y       z     vdW  Elec       q    Type
REMARK                         _______ _______ _______ _____ _____    ______ ____
ROOT
ATOM      1  C   UNL     1       2.533  -2.525  -4.463  0.00  0.00    +0.177 C 
ENDROOT
BRANCH   1   2
ATOM      2  N   UNL     1       3.444  -3.570  -3.987  0.00  0.00    -0.281 N 
ATOM      3  C   UNL     1       4.904  -3.542  -4.155  0.00  0.00    +0.142 C 
ATOM      4  C   UNL     1       5.463  -4.690  -3.361  0.00  0.00    -0.013 C 
ATOM      5  C   UNL     1       6.445  -5.329  -2.779  0.00  0.00    +0.008 C 
ATOM      6  C   UNL     1       5.827  -6.566  -2.110  0.00  0.00    +0.144 C 
ATOM      7  C   UNL     1       5.531  -7.556  -3.284  0.00  0.00    +0.054 C 
ATOM      8  C   UNL     1       4.369  -6.827  -4.027  0.00  0.00    +0.150 C 
ATOM      9  C   UNL     1       4.221  -5.558  -3.126  0.00  0.00    +0.181 C 
ATOM     10  C   UNL     1       3.055  -4.687  -3.329  0.00  0.00    +0.254 C 
ATOM     11  O   UNL     1       1.924  -4.930  -2.966  0.00  0.00    -0.272 OA
ATOM     12  O   UNL     1       4.479  -6.056  -1.795  0.00  0.00    -0.352 OA
BRANCH   8  13
ATOM     13  C   UNL     1       4.764  -6.466  -5.436  0.00  0.00    +0.363 C 
ATOM     14  O   UNL     1       3.930  -6.484  -6.325  0.00  0.00    -0.246 OA
ATOM     15  O   UNL     1       5.916  -6.157  -5.686  0.00  0.00    -0.246 OA
ENDBRANCH   8  13
ENDBRANCH   1   2
BRANCH   1  19
ATOM     16  C   UNL     1       0.209  -1.063  -1.188  0.00  0.00    +0.120 A 
ATOM     17  C   UNL     1       1.521  -1.465  -0.984  0.00  0.00    +0.046 A 
ATOM     18  C   UNL     1       2.270  -1.938  -2.044  0.00  0.00    +0.009 A 
ATOM     19  C   UNL     1       1.713  -2.010  -3.308  0.00  0.00    -0.019 A 
ATOM     20  C   UNL     1       0.406  -1.609  -3.514  0.00  0.00    +0.009 A 
ATOM     21  C   UNL     1      -0.349  -1.142  -2.456  0.00  0.00    +0.046 A 
BRANCH  16  23
ATOM     22  C   UNL     1       0.110  -0.545   1.130  0.00  0.00    +0.277 C 
ATOM     23  O   UNL     1      -0.530  -0.598  -0.147  0.00  0.00    -0.495 OA
ENDBRANCH  16  23
ENDBRANCH   1  19
BRANCH   1  24
ATOM     24  C   UNL     1       1.616  -3.098  -5.513  0.00  0.00    +0.181 A 
ATOM     25  N   UNL     1       0.923  -4.203  -5.418  0.00  0.00    -0.111 NA
ATOM     26  N   UNL     1       0.244  -4.405  -6.489  0.00  0.00    -0.023 NA
ATOM     27  N   UNL     1       0.454  -3.454  -7.335  0.00  0.00    -0.039 NA
ATOM     28  N   UNL     1       1.354  -2.563  -6.725  0.00  0.00    -0.195 N 
BRANCH  28  29
ATOM     29  C   UNL     1       1.872  -1.375  -7.262  0.00  0.00    +0.069 A 
ATOM     30  C   UNL     1       1.992  -0.246  -6.462  0.00  0.00    +0.031 A 
ATOM     31  C   UNL     1       2.501   0.923  -6.990  0.00  0.00    +0.048 A 
ATOM     32  C   UNL     1       2.894   0.971  -8.320  0.00  0.00    +0.120 A 
ATOM     33  C   UNL     1       2.774  -0.157  -9.120  0.00  0.00    +0.048 A 
ATOM     34  C   UNL     1       2.270  -1.328  -8.591  0.00  0.00    +0.031 A 
BRANCH  32  35
ATOM     35  O   UNL     1       3.396   2.122  -8.840  0.00  0.00    -0.495 OA
ATOM     36  C   UNL     1       3.780   2.099 -10.216  0.00  0.00    +0.277 C 
ENDBRANCH  32  35
ENDBRANCH  28  29
ENDBRANCH   1  24
TORSDOF 7
