REMARK  Name = ZINC09043903
REMARK  5 active torsions:
REMARK  status: ('A' for Active; 'I' for Inactive)
REMARK    1  A    between atoms: C_1  and  C_2
REMARK    2  A    between atoms: C_13  and  O_15
REMARK    3  A    between atoms: C_20  and  C_34
REMARK    4  A    between atoms: C_26  and  C_30
REMARK    5  A    between atoms: C_27  and  C_28
REMARK                            x       y       z     vdW  Elec       q    Type
REMARK                         _______ _______ _______ _____ _____    ______ ____
ROOT
ATOM      1  C   UNL     1      -0.019   1.523   0.010  0.00  0.00    +0.014 C 
ATOM      2  C   UNL     1       0.002  -0.004   0.002  0.00  0.00    -0.003 C 
ATOM      3  C   UNL     1      -1.388  -0.580   0.002  0.00  0.00    +0.010 C 
ATOM      4  C   UNL     1      -2.001  -0.577   1.406  0.00  0.00    +0.005 C 
ATOM      5  C   UNL     1      -1.174   0.193   2.417  0.00  0.00    -0.001 C 
ATOM      6  C   UNL     1       0.261  -0.322   2.503  0.00  0.00    -0.004 C 
ATOM      7  C   UNL     1       0.834  -0.608   1.151  0.00  0.00    +0.001 C 
ATOM      8  C   UNL     1       2.237  -0.070   0.841  0.00  0.00    +0.007 C 
ATOM      9  C   UNL     1       2.320  -0.183  -0.708  0.00  0.00    +0.032 C 
ATOM     10  C   UNL     1       0.872  -0.425  -1.206  0.00  0.00    +0.121 C 
ATOM     11  C   UNL     1       1.089   0.671   3.318  0.00  0.00    +0.004 C 
ATOM     12  C   UNL     1       0.464   0.801   4.711  0.00  0.00    +0.005 C 
ATOM     13  C   UNL     1      -0.725  -0.149   4.858  0.00  0.00    +0.001 C 
ATOM     14  C   UNL     1      -1.803   0.153   3.816  0.00  0.00    -0.022 C 
ATOM     15  C   UNL     1      -2.845  -0.967   3.878  0.00  0.00    +0.045 C 
ATOM     16  C   UNL     1      -3.383  -1.087   5.280  0.00  0.00    -0.007 A 
ATOM     17  C   UNL     1      -2.676  -0.631   6.372  0.00  0.00    +0.050 A 
ATOM     18  N   UNL     1      -3.188  -0.734   7.596  0.00  0.00    -0.213 NA
ATOM     19  C   UNL     1      -4.367  -1.265   7.839  0.00  0.00    +0.289 A 
ATOM     20  C   UNL     1      -5.145  -1.769   6.788  0.00  0.00    +0.135 A 
ATOM     21  C   UNL     1      -4.632  -1.688   5.475  0.00  0.00    +0.079 A 
ATOM     22  O   UNL     1      -4.833  -1.322   9.110  0.00  0.00    -0.264 OA
ATOM     23  C   UNL     1      -1.313  -0.002   6.260  0.00  0.00    +0.060 C 
ATOM     24  C   UNL     1      -2.476   1.501   4.095  0.00  0.00    +0.012 C 
ENDROOT
BRANCH  10  25
ATOM     25  O   UNL     1       0.577   0.408  -2.323  0.00  0.00    -0.391 OA
ATOM     26  H   UNL     1       1.089   0.198  -3.116  0.00  0.00    +0.210 HD
ENDBRANCH  10  25
BRANCH  21  27
ATOM     27  C   UNL     1      -5.388  -2.230   4.386  0.00  0.00    +0.101 C 
ATOM     28  N   UNL     1      -5.987  -2.660   3.522  0.00  0.00    -0.191 NA
ENDBRANCH  21  27
BRANCH  20  29
ATOM     29  C   UNL     1      -6.431  -2.348   7.036  0.00  0.00    +0.106 C 
ATOM     30  N   UNL     1      -7.451  -2.808   7.232  0.00  0.00    -0.191 NA
ENDBRANCH  20  29
TORSDOF 3
