REMARK  Name = ZINC05222223
REMARK  8 active torsions:
REMARK  status: ('A' for Active; 'I' for Inactive)
REMARK    1  A    between atoms: C_1  and  C_2
REMARK    2  A    between atoms: C_2  and  O_3
REMARK    3  A    between atoms: O_3  and  C_4
REMARK    4  A    between atoms: C_4  and  C_6
REMARK    5  A    between atoms: C_9  and  O_27
REMARK    6  A    between atoms: N_13  and  C_20
REMARK    7  A    between atoms: C_14  and  C_15
REMARK    8  A    between atoms: C_15  and  N_57
REMARK                            x       y       z     vdW  Elec       q    Type
REMARK                         _______ _______ _______ _____ _____    ______ ____
ROOT
ATOM      1  C   UNL     1      -2.062   2.199   1.345  0.00  0.00    +0.086 A 
ATOM      2  C   UNL     1      -2.306   2.650   2.728  0.00  0.00    +0.018 A 
ATOM      3  C   UNL     1      -3.443   3.044   3.430  0.00  0.00    +0.057 A 
ATOM      4  C   UNL     1      -3.331   3.426   4.753  0.00  0.00    +0.131 A 
ATOM      5  C   UNL     1      -2.088   3.416   5.382  0.00  0.00    +0.061 A 
ATOM      6  C   UNL     1      -0.959   3.027   4.695  0.00  0.00    +0.045 A 
ATOM      7  C   UNL     1      -1.054   2.640   3.362  0.00  0.00    +0.052 A 
ATOM      8  N   UNL     1      -0.123   2.212   2.435  0.00  0.00    -0.342 N 
ATOM      9  C   UNL     1      -0.723   1.951   1.250  0.00  0.00    +0.018 A 
ATOM     10 BR   UNL     1      -1.950   3.939   7.194  0.00  0.00    -0.046 Br
ENDROOT
BRANCH   8  11
ATOM     11  C   UNL     1       1.310   2.062   2.698  0.00  0.00    +0.087 C 
ATOM     12  C   UNL     1       1.519   1.048   3.824  0.00  0.00    +0.025 C 
ATOM     13  C   UNL     1       3.016   0.891   4.098  0.00  0.00    +0.002 C 
ATOM     14  C   UNL     1       3.603   2.242   4.513  0.00  0.00    +0.000 C 
ATOM     15  C   UNL     1       3.394   3.256   3.386  0.00  0.00    +0.002 C 
ATOM     16  C   UNL     1       1.897   3.413   3.112  0.00  0.00    +0.025 C 
ENDBRANCH   8  11
BRANCH   1  17
ATOM     17  C   UNL     1      -3.061   2.047   0.282  0.00  0.00    +0.341 C 
ATOM     18  O   UNL     1      -3.640   0.986   0.139  0.00  0.00    -0.245 OA
BRANCH  17  19
ATOM     19  O   UNL     1      -3.339   3.082  -0.536  0.00  0.00    -0.461 OA
BRANCH  19  21
ATOM     20  C   UNL     1      -4.517   4.136  -2.389  0.00  0.00    +0.048 C 
ATOM     21  C   UNL     1      -4.338   2.859  -1.566  0.00  0.00    +0.229 C 
ENDBRANCH  19  21
ENDBRANCH  17  19
ENDBRANCH   1  17
BRANCH   4  22
ATOM     22  O   UNL     1      -4.437   3.811   5.444  0.00  0.00    -0.506 OA
ATOM     23  H   UNL     1      -4.891   3.087   5.896  0.00  0.00    +0.292 HD
ENDBRANCH   4  22
BRANCH   9  24
ATOM     24  C   UNL     1      -0.018   1.465   0.010  0.00  0.00    -0.024 C 
BRANCH  24  29
ATOM     25  C   UNL     1      -1.364  -0.556   0.191  0.00  0.00    -0.078 C 
ATOM     26  C   UNL     1      -1.242  -1.999  -0.359  0.00  0.00    -0.020 C 
ATOM     27  C   UNL     1      -0.298  -1.829  -1.571  0.00  0.00    -0.020 C 
ATOM     28  C   UNL     1       0.469  -0.521  -1.303  0.00  0.00    -0.078 C 
ATOM     29  N   UNL     1      -0.005  -0.029  -0.008  0.00  0.00    +0.383 N 
ATOM     30  H   UNL     1       0.612  -0.369   0.739  0.00  0.00    -0.081 HD
ENDBRANCH  24  29
ENDBRANCH   9  24
TORSDOF 7
