REMARK  Name = ZINC40801812
REMARK  8 active torsions:
REMARK  status: ('A' for Active; 'I' for Inactive)
REMARK    1  A    between atoms: C_1  and  C_2
REMARK    2  A    between atoms: C_2  and  O_3
REMARK    3  A    between atoms: O_3  and  C_4
REMARK    4  A    between atoms: C_4  and  C_6
REMARK    5  A    between atoms: C_7  and  C_28
REMARK    6  A    between atoms: C_10  and  N_11
REMARK    7  A    between atoms: C_12  and  C_14
REMARK    8  A    between atoms: C_31  and  C_34
REMARK                            x       y       z     vdW  Elec       q    Type
REMARK                         _______ _______ _______ _____ _____    ______ ____
ROOT
ATOM      1  N   UNL     1       3.744  -2.429   1.401  0.00  0.00    -0.273 N 
ATOM      2  C   UNL     1       5.046  -2.740   1.554  0.00  0.00    +0.284 C 
ATOM      3  O   UNL     1       5.443  -3.199   2.609  0.00  0.00    -0.266 OA
ATOM      4  H   UNL     1       3.428  -2.063   0.560  0.00  0.00    +0.156 HD
ENDROOT
BRANCH   2   5
ATOM      5  C   UNL     1       5.984  -2.526   0.450  0.00  0.00    +0.194 A 
ATOM      6  C   UNL     1       7.321  -2.806   0.480  0.00  0.00    +0.070 A 
ATOM      7  C   UNL     1       7.825  -2.451  -0.773  0.00  0.00    +0.106 A 
ATOM      8  C   UNL     1       9.179  -2.505  -1.347  0.00  0.00    +0.204 A 
ATOM      9  O   UNL     1      10.111  -3.071  -0.804  0.00  0.00    -0.286 OA
ATOM     10  C   UNL     1       9.302  -1.802  -2.651  0.00  0.00    +0.065 A 
ATOM     11  C   UNL     1      10.560  -1.593  -3.215  0.00  0.00    +0.015 A 
ATOM     12  C   UNL     1      10.666  -0.938  -4.422  0.00  0.00    +0.001 A 
ATOM     13  C   UNL     1       9.525  -0.490  -5.071  0.00  0.00    +0.004 A 
ATOM     14  C   UNL     1       8.278  -0.693  -4.524  0.00  0.00    +0.047 A 
ATOM     15  C   UNL     1       8.145  -1.354  -3.304  0.00  0.00    +0.143 A 
ATOM     16  O   UNL     1       6.901  -1.542  -2.801  0.00  0.00    -0.424 OA
ATOM     17  C   UNL     1       6.751  -1.963  -1.534  0.00  0.00    +0.304 A 
ATOM     18  O   UNL     1       5.665  -2.024  -0.768  0.00  0.00    -0.419 OA
ENDBRANCH   2   5
BRANCH   1  23
ATOM     19  C   UNL     1       1.496  -2.370   2.465  0.00  0.00    +0.095 A 
ATOM     20  C   UNL     1       0.793  -2.684   3.698  0.00  0.00    +0.005 A 
ATOM     21  C   UNL     1       1.563  -3.194   4.693  0.00  0.00    +0.056 A 
ATOM     22  S   UNL     1       3.188  -3.244   3.971  0.00  0.00    -0.080 S 
ATOM     23  C   UNL     1       2.857  -2.631   2.445  0.00  0.00    +0.087 A 
BRANCH  20  24
ATOM     24  C   UNL     1      -0.663  -2.461   3.858  0.00  0.00    -0.017 A 
ATOM     25  C   UNL     1      -1.226  -1.233   3.514  0.00  0.00    +0.009 A 
ATOM     26  C   UNL     1      -2.582  -1.032   3.665  0.00  0.00    +0.004 A 
ATOM     27  C   UNL     1      -3.384  -2.046   4.157  0.00  0.00    -0.050 A 
ATOM     28  C   UNL     1      -2.832  -3.267   4.499  0.00  0.00    +0.004 A 
ATOM     29  C   UNL     1      -1.477  -3.482   4.347  0.00  0.00    +0.009 A 
ATOM     30  C   UNL     1      -4.865  -1.820   4.320  0.00  0.00    +0.044 C 
ENDBRANCH  20  24
BRANCH  19  31
ATOM     31  C   UNL     1       0.801  -1.814   1.305  0.00  0.00    +0.342 C 
ATOM     32  O   UNL     1       0.321  -2.557   0.470  0.00  0.00    -0.245 OA
BRANCH  31  33
ATOM     33  O   UNL     1       0.693  -0.477   1.160  0.00  0.00    -0.461 OA
BRANCH  33  35
ATOM     34  C   UNL     1      -0.019   1.526   0.010  0.00  0.00    +0.048 C 
ATOM     35  C   UNL     1       0.002  -0.004   0.002  0.00  0.00    +0.229 C 
ENDBRANCH  33  35
ENDBRANCH  31  33
ENDBRANCH  19  31
ENDBRANCH   1  23
TORSDOF 6
