REMARK  Name = ZINC51550407
REMARK  5 active torsions:
REMARK  status: ('A' for Active; 'I' for Inactive)
REMARK    1  A    between atoms: C_1  and  C_2
REMARK    2  A    between atoms: C_5  and  O_9
REMARK    3  A    between atoms: O_9  and  C_10
REMARK    4  A    between atoms: C_13  and  C_16
REMARK    5  A    between atoms: C_16  and  N_17
REMARK                            x       y       z     vdW  Elec       q    Type
REMARK                         _______ _______ _______ _____ _____    ______ ____
ROOT
ATOM      1  C   UNL     1      -0.044  -4.761  -1.219  0.00  0.00    +0.240 A 
ATOM      2  C   UNL     1      -0.141  -6.149  -1.271  0.00  0.00    +0.071 A 
ATOM      3  C   UNL     1      -0.244  -6.747  -2.518  0.00  0.00    +0.028 A 
ATOM      4  C   UNL     1      -0.244  -5.925  -3.636  0.00  0.00    +0.046 A 
ATOM      5  N   UNL     1      -0.148  -4.618  -3.494  0.00  0.00    -0.153 NA
ATOM      6  N   UNL     1      -0.058  -4.060  -2.341  0.00  0.00    -0.111 NA
ENDROOT
BRANCH   1   7
ATOM      7  O   UNL     1       0.058  -4.130  -0.022  0.00  0.00    -0.436 OA
BRANCH   7  12
ATOM      8  C   UNL     1       0.142   1.503  -0.004  0.00  0.00    +0.044 C 
ATOM      9  C   UNL     1       0.119  -0.004  -0.009  0.00  0.00    -0.049 A 
ATOM     10  C   UNL     1       1.307  -0.713  -0.017  0.00  0.00    +0.007 A 
ATOM     11  C   UNL     1       1.289  -2.094  -0.021  0.00  0.00    +0.048 A 
ATOM     12  C   UNL     1       0.078  -2.771  -0.018  0.00  0.00    +0.144 A 
ATOM     13  C   UNL     1      -1.113  -2.058  -0.009  0.00  0.00    +0.060 A 
ATOM     14  C   UNL     1      -1.089  -0.676   0.000  0.00  0.00    +0.022 A 
ATOM     15 BR   UNL     1      -2.766  -2.976  -0.004  0.00  0.00    -0.046 Br
ENDBRANCH   7  12
ENDBRANCH   1   7
BRANCH   4  16
ATOM     16  C   UNL     1      -0.354  -6.527  -5.014  0.00  0.00    -0.028 C 
BRANCH  16  17
ATOM     17  N   UNL     1      -1.759  -6.519  -5.442  0.00  0.00    +0.382 N 
ATOM     18  H   UNL     1      -1.832  -6.921  -6.364  0.00  0.00    -0.090 HD
ATOM     19  H   UNL     1      -2.311  -7.060  -4.793  0.00  0.00    -0.090 HD
ATOM     20  H   UNL     1      -2.099  -5.569  -5.461  0.00  0.00    -0.090 HD
ENDBRANCH  16  17
ENDBRANCH   4  16
TORSDOF 4
