REMARK  Name = ZINC36576169
REMARK  12 active torsions:
REMARK  status: ('A' for Active; 'I' for Inactive)
REMARK    1  A    between atoms: C_1  and  C_2
REMARK    2  A    between atoms: C_2  and  C_3
REMARK    3  A    between atoms: C_3  and  N_4
REMARK    4  A    between atoms: N_4  and  C_5
REMARK    5  A    between atoms: C_5  and  C_7
REMARK    6  A    between atoms: C_5  and  C_12
REMARK    7  A    between atoms: N_14  and  C_15
REMARK    8  A    between atoms: C_15  and  S_16
REMARK    9  A    between atoms: S_16  and  C_19
REMARK   10  A    between atoms: C_22  and  C_25
REMARK   11  A    between atoms: C_26  and  C_28
REMARK   12  A    between atoms: C_32  and  N_34
REMARK                            x       y       z     vdW  Elec       q    Type
REMARK                         _______ _______ _______ _____ _____    ______ ____
ROOT
ATOM      1  C   UNL     1       1.408  -2.758   0.255  0.00  0.00    +0.228 C 
ENDROOT
BRANCH   1   2
ATOM      2  C   UNL     1       1.249  -2.406  -1.202  0.00  0.00    +0.134 A 
ATOM      3  C   UNL     1       1.163  -3.283  -2.219  0.00  0.00    +0.047 A 
ATOM      4  C   UNL     1       1.022  -2.524  -3.403  0.00  0.00    +0.041 A 
ATOM      5  C   UNL     1       1.031  -1.229  -3.040  0.00  0.00    +0.195 A 
ATOM      6  O   UNL     1       1.162  -1.164  -1.705  0.00  0.00    -0.465 OA
ENDBRANCH   1   2
BRANCH   1   7
ATOM      7  C   UNL     1       2.763  -2.304   0.735  0.00  0.00    +0.242 C 
ATOM      8  O   UNL     1       2.847  -1.503   1.641  0.00  0.00    -0.273 OA
ATOM      9  N   UNL     1       3.880  -2.790   0.159  0.00  0.00    -0.294 N 
ATOM     10  H   UNL     1       3.812  -3.432  -0.566  0.00  0.00    +0.150 HD
BRANCH   9  11
ATOM     11  C   UNL     1       5.196  -2.349   0.626  0.00  0.00    +0.278 C 
BRANCH  11  12
ATOM     12  S   UNL     1       5.832  -3.532   1.846  0.00  0.00    +0.013 S 
ATOM     13  O   UNL     1       7.137  -3.152   2.262  0.00  0.00    -0.168 OA
ATOM     14  O   UNL     1       4.827  -3.837   2.802  0.00  0.00    -0.168 OA
BRANCH  12  15
ATOM     15  C   UNL     1       6.066  -5.029   0.946  0.00  0.00    +0.090 A 
ATOM     16  C   UNL     1       5.036  -5.946   0.850  0.00  0.00    +0.027 A 
ATOM     17  C   UNL     1       5.219  -7.120   0.144  0.00  0.00    +0.005 A 
ATOM     18  C   UNL     1       6.432  -7.377  -0.467  0.00  0.00    -0.050 A 
ATOM     19  C   UNL     1       7.462  -6.460  -0.371  0.00  0.00    +0.005 A 
ATOM     20  C   UNL     1       7.277  -5.284   0.331  0.00  0.00    +0.027 A 
ATOM     21  C   UNL     1       6.632  -8.658  -1.236  0.00  0.00    +0.044 C 
ENDBRANCH  12  15
ENDBRANCH  11  12
ENDBRANCH   9  11
ENDBRANCH   1   7
BRANCH   1  22
ATOM     22  N   UNL     1       0.364  -2.090   1.036  0.00  0.00    -0.279 N 
ATOM     23  C   UNL     1      -0.533  -2.822   1.726  0.00  0.00    +0.248 C 
ATOM     24  O   UNL     1      -1.347  -2.270   2.439  0.00  0.00    -0.270 OA
BRANCH  23  25
ATOM     25  C   UNL     1      -0.526  -4.296   1.615  0.00  0.00    +0.039 A 
ATOM     26  C   UNL     1       0.656  -5.010   1.822  0.00  0.00    +0.013 A 
ATOM     27  C   UNL     1       0.655  -6.385   1.718  0.00  0.00    +0.003 A 
ATOM     28  C   UNL     1      -0.514  -7.058   1.408  0.00  0.00    +0.033 A 
ATOM     29  C   UNL     1      -1.689  -6.357   1.201  0.00  0.00    +0.127 A 
ATOM     30  C   UNL     1      -1.703  -4.981   1.308  0.00  0.00    +0.045 A 
BRANCH  29  31
ATOM     31  N   UNL     1      -2.934  -7.085   0.869  0.00  0.00    +0.056 N 
ATOM     32  O   UNL     1      -2.924  -8.290   0.780  0.00  0.00    -0.126 OA
ATOM     33  O   UNL     1      -3.961  -6.473   0.688  0.00  0.00    -0.126 OA
ENDBRANCH  29  31
ENDBRANCH  23  25
BRANCH  22  34
ATOM     34  C   UNL     1       0.295  -0.627   1.066  0.00  0.00    +0.109 C 
BRANCH  34  36
ATOM     35  C   UNL     1      -0.858   1.379   0.124  0.00  0.00    +0.005 C 
ATOM     36  C   UNL     1      -0.739  -0.144   0.047  0.00  0.00    +0.016 C 
ENDBRANCH  34  36
ENDBRANCH  22  34
ENDBRANCH   1  22
TORSDOF 10
