REMARK  Name = ZINC54085831
REMARK  7 active torsions:
REMARK  status: ('A' for Active; 'I' for Inactive)
REMARK    1  A    between atoms: C_1  and  C_2
REMARK    2  A    between atoms: C_4  and  C_14
REMARK    3  A    between atoms: C_7  and  N_8
REMARK    4  A    between atoms: N_16  and  C_17
REMARK    5  A    between atoms: C_17  and  C_18
REMARK    6  A    between atoms: C_17  and  C_19
REMARK    7  A    between atoms: C_20  and  C_28
REMARK                            x       y       z     vdW  Elec       q    Type
REMARK                         _______ _______ _______ _____ _____    ______ ____
ROOT
ATOM      1  C   UNL     1       0.028  -2.816  -2.482  0.00  0.00    +0.245 C 
ATOM      2  O   UNL     1       0.014  -2.204  -3.533  0.00  0.00    -0.270 OA
ATOM      3  N   UNL     1       0.046  -4.163  -2.487  0.00  0.00    -0.302 N 
ATOM      4  H   UNL     1       0.057  -4.651  -1.649  0.00  0.00    +0.150 HD
ENDROOT
BRANCH   1   8
ATOM      5  C   UNL     1      -0.018   1.503   0.010  0.00  0.00    +0.046 C 
ATOM      6  C   UNL     1       0.002  -0.004   0.002  0.00  0.00    -0.028 A 
ATOM      7  C   UNL     1       0.006  -0.685  -1.194  0.00  0.00    +0.018 A 
ATOM      8  C   UNL     1       0.025  -2.082  -1.201  0.00  0.00    +0.037 A 
ATOM      9  C   UNL     1       0.040  -2.784   0.008  0.00  0.00    +0.015 A 
ATOM     10  C   UNL     1       0.036  -2.097   1.200  0.00  0.00    +0.024 A 
ATOM     11  C   UNL     1       0.023  -0.705   1.203  0.00  0.00    +0.041 A 
BRANCH  11  12
ATOM     12  N   UNL     1       0.025  -0.012   2.413  0.00  0.00    -0.254 N 
ATOM     13  C   UNL     1      -1.171   0.390   3.167  0.00  0.00    +0.134 C 
ATOM     14  C   UNL     1      -0.603   1.112   4.404  0.00  0.00    +0.125 C 
ATOM     15  N   UNL     1       0.854   1.040   4.216  0.00  0.00    -0.297 N 
ATOM     16  C   UNL     1       1.119   0.388   3.076  0.00  0.00    +0.307 C 
ATOM     17  O   UNL     1       2.248   0.180   2.678  0.00  0.00    -0.252 OA
ATOM     18  H   UNL     1       1.518   1.404   4.822  0.00  0.00    +0.150 HD
ENDBRANCH  11  12
ENDBRANCH   1   8
BRANCH   3  19
ATOM     19  C   UNL     1       0.050  -4.891  -3.758  0.00  0.00    +0.137 C 
ATOM     20  C   UNL     1      -1.388  -5.055  -4.256  0.00  0.00    +0.036 C 
BRANCH  19  21
ATOM     21  C   UNL     1       0.670  -6.250  -3.557  0.00  0.00    +0.129 A 
ATOM     22  C   UNL     1       1.578  -6.807  -4.370  0.00  0.00    +0.000 A 
ATOM     23  C   UNL     1       1.896  -8.118  -3.792  0.00  0.00    +0.023 A 
ATOM     24  C   UNL     1       2.747  -9.162  -4.152  0.00  0.00    +0.012 A 
ATOM     25  C   UNL     1       2.811 -10.283  -3.372  0.00  0.00    +0.001 A 
ATOM     26  C   UNL     1       2.035 -10.389  -2.228  0.00  0.00    +0.004 A 
ATOM     27  C   UNL     1       1.187  -9.367  -1.856  0.00  0.00    +0.047 A 
ATOM     28  C   UNL     1       1.107  -8.218  -2.634  0.00  0.00    +0.136 A 
ATOM     29  O   UNL     1       0.397  -7.077  -2.533  0.00  0.00    -0.458 OA
ATOM     30  C   UNL     1       2.156  -6.208  -5.627  0.00  0.00    +0.048 C 
ENDBRANCH  19  21
ENDBRANCH   3  19
TORSDOF 4
