REMARK  Name = ZINC04065657
REMARK  9 active torsions:
REMARK  status: ('A' for Active; 'I' for Inactive)
REMARK    1  A    between atoms: C_1  and  C_2
REMARK    2  A    between atoms: C_3  and  C_31
REMARK    3  A    between atoms: C_4  and  C_21
REMARK    4  A    between atoms: C_10  and  C_15
REMARK    5  A    between atoms: C_23  and  O_29
REMARK    6  A    between atoms: C_24  and  O_28
REMARK    7  A    between atoms: O_29  and  C_30
REMARK    8  A    between atoms: C_31  and  O_33
REMARK    9  A    between atoms: O_33  and  C_34
REMARK                            x       y       z     vdW  Elec       q    Type
REMARK                         _______ _______ _______ _____ _____    ______ ____
ROOT
ATOM      1  C   UNL     1      -2.396   1.162   0.306  0.00  0.00    +0.061 C 
ATOM      2  C   UNL     1      -1.157   2.006   0.152  0.00  0.00    +0.031 C 
ATOM      3  C   UNL     1       0.054   1.424   0.169  0.00  0.00    +0.154 C 
ATOM      4  C   UNL     1       1.308   2.231   0.012  0.00  0.00    +0.074 C 
ATOM      5  C   UNL     1       1.009   3.593  -0.561  0.00  0.00    +0.025 C 
ATOM      6  C   UNL     1      -0.245   4.088  -0.539  0.00  0.00    +0.049 C 
ATOM      7  N   UNL     1      -1.273   3.359  -0.004  0.00  0.00    -0.260 NA
ATOM      8  C   UNL     1      -0.555   5.448  -1.119  0.00  0.00    +0.064 C 
ATOM      9  C   UNL     1       0.664   6.358  -0.969  0.00  0.00    +0.032 C 
ATOM     10  C   UNL     1       1.851   5.704  -1.685  0.00  0.00    +0.088 C 
ATOM     11  C   UNL     1       2.071   4.331  -1.112  0.00  0.00    +0.162 C 
ATOM     12  O   UNL     1       3.188   3.851  -1.124  0.00  0.00    -0.292 OA
ENDROOT
BRANCH   4  13
ATOM     13  C   UNL     1       1.956   2.395   1.362  0.00  0.00    -0.034 A 
ATOM     14  C   UNL     1       3.236   1.918   1.576  0.00  0.00    +0.053 A 
ATOM     15  C   UNL     1       3.834   2.068   2.817  0.00  0.00    +0.163 A 
ATOM     16  C   UNL     1       3.143   2.699   3.847  0.00  0.00    +0.177 A 
ATOM     17  C   UNL     1       1.859   3.175   3.627  0.00  0.00    +0.086 A 
ATOM     18  C   UNL     1       1.271   3.026   2.383  0.00  0.00    +0.028 A 
ATOM     19 CL   UNL     1       0.993   3.962   4.909  0.00  0.00    -0.080 Cl
BRANCH  16  20
ATOM     20  O   UNL     1       3.725   2.850   5.067  0.00  0.00    -0.502 OA
ATOM     21  H   UNL     1       4.225   3.672   5.165  0.00  0.00    +0.292 HD
ENDBRANCH  16  20
BRANCH  15  22
ATOM     22  O   UNL     1       5.093   1.600   3.028  0.00  0.00    -0.491 OA
ATOM     23  C   UNL     1       5.741   0.963   1.926  0.00  0.00    +0.277 C 
ENDBRANCH  15  22
ENDBRANCH   4  13
BRANCH   9  24
ATOM     24  C   UNL     1       0.374   7.700  -1.592  0.00  0.00    -0.044 A 
ATOM     25  C   UNL     1       0.046   7.784  -2.932  0.00  0.00    +0.004 A 
ATOM     26  C   UNL     1      -0.224   9.014  -3.502  0.00  0.00    +0.000 A 
ATOM     27  C   UNL     1      -0.157  10.161  -2.733  0.00  0.00    +0.000 A 
ATOM     28  C   UNL     1       0.176  10.078  -1.394  0.00  0.00    +0.000 A 
ATOM     29  C   UNL     1       0.442   8.847  -0.824  0.00  0.00    +0.004 A 
ENDBRANCH   9  24
BRANCH   3  30
ATOM     30  C   UNL     1       0.148   0.022   0.329  0.00  0.00    +0.317 C 
ATOM     31  O   UNL     1       0.431  -0.682  -0.622  0.00  0.00    -0.250 OA
BRANCH  30  32
ATOM     32  O   UNL     1      -0.077  -0.536   1.537  0.00  0.00    -0.461 OA
BRANCH  32  33
ATOM     33  C   UNL     1       0.035  -1.958   1.626  0.00  0.00    +0.176 C 
ATOM     34  C   UNL     1      -1.326  -2.595   1.337  0.00  0.00    +0.044 C 
ATOM     35  C   UNL     1      -1.206  -4.118   1.433  0.00  0.00    +0.004 C 
ATOM     36  C   UNL     1      -0.750  -4.506   2.840  0.00  0.00    +0.000 C 
ATOM     37  C   UNL     1       0.611  -3.869   3.129  0.00  0.00    +0.004 C 
ATOM     38  C   UNL     1       0.491  -2.346   3.034  0.00  0.00    +0.044 C 
ENDBRANCH  32  33
ENDBRANCH  30  32
ENDBRANCH   3  30
TORSDOF 7
