REMARK  Name = ZINC44901965
REMARK  8 active torsions:
REMARK  status: ('A' for Active; 'I' for Inactive)
REMARK    1  A    between atoms: C_1  and  C_2
REMARK    2  A    between atoms: C_5  and  C_9
REMARK    3  A    between atoms: C_6  and  C_8
REMARK    4  A    between atoms: C_9  and  C_11
REMARK    5  A    between atoms: C_9  and  N_12
REMARK    6  A    between atoms: C_13  and  C_15
REMARK    7  A    between atoms: N_18  and  S_26
REMARK    8  A    between atoms: S_26  and  C_29
REMARK                            x       y       z     vdW  Elec       q    Type
REMARK                         _______ _______ _______ _____ _____    ______ ____
ROOT
ATOM      1  C   UNL     1      -1.668  -6.611  -2.741  0.00  0.00    +0.277 C 
ATOM      2  C   UNL     1      -2.725  -5.559  -3.107  0.00  0.00    +0.186 C 
ATOM      3  N   UNL     1      -3.495  -6.081  -4.249  0.00  0.00    -0.195 N 
ATOM      4  C   UNL     1      -3.859  -7.437  -4.226  0.00  0.00    +0.093 A 
ATOM      5  C   UNL     1      -4.812  -7.916  -5.111  0.00  0.00    +0.028 A 
ATOM      6  C   UNL     1      -5.165  -9.252  -5.087  0.00  0.00    +0.002 A 
ATOM      7  C   UNL     1      -4.568 -10.110  -4.181  0.00  0.00    +0.004 A 
ATOM      8  C   UNL     1      -3.618  -9.637  -3.295  0.00  0.00    +0.047 A 
ATOM      9  C   UNL     1      -3.259  -8.298  -3.311  0.00  0.00    +0.144 A 
ATOM     10  O   UNL     1      -2.327  -7.842  -2.432  0.00  0.00    -0.476 OA
ENDROOT
BRANCH   1  12
ATOM     11  N   UNL     1      -0.105  -5.048  -1.631  0.00  0.00    -0.306 N 
ATOM     12  C   UNL     1      -0.885  -6.143  -1.541  0.00  0.00    +0.256 C 
ATOM     13  O   UNL     1      -0.957  -6.752  -0.495  0.00  0.00    -0.272 OA
ATOM     14  H   UNL     1      -0.047  -4.561  -2.468  0.00  0.00    +0.149 HD
BRANCH  11  15
ATOM     15  C   UNL     1       0.657  -4.593  -0.465  0.00  0.00    +0.100 C 
ATOM     16  C   UNL     1       2.020  -5.286  -0.445  0.00  0.00    +0.033 C 
BRANCH  15  21
ATOM     17  C   UNL     1       1.406   1.129  -0.769  0.00  0.00    +0.044 C 
ATOM     18  C   UNL     1       1.211  -0.363  -0.690  0.00  0.00    -0.050 A 
ATOM     19  C   UNL     1       1.046  -1.101  -1.847  0.00  0.00    +0.004 A 
ATOM     20  C   UNL     1       0.867  -2.470  -1.775  0.00  0.00    +0.006 A 
ATOM     21  C   UNL     1       0.853  -3.101  -0.544  0.00  0.00    -0.025 A 
ATOM     22  C   UNL     1       1.018  -2.363   0.613  0.00  0.00    -0.045 A 
ATOM     23  C   UNL     1       1.201  -0.995   0.540  0.00  0.00    +0.007 A 
ATOM     24  C   UNL     1       1.002  -3.051   1.953  0.00  0.00    +0.044 C 
ENDBRANCH  15  21
ENDBRANCH  11  15
ENDBRANCH   1  12
BRANCH   3  25
ATOM     25  S   UNL     1      -3.917  -5.103  -5.517  0.00  0.00    +0.075 S 
ATOM     26  O   UNL     1      -3.048  -3.979  -5.470  0.00  0.00    -0.150 OA
ATOM     27  O   UNL     1      -4.018  -5.940  -6.660  0.00  0.00    -0.150 OA
BRANCH  25  28
ATOM     28  C   UNL     1      -5.539  -4.498  -5.191  0.00  0.00    +0.109 A 
ATOM     29  C   UNL     1      -6.642  -5.206  -5.630  0.00  0.00    +0.030 A 
ATOM     30  C   UNL     1      -7.915  -4.732  -5.374  0.00  0.00    +0.022 A 
ATOM     31  C   UNL     1      -8.085  -3.548  -4.678  0.00  0.00    +0.041 A 
ATOM     32  C   UNL     1      -6.981  -2.840  -4.239  0.00  0.00    +0.022 A 
ATOM     33  C   UNL     1      -5.709  -3.318  -4.490  0.00  0.00    +0.030 A 
ATOM     34 CL   UNL     1      -9.684  -2.952  -4.357  0.00  0.00    -0.084 Cl
ENDBRANCH  25  28
ENDBRANCH   3  25
TORSDOF 5
