REMARK  Name = ZINC09432729
REMARK  11 active torsions:
REMARK  status: ('A' for Active; 'I' for Inactive)
REMARK    1  A    between atoms: C_1  and  C_2
REMARK    2  A    between atoms: C_6  and  C_8
REMARK    3  A    between atoms: C_8  and  N_75
REMARK    4  A    between atoms: C_11  and  C_14
REMARK    5  A    between atoms: C_14  and  N_15
REMARK    6  A    between atoms: C_16  and  C_18
REMARK    7  A    between atoms: N_28  and  C_36
REMARK    8  A    between atoms: C_29  and  C_31
REMARK    9  A    between atoms: C_36  and  C_37
REMARK   10  A    between atoms: C_37  and  O_38
REMARK   11  A    between atoms: O_38  and  C_39
REMARK                            x       y       z     vdW  Elec       q    Type
REMARK                         _______ _______ _______ _____ _____    ______ ____
ROOT
ATOM      1  N   UNL     1       0.227   9.030   5.283  0.00  0.00    -0.314 N 
ATOM      2  C   UNL     1       0.531  10.335   5.136  0.00  0.00    +0.223 C 
ATOM      3  O   UNL     1       1.685  10.701   5.221  0.00  0.00    -0.275 OA
ATOM      4  H   UNL     1      -0.696   8.737   5.216  0.00  0.00    +0.149 HD
ENDROOT
BRANCH   2   5
ATOM      5  C   UNL     1      -0.560  11.338   4.866  0.00  0.00    +0.131 C 
ATOM      6  C   UNL     1      -1.262  10.979   3.582  0.00  0.00    -0.021 A 
ATOM      7  C   UNL     1      -2.393  10.192   3.595  0.00  0.00    +0.005 A 
ATOM      8  C   UNL     1      -3.018   9.859   2.406  0.00  0.00    +0.000 A 
ATOM      9  C   UNL     1      -2.513  10.311   1.199  0.00  0.00    +0.001 A 
ATOM     10  C   UNL     1      -1.383  11.104   1.173  0.00  0.00    +0.013 A 
ATOM     11  C   UNL     1      -0.756  11.448   2.369  0.00  0.00    +0.041 A 
ATOM     12  C   UNL     1       0.433  12.326   2.378  0.00  0.00    +0.247 C 
ATOM     13  O   UNL     1       1.030  12.562   1.346  0.00  0.00    -0.270 OA
ATOM     14  N   UNL     1       0.848  12.863   3.541  0.00  0.00    -0.287 N 
ATOM     15  C   UNL     1       0.050  12.733   4.758  0.00  0.00    +0.129 C 
BRANCH  15  16
ATOM     16  C   UNL     1      -1.056  13.756   4.737  0.00  0.00    +0.011 A 
ATOM     17  C   UNL     1      -1.520  14.533   5.746  0.00  0.00    +0.013 A 
ATOM     18  C   UNL     1      -2.556  15.413   5.493  0.00  0.00    +0.008 A 
ATOM     19  C   UNL     1      -3.076  15.473   4.243  0.00  0.00    +0.045 A 
ATOM     20  S   UNL     1      -2.089  14.266   3.373  0.00  0.00    -0.100 S 
ENDBRANCH  15  16
BRANCH  14  21
ATOM     21  C   UNL     1       2.120  13.588   3.587  0.00  0.00    +0.137 C 
BRANCH  21  22
ATOM     22  C   UNL     1       1.875  15.068   3.283  0.00  0.00    +0.178 C 
BRANCH  22  23
ATOM     23  O   UNL     1       1.075  15.641   4.319  0.00  0.00    -0.381 OA
ATOM     24  C   UNL     1       0.786  17.027   4.131  0.00  0.00    +0.194 C 
ENDBRANCH  22  23
ENDBRANCH  21  22
ENDBRANCH  14  21
ENDBRANCH   2   5
BRANCH   1  25
ATOM     25  C   UNL     1       1.288   8.055   5.546  0.00  0.00    +0.107 C 
BRANCH  25  28
ATOM     26  C   UNL     1      -0.478   4.818   4.439  0.00  0.00    -0.078 C 
ATOM     27  C   UNL     1       0.077   6.240   4.325  0.00  0.00    -0.014 C 
ATOM     28  C   UNL     1       0.677   6.657   5.670  0.00  0.00    +0.003 C 
ATOM     29  C   UNL     1       1.766   5.657   6.068  0.00  0.00    -0.014 C 
ATOM     30  C   UNL     1       1.162   4.252   6.131  0.00  0.00    -0.078 C 
ATOM     31  N   UNL     1       0.623   3.900   4.800  0.00  0.00    +0.382 N 
ATOM     32  H   UNL     1       1.373   3.990   4.104  0.00  0.00    -0.081 HD
BRANCH  31  33
ATOM     33  C   UNL     1       0.137   2.505   4.805  0.00  0.00    -0.043 C 
BRANCH  33  39
ATOM     34  C   UNL     1      -0.013   1.086   0.008  0.00  0.00    +0.044 C 
ATOM     35  C   UNL     1      -0.718   1.572   1.248  0.00  0.00    -0.050 A 
ATOM     36  C   UNL     1      -2.083   1.789   1.226  0.00  0.00    +0.003 A 
ATOM     37  C   UNL     1      -2.731   2.231   2.365  0.00  0.00    +0.000 A 
ATOM     38  C   UNL     1      -2.012   2.464   3.522  0.00  0.00    +0.002 A 
ATOM     39  C   UNL     1      -0.646   2.251   3.543  0.00  0.00    -0.064 A 
ATOM     40  C   UNL     1       0.001   1.806   2.405  0.00  0.00    +0.005 A 
ENDBRANCH  33  39
ENDBRANCH  31  33
ENDBRANCH  25  28
ENDBRANCH   1  25
TORSDOF 9
