REMARK  Name = ZINC35769669
REMARK  11 active torsions:
REMARK  status: ('A' for Active; 'I' for Inactive)
REMARK    1  A    between atoms: C_1  and  C_2
REMARK    2  A    between atoms: C_2  and  C_3
REMARK    3  A    between atoms: C_2  and  C_4
REMARK    4  A    between atoms: C_2  and  N_5
REMARK    5  A    between atoms: C_6  and  C_8
REMARK    6  A    between atoms: C_8  and  N_9
REMARK    7  A    between atoms: C_15  and  C_17
REMARK    8  A    between atoms: C_17  and  S_18
REMARK    9  A    between atoms: S_18  and  C_19
REMARK   10  A    between atoms: C_22  and  C_30
REMARK   11  A    between atoms: N_23  and  C_24
REMARK                            x       y       z     vdW  Elec       q    Type
REMARK                         _______ _______ _______ _____ _____    ______ ____
ROOT
ATOM      1  C   UNL     1       8.723  -0.644  -4.336  0.00  0.00    +0.173 C 
ENDROOT
BRANCH   1   8
ATOM      2  N   UNL     1       4.055  -0.110  -2.677  0.00  0.00    -0.291 NA
ATOM      3  C   UNL     1       4.837  -0.684  -1.574  0.00  0.00    +0.104 C 
ATOM      4  C   UNL     1       6.205   0.003  -1.510  0.00  0.00    +0.123 C 
ATOM      5  N   UNL     1       6.837  -0.090  -2.834  0.00  0.00    -0.298 N 
ATOM      6  C   UNL     1       6.061   0.340  -4.008  0.00  0.00    +0.123 C 
ATOM      7  C   UNL     1       4.699  -0.361  -3.974  0.00  0.00    +0.104 C 
ATOM      8  C   UNL     1       8.094  -0.557  -2.969  0.00  0.00    +0.226 C 
ATOM      9  O   UNL     1       8.720  -0.907  -1.991  0.00  0.00    -0.275 OA
BRANCH   2  10
ATOM     10  C   UNL     1       2.677  -0.618  -2.667  0.00  0.00    +0.180 C 
BRANCH  10  12
ATOM     11  N   UNL     1       0.688  -0.476  -1.203  0.00  0.00    -0.310 N 
ATOM     12  C   UNL     1       1.972  -0.132  -1.427  0.00  0.00    +0.227 C 
ATOM     13  O   UNL     1       2.559   0.569  -0.630  0.00  0.00    -0.274 OA
ATOM     14  H   UNL     1       0.218  -1.037  -1.840  0.00  0.00    +0.149 HD
BRANCH  11  16
ATOM     15  C   UNL     1      -0.019   1.526   0.010  0.00  0.00    +0.031 C 
ATOM     16  C   UNL     1       0.002  -0.004   0.002  0.00  0.00    +0.026 C 
ATOM     17  C   UNL     1       0.742  -0.511   1.242  0.00  0.00    +0.031 C 
ATOM     18  C   UNL     1      -1.433  -0.534   0.013  0.00  0.00    +0.031 C 
ENDBRANCH  11  16
ENDBRANCH  10  12
ENDBRANCH   2  10
ENDBRANCH   1   8
BRANCH   1  19
ATOM     19  S   UNL     1      10.405  -1.305  -4.187  0.00  0.00    -0.077 S 
BRANCH  19  20
ATOM     20  C   UNL     1      10.997  -1.345  -5.846  0.00  0.00    +0.193 A 
ATOM     21  N   UNL     1      10.337  -0.965  -6.917  0.00  0.00    -0.122 NA
ATOM     22  N   UNL     1      11.064  -1.128  -7.965  0.00  0.00    -0.125 NA
ATOM     23  C   UNL     1      12.235  -1.622  -7.627  0.00  0.00    +0.201 A 
ATOM     24  N   UNL     1      12.229  -1.771  -6.257  0.00  0.00    -0.297 N 
BRANCH  24  25
ATOM     25  C   UNL     1      13.315  -2.282  -5.418  0.00  0.00    +0.091 C 
ATOM     26  C   UNL     1      12.838  -3.529  -4.670  0.00  0.00    +0.025 C 
ATOM     27  C   UNL     1      13.973  -4.063  -3.793  0.00  0.00    +0.002 C 
ATOM     28  C   UNL     1      14.385  -2.989  -2.784  0.00  0.00    +0.000 C 
ATOM     29  C   UNL     1      14.861  -1.742  -3.531  0.00  0.00    +0.002 C 
ATOM     30  C   UNL     1      13.727  -1.209  -4.408  0.00  0.00    +0.025 C 
ENDBRANCH  24  25
BRANCH  23  31
ATOM     31  C   UNL     1      13.342  -1.949  -8.538  0.00  0.00    +0.172 A 
ATOM     32  C   UNL     1      13.465  -1.534  -9.830  0.00  0.00    +0.053 A 
ATOM     33  C   UNL     1      14.669  -2.078 -10.318  0.00  0.00    +0.042 A 
ATOM     34  C   UNL     1      15.217  -2.790  -9.314  0.00  0.00    +0.196 A 
ATOM     35  O   UNL     1      14.416  -2.706  -8.238  0.00  0.00    -0.460 OA
ENDBRANCH  23  31
ENDBRANCH  19  20
ENDBRANCH   1  19
TORSDOF 8
