REMARK  Name = ZINC40373997
REMARK  8 active torsions:
REMARK  status: ('A' for Active; 'I' for Inactive)
REMARK    1  A    between atoms: C_4  and  N_30
REMARK    2  A    between atoms: C_5  and  C_7
REMARK    3  A    between atoms: C_9  and  C_28
REMARK    4  A    between atoms: C_10  and  N_12
REMARK    5  A    between atoms: N_12  and  C_13
REMARK    6  A    between atoms: C_13  and  C_14
REMARK    7  A    between atoms: C_14  and  C_16
REMARK    8  A    between atoms: C_14  and  N_23
REMARK                            x       y       z     vdW  Elec       q    Type
REMARK                         _______ _______ _______ _____ _____    ______ ____
ROOT
ATOM      1  N   UNL     1      -1.787  -4.258  -1.384  0.00  0.00    -0.314 N 
ATOM      2  H   UNL     1      -2.294  -4.555  -2.155  0.00  0.00    +0.149 HD
ENDROOT
BRANCH   1   6
ATOM      3  C   UNL     1       0.127  -1.348  -0.874  0.00  0.00    +0.233 A 
ATOM      4  N   UNL     1      -0.278  -1.130  -2.098  0.00  0.00    -0.196 NA
ATOM      5  C   UNL     1      -1.055  -2.174  -2.490  0.00  0.00    +0.201 A 
ATOM      6  C   UNL     1      -1.108  -3.060  -1.424  0.00  0.00    +0.225 A 
ATOM      7  O   UNL     1      -0.363  -2.525  -0.440  0.00  0.00    -0.420 OA
BRANCH   3  12
ATOM      8  C   UNL     1       3.059   0.754   0.168  0.00  0.00    +0.001 A 
ATOM      9  C   UNL     1       2.617   1.250   1.382  0.00  0.00    +0.002 A 
ATOM     10  C   UNL     1       1.367   0.903   1.864  0.00  0.00    +0.033 A 
ATOM     11  C   UNL     1       0.553   0.060   1.136  0.00  0.00    +0.138 A 
ATOM     12  C   UNL     1       0.993  -0.444  -0.089  0.00  0.00    +0.067 A 
ATOM     13  C   UNL     1       2.255  -0.090  -0.570  0.00  0.00    +0.015 A 
BRANCH  11  14
ATOM     14  N   UNL     1      -0.784  -0.310   1.654  0.00  0.00    +0.057 N 
ATOM     15  O   UNL     1      -1.138   0.076   2.744  0.00  0.00    -0.126 OA
ATOM     16  O   UNL     1      -1.521  -0.998   0.987  0.00  0.00    -0.126 OA
ENDBRANCH  11  14
ENDBRANCH   3  12
BRANCH   5  17
ATOM     17  C   UNL     1      -1.697  -2.330  -3.761  0.00  0.00    +0.124 C 
ATOM     18  N   UNL     1      -2.206  -2.453  -4.769  0.00  0.00    -0.189 NA
ENDBRANCH   5  17
ENDBRANCH   1   6
BRANCH   1  19
ATOM     19  C   UNL     1      -1.743  -5.084  -0.175  0.00  0.00    +0.094 C 
BRANCH  19  20
ATOM     20  C   UNL     1      -2.464  -6.408  -0.435  0.00  0.00    -0.019 C 
BRANCH  20  21
ATOM     21  C   UNL     1      -3.931  -6.145  -0.660  0.00  0.00    -0.041 A 
ATOM     22  C   UNL     1      -4.438  -6.115  -1.946  0.00  0.00    +0.003 A 
ATOM     23  C   UNL     1      -5.783  -5.873  -2.153  0.00  0.00    +0.000 A 
ATOM     24  C   UNL     1      -6.622  -5.662  -1.075  0.00  0.00    +0.001 A 
ATOM     25  C   UNL     1      -6.116  -5.692   0.211  0.00  0.00    +0.020 A 
ATOM     26  C   UNL     1      -4.771  -5.939   0.419  0.00  0.00    +0.043 A 
ATOM     27 CL   UNL     1      -4.136  -5.983   2.034  0.00  0.00    -0.083 Cl
ENDBRANCH  20  21
BRANCH  20  28
ATOM     28  N   UNL     1      -1.893  -7.051  -1.626  0.00  0.00    +0.385 N 
ATOM     29  C   UNL     1      -0.445  -7.309  -1.424  0.00  0.00    -0.078 C 
ATOM     30  C   UNL     1      -0.140  -8.436  -2.442  0.00  0.00    -0.020 C 
ATOM     31  C   UNL     1      -1.415  -9.307  -2.386  0.00  0.00    -0.020 C 
ATOM     32  C   UNL     1      -2.513  -8.377  -1.836  0.00  0.00    -0.078 C 
ATOM     33  H   UNL     1      -2.034  -6.469  -2.438  0.00  0.00    -0.081 HD
ENDBRANCH  20  28
ENDBRANCH  19  20
ENDBRANCH   1  19
TORSDOF 8
