REMARK  Name = ZINC01249974
REMARK  9 active torsions:
REMARK  status: ('A' for Active; 'I' for Inactive)
REMARK    1  A    between atoms: C_1  and  O_2
REMARK    2  A    between atoms: O_2  and  C_3
REMARK    3  A    between atoms: C_5  and  C_13
REMARK    4  A    between atoms: C_7  and  O_11
REMARK    5  A    between atoms: C_8  and  O_9
REMARK    6  A    between atoms: O_9  and  C_10
REMARK    7  A    between atoms: O_11  and  C_12
REMARK    8  A    between atoms: C_25  and  C_27
REMARK    9  A    between atoms: C_35  and  C_38
REMARK                            x       y       z     vdW  Elec       q    Type
REMARK                         _______ _______ _______ _____ _____    ______ ____
ROOT
ATOM      1  C   UNL     1      -3.650   1.891   3.659  0.00  0.00    +0.252 C 
ATOM      2  O   UNL     1      -4.599   2.211   2.969  0.00  0.00    -0.270 OA
ATOM      3  N   UNL     1      -2.426   2.390   3.395  0.00  0.00    -0.253 N 
ATOM      4  C   UNL     1      -1.367   2.099   4.254  0.00  0.00    +0.059 A 
ATOM      5  C   UNL     1      -1.351   2.551   5.564  0.00  0.00    +0.025 A 
ATOM      6  C   UNL     1      -0.258   2.276   6.366  0.00  0.00    +0.002 A 
ATOM      7  C   UNL     1       0.814   1.558   5.866  0.00  0.00    +0.002 A 
ATOM      8  C   UNL     1       0.795   1.090   4.563  0.00  0.00    +0.025 A 
ATOM      9  C   UNL     1      -0.308   1.347   3.767  0.00  0.00    +0.053 A 
ATOM     10  N   UNL     1      -0.439   0.818   2.488  0.00  0.00    -0.316 N 
ATOM     11  C   UNL     1      -0.523   1.554   1.349  0.00  0.00    +0.017 C 
ATOM     12  C   UNL     1      -1.313   2.626   1.184  0.00  0.00    +0.038 C 
ATOM     13  C   UNL     1      -2.233   3.219   2.224  0.00  0.00    +0.153 C 
ATOM     14  C   UNL     1      -1.330   3.315  -0.053  0.00  0.00    +0.163 C 
ATOM     15  O   UNL     1      -2.038   4.296  -0.167  0.00  0.00    -0.292 OA
ATOM     16  C   UNL     1      -0.506   2.878  -1.226  0.00  0.00    +0.088 C 
ATOM     17  C   UNL     1      -0.281   1.364  -1.127  0.00  0.00    +0.032 C 
ATOM     18  C   UNL     1       0.380   1.081   0.221  0.00  0.00    +0.059 C 
ATOM     19  H   UNL     1      -0.481  -0.272   2.346  0.00  0.00    +0.152 HD
ENDROOT
BRANCH  17  20
ATOM     20  C   UNL     1       0.621   0.906  -2.244  0.00  0.00    -0.043 A 
ATOM     21  C   UNL     1       1.884   1.452  -2.380  0.00  0.00    +0.007 A 
ATOM     22  C   UNL     1       2.714   1.030  -3.401  0.00  0.00    +0.038 A 
ATOM     23  C   UNL     1       2.276   0.067  -4.294  0.00  0.00    +0.123 A 
ATOM     24  C   UNL     1       1.009  -0.475  -4.160  0.00  0.00    +0.038 A 
ATOM     25  C   UNL     1       0.183  -0.055  -3.135  0.00  0.00    +0.007 A 
ATOM     26  F   UNL     1       3.085  -0.343  -5.296  0.00  0.00    -0.205 F 
ENDBRANCH  17  20
BRANCH   1  29
ATOM     27  C   UNL     1      -5.204   0.095   6.570  0.00  0.00    +0.166 A 
ATOM     28  C   UNL     1      -5.030   0.971   5.515  0.00  0.00    +0.062 A 
ATOM     29  C   UNL     1      -3.838   0.957   4.786  0.00  0.00    +0.044 A 
ATOM     30  C   UNL     1      -2.828   0.053   5.122  0.00  0.00    +0.062 A 
ATOM     31  C   UNL     1      -3.005  -0.818   6.181  0.00  0.00    +0.166 A 
ATOM     32  C   UNL     1      -4.193  -0.801   6.906  0.00  0.00    +0.204 A 
BRANCH  27  34
ATOM     33  C   UNL     1      -7.358   1.054   6.881  0.00  0.00    +0.277 C 
ATOM     34  O   UNL     1      -6.364   0.109   7.280  0.00  0.00    -0.491 OA
ENDBRANCH  27  34
BRANCH  32  35
ATOM     35  O   UNL     1      -4.367  -1.662   7.944  0.00  0.00    -0.488 OA
ATOM     36  C   UNL     1      -4.947  -2.932   7.643  0.00  0.00    +0.277 C 
ENDBRANCH  32  35
BRANCH  31  37
ATOM     37  O   UNL     1      -2.019  -1.695   6.511  0.00  0.00    -0.491 OA
ATOM     38  C   UNL     1      -0.784  -1.580   5.803  0.00  0.00    +0.277 C 
ENDBRANCH  31  37
ENDBRANCH   1  29
BRANCH  13  39
ATOM     39  C   UNL     1      -1.666   4.544   2.665  0.00  0.00    +0.015 A 
ATOM     40  C   UNL     1      -2.018   5.795   2.278  0.00  0.00    +0.013 A 
ATOM     41  C   UNL     1      -1.354   6.877   2.824  0.00  0.00    +0.008 A 
ATOM     42  C   UNL     1      -0.364   6.656   3.723  0.00  0.00    +0.045 A 
ATOM     43  S   UNL     1      -0.351   4.873   3.826  0.00  0.00    -0.099 S 
ENDBRANCH  13  39
TORSDOF 6
