REMARK  Name = ZINC57642195
REMARK  13 active torsions:
REMARK  status: ('A' for Active; 'I' for Inactive)
REMARK    1  A    between atoms: C_1  and  C_2
REMARK    2  A    between atoms: C_2  and  C_3
REMARK    3  A    between atoms: C_3  and  C_5
REMARK    4  A    between atoms: C_3  and  N_15
REMARK    5  A    between atoms: N_9  and  C_10
REMARK    6  A    between atoms: N_15  and  C_16
REMARK    7  A    between atoms: N_15  and  C_25
REMARK    8  A    between atoms: C_16  and  C_17
REMARK    9  A    between atoms: C_20  and  O_23
REMARK   10  A    between atoms: O_23  and  C_24
REMARK   11  A    between atoms: C_25  and  C_26
REMARK   12  A    between atoms: C_29  and  C_39
REMARK   13  A    between atoms: C_32  and  C_38
REMARK                            x       y       z     vdW  Elec       q    Type
REMARK                         _______ _______ _______ _____ _____    ______ ____
ROOT
ATOM      1  N   UNL     1      -0.796   0.057   2.188  0.00  0.00    -0.284 NA
ENDROOT
BRANCH   1   2
ATOM      2  C   UNL     1       0.630  -0.051   1.850  0.00  0.00    +0.127 C 
BRANCH   2   3
ATOM      3  C   UNL     1       1.250  -1.176   2.638  0.00  0.00    +0.169 A 
ATOM      4  N   UNL     1       0.636  -2.239   3.099  0.00  0.00    -0.112 NA
ATOM      5  N   UNL     1       1.505  -2.963   3.716  0.00  0.00    -0.023 NA
ATOM      6  N   UNL     1       2.657  -2.390   3.660  0.00  0.00    -0.044 NA
ATOM      7  N   UNL     1       2.541  -1.288   2.999  0.00  0.00    -0.225 N 
BRANCH   7   8
ATOM      8  C   UNL     1       3.614  -0.336   2.700  0.00  0.00    +0.111 C 
ATOM      9  C   UNL     1       4.752  -1.045   1.937  0.00  0.00    +0.027 C 
ATOM     10  C   UNL     1       6.044  -0.395   2.491  0.00  0.00    +0.002 C 
ATOM     11  C   UNL     1       5.715  -0.209   3.993  0.00  0.00    +0.002 C 
ATOM     12  C   UNL     1       4.226   0.195   4.008  0.00  0.00    +0.027 C 
ENDBRANCH   7   8
ENDBRANCH   2   3
BRANCH   2  14
ATOM     13  C   UNL     1       0.242   0.856  -0.446  0.00  0.00    +0.006 C 
ATOM     14  C   UNL     1       0.779  -0.334   0.353  0.00  0.00    +0.023 C 
ENDBRANCH   2  14
ENDBRANCH   1   2
BRANCH   1  15
ATOM     15  C   UNL     1      -0.978   0.320   3.622  0.00  0.00    +0.120 C 
BRANCH  15  16
ATOM     16  C   UNL     1      -0.426   1.682   3.956  0.00  0.00    -0.033 A 
ATOM     17  C   UNL     1       0.898   1.817   4.330  0.00  0.00    +0.008 A 
ATOM     18  C   UNL     1       1.407   3.064   4.638  0.00  0.00    +0.046 A 
ATOM     19  C   UNL     1       0.587   4.182   4.571  0.00  0.00    +0.120 A 
ATOM     20  C   UNL     1      -0.741   4.043   4.196  0.00  0.00    +0.046 A 
ATOM     21  C   UNL     1      -1.243   2.795   3.884  0.00  0.00    +0.008 A 
BRANCH  19  22
ATOM     22  O   UNL     1       1.085   5.410   4.874  0.00  0.00    -0.495 OA
ATOM     23  C   UNL     1       0.183   6.515   4.784  0.00  0.00    +0.277 C 
ENDBRANCH  19  22
ENDBRANCH  15  16
ENDBRANCH   1  15
BRANCH   1  24
ATOM     24  C   UNL     1      -1.527  -1.149   1.777  0.00  0.00    +0.126 C 
BRANCH  24  25
ATOM     25  C   UNL     1      -1.984  -0.998   0.350  0.00  0.00    +0.032 A 
ATOM     26  C   UNL     1      -1.586  -1.894  -0.587  0.00  0.00    +0.020 A 
ATOM     27  C   UNL     1      -2.048  -1.718  -1.964  0.00  0.00    +0.002 A 
ATOM     28  C   UNL     1      -1.671  -2.611  -2.974  0.00  0.00    -0.041 A 
ATOM     29  C   UNL     1      -2.119  -2.420  -4.249  0.00  0.00    +0.004 A 
ATOM     30  C   UNL     1      -2.947  -1.347  -4.554  0.00  0.00    +0.005 A 
ATOM     31  C   UNL     1      -3.331  -0.455  -3.576  0.00  0.00    -0.026 A 
ATOM     32  C   UNL     1      -2.887  -0.630  -2.269  0.00  0.00    +0.052 A 
ATOM     33  N   UNL     1      -3.256   0.246  -1.271  0.00  0.00    -0.322 N 
ATOM     34  H   UNL     1      -3.835   0.996  -1.483  0.00  0.00    +0.169 HD
ATOM     35  C   UNL     1      -2.831   0.074  -0.007  0.00  0.00    +0.254 A 
ATOM     36  O   UNL     1      -3.182   0.865   0.851  0.00  0.00    -0.268 OA
ATOM     37  C   UNL     1      -4.229   0.705  -3.921  0.00  0.00    +0.046 C 
ATOM     38  C   UNL     1      -0.772  -3.778  -2.654  0.00  0.00    +0.044 C 
ENDBRANCH  24  25
ENDBRANCH   1  24
TORSDOF 9
