REMARK  Name = ZINC36585987
REMARK  13 active torsions:
REMARK  status: ('A' for Active; 'I' for Inactive)
REMARK    1  A    between atoms: C_1  and  C_2
REMARK    2  A    between atoms: C_2  and  C_3
REMARK    3  A    between atoms: C_2  and  C_4
REMARK    4  A    between atoms: C_2  and  N_5
REMARK    5  A    between atoms: N_5  and  C_6
REMARK    6  A    between atoms: C_6  and  C_8
REMARK    7  A    between atoms: C_6  and  C_17
REMARK    8  A    between atoms: C_11  and  N_14
REMARK    9  A    between atoms: N_14  and  C_15
REMARK   10  A    between atoms: N_14  and  C_16
REMARK   11  A    between atoms: N_19  and  C_20
REMARK   12  A    between atoms: C_26  and  C_28
REMARK   13  A    between atoms: C_30  and  N_35
REMARK                            x       y       z     vdW  Elec       q    Type
REMARK                         _______ _______ _______ _____ _____    ______ ____
ROOT
ATOM      1  C   UNL     1       1.343  -1.520   0.262  0.00  0.00    +0.193 C 
ENDROOT
BRANCH   1   2
ATOM      2  C   UNL     1       1.676  -2.818   0.952  0.00  0.00    -0.018 A 
ATOM      3  C   UNL     1       0.673  -3.557   1.552  0.00  0.00    +0.008 A 
ATOM      4  C   UNL     1       0.975  -4.747   2.185  0.00  0.00    +0.023 A 
ATOM      5  C   UNL     1       2.287  -5.201   2.219  0.00  0.00    +0.029 A 
ATOM      6  C   UNL     1       3.292  -4.456   1.615  0.00  0.00    +0.023 A 
ATOM      7  C   UNL     1       2.983  -3.270   0.979  0.00  0.00    +0.008 A 
BRANCH   5   8
ATOM      8  N   UNL     1       2.595  -6.404   2.858  0.00  0.00    -0.336 N 
ATOM      9  C   UNL     1       1.534  -7.188   3.495  0.00  0.00    +0.129 C 
ATOM     10  C   UNL     1       3.980  -6.881   2.893  0.00  0.00    +0.129 C 
ENDBRANCH   5   8
ENDBRANCH   1   2
BRANCH   1  11
ATOM     11  C   UNL     1       1.459  -0.385   1.246  0.00  0.00    +0.238 C 
ATOM     12  O   UNL     1       0.500   0.324   1.469  0.00  0.00    -0.273 OA
ATOM     13  N   UNL     1       2.627  -0.157   1.879  0.00  0.00    -0.311 N 
ATOM     14  H   UNL     1       3.393  -0.724   1.700  0.00  0.00    +0.149 HD
BRANCH  13  15
ATOM     15  C   UNL     1       2.739   0.947   2.835  0.00  0.00    +0.073 C 
ATOM     16  C   UNL     1       3.061   2.241   2.085  0.00  0.00    +0.022 C 
ATOM     17  C   UNL     1       3.178   3.394   3.084  0.00  0.00    +0.002 C 
ATOM     18  C   UNL     1       4.296   3.092   4.083  0.00  0.00    +0.000 C 
ATOM     19  C   UNL     1       3.974   1.798   4.833  0.00  0.00    +0.002 C 
ATOM     20  C   UNL     1       3.857   0.645   3.834  0.00  0.00    +0.022 C 
ENDBRANCH  13  15
ENDBRANCH   1  11
BRANCH   1  21
ATOM     21  N   UNL     1      -0.025  -1.580  -0.257  0.00  0.00    -0.277 N 
ATOM     22  C   UNL     1      -1.041  -1.923   0.560  0.00  0.00    +0.252 C 
ATOM     23  O   UNL     1      -0.975  -1.677   1.749  0.00  0.00    -0.270 OA
BRANCH  22  24
ATOM     24  C   UNL     1      -2.234  -2.595   0.011  0.00  0.00    +0.086 A 
ATOM     25  C   UNL     1      -2.421  -2.678  -1.371  0.00  0.00    +0.049 A 
ATOM     26  C   UNL     1      -3.537  -3.307  -1.877  0.00  0.00    +0.127 A 
ATOM     27  C   UNL     1      -4.476  -3.860  -1.022  0.00  0.00    +0.036 A 
ATOM     28  C   UNL     1      -4.304  -3.785   0.346  0.00  0.00    +0.054 A 
ATOM     29  C   UNL     1      -3.183  -3.161   0.873  0.00  0.00    +0.191 A 
ATOM     30  O   UNL     1      -3.010  -3.092   2.217  0.00  0.00    -0.287 OA
BRANCH  26  31
ATOM     31  N   UNL     1      -3.733  -3.393  -3.342  0.00  0.00    +0.056 N 
ATOM     32  O   UNL     1      -2.873  -2.994  -4.092  0.00  0.00    -0.126 OA
ATOM     33  O   UNL     1      -4.754  -3.863  -3.788  0.00  0.00    -0.126 OA
ENDBRANCH  26  31
ENDBRANCH  22  24
BRANCH  21  35
ATOM     34  C   UNL     1       0.753  -0.268  -2.168  0.00  0.00    +0.031 C 
ATOM     35  C   UNL     1      -0.290  -1.267  -1.663  0.00  0.00    +0.030 C 
ATOM     36  C   UNL     1      -1.687  -0.657  -1.796  0.00  0.00    +0.031 C 
ATOM     37  C   UNL     1      -0.212  -2.549  -2.494  0.00  0.00    +0.031 C 
ENDBRANCH  21  35
ENDBRANCH   1  21
TORSDOF 8
