REMARK  Name = ZINC63506958
REMARK  9 active torsions:
REMARK  status: ('A' for Active; 'I' for Inactive)
REMARK    1  A    between atoms: C_1  and  C_2
REMARK    2  A    between atoms: C_6  and  C_33
REMARK    3  A    between atoms: C_7  and  N_8
REMARK    4  A    between atoms: C_9  and  C_11
REMARK    5  A    between atoms: C_11  and  N_17
REMARK    6  A    between atoms: N_17  and  C_18
REMARK    7  A    between atoms: C_18  and  C_19
REMARK    8  A    between atoms: C_19  and  C_20
REMARK    9  A    between atoms: C_28  and  C_30
REMARK                            x       y       z     vdW  Elec       q    Type
REMARK                         _______ _______ _______ _____ _____    ______ ____
ROOT
ATOM      1  C   UNL     1      -0.560   0.211   4.921  0.00  0.00    +0.113 C 
ATOM      2  C   UNL     1      -1.467   0.582   6.096  0.00  0.00    +0.035 C 
ATOM      3  C   UNL     1      -0.642   0.624   7.384  0.00  0.00    +0.003 C 
ATOM      4  C   UNL     1      -0.018  -0.750   7.636  0.00  0.00    +0.000 C 
ATOM      5  C   UNL     1       0.889  -1.121   6.461  0.00  0.00    +0.003 C 
ATOM      6  C   UNL     1       0.064  -1.163   5.173  0.00  0.00    +0.035 C 
ENDROOT
BRANCH   1   8
ATOM      7  N   UNL     1      -1.499   1.277   2.896  0.00  0.00    -0.283 N 
ATOM      8  C   UNL     1      -1.373   0.169   3.653  0.00  0.00    +0.241 C 
ATOM      9  O   UNL     1      -1.913  -0.863   3.313  0.00  0.00    -0.273 OA
ATOM     10  H   UNL     1      -1.113   2.115   3.196  0.00  0.00    +0.155 HD
BRANCH   7  17
ATOM     11  C   UNL     1      -0.738  -0.723   1.020  0.00  0.00    +0.045 C 
ATOM     12  C   UNL     1      -1.847   0.258   0.734  0.00  0.00    -0.029 A 
ATOM     13  C   UNL     1      -2.531   0.198  -0.464  0.00  0.00    +0.005 A 
ATOM     14  C   UNL     1      -3.548   1.098  -0.727  0.00  0.00    +0.001 A 
ATOM     15  C   UNL     1      -3.884   2.059   0.209  0.00  0.00    +0.005 A 
ATOM     16  C   UNL     1      -3.204   2.123   1.410  0.00  0.00    -0.029 A 
ATOM     17  C   UNL     1      -2.186   1.218   1.679  0.00  0.00    +0.039 A 
ATOM     18  C   UNL     1      -3.570   3.171   2.429  0.00  0.00    +0.045 C 
ENDBRANCH   7  17
ENDBRANCH   1   8
BRANCH   1  19
ATOM     19  N   UNL     1       0.501   1.212   4.788  0.00  0.00    -0.289 N 
ATOM     20  C   UNL     1       0.253   2.501   5.095  0.00  0.00    +0.329 C 
ATOM     21  O   UNL     1       1.113   3.340   4.927  0.00  0.00    -0.279 OA
BRANCH  19  22
ATOM     22  C   UNL     1       1.831   0.813   4.323  0.00  0.00    +0.113 C 
BRANCH  22  23
ATOM     23  C   UNL     1       1.945   1.073   2.819  0.00  0.00    +0.052 C 
BRANCH  23  24
ATOM     24  C   UNL     1       3.322   0.687   2.345  0.00  0.00    -0.037 C 
ATOM     25  C   UNL     1       4.324   0.170   3.092  0.00  0.00    -0.001 A 
ATOM     26  C   UNL     1       4.428  -0.173   4.516  0.00  0.00    +0.010 A 
ATOM     27  C   UNL     1       5.589  -0.685   4.984  0.00  0.00    +0.001 A 
ATOM     28  C   UNL     1       6.693  -0.895   4.146  0.00  0.00    +0.002 A 
ATOM     29  C   UNL     1       6.673  -0.605   2.828  0.00  0.00    +0.026 A 
ATOM     30  C   UNL     1       5.504  -0.062   2.228  0.00  0.00    +0.043 A 
ATOM     31  N   UNL     1       5.241   0.297   0.995  0.00  0.00    -0.378 N 
ATOM     32  C   UNL     1       3.861   0.792   0.936  0.00  0.00    +0.103 C 
ATOM     33  C   UNL     1       3.847   2.251   0.474  0.00  0.00    +0.035 C 
ATOM     34  H   UNL     1       5.855   0.240   0.246  0.00  0.00    +0.160 HD
ENDBRANCH  23  24
ENDBRANCH  22  23
ENDBRANCH  19  22
ENDBRANCH   1  19
TORSDOF 6
