REMARK  Name = ZINC28049926
REMARK  6 active torsions:
REMARK  status: ('A' for Active; 'I' for Inactive)
REMARK    1  A    between atoms: C_1  and  C_2
REMARK    2  A    between atoms: C_5  and  N_9
REMARK    3  A    between atoms: C_6  and  C_8
REMARK    4  A    between atoms: C_10  and  C_12
REMARK    5  A    between atoms: C_12  and  C_13
REMARK    6  A    between atoms: N_18  and  N_19
REMARK                            x       y       z     vdW  Elec       q    Type
REMARK                         _______ _______ _______ _____ _____    ______ ____
ROOT
ATOM      1  C   UNL     1       0.389   4.016   0.027  0.00  0.00    +0.149 C 
ATOM      2  C   UNL     1      -1.021   3.440   0.043  0.00  0.00    +0.233 C 
ATOM      3  N   UNL     1      -1.105   2.164   0.031  0.00  0.00    -0.263 N 
ATOM      4  C   UNL     1      -0.040   1.333   0.017  0.00  0.00    +0.183 C 
ATOM      5  N   UNL     1      -0.031   0.013   0.009  0.00  0.00    -0.127 NA
ATOM      6  S   UNL     1       1.355   2.451   0.005  0.00  0.00    -0.075 S 
ATOM      7  O   UNL     1      -2.112   4.226   0.062  0.00  0.00    -0.274 OA
ATOM      8  H   UNL     1      -2.092   1.678   0.030  0.00  0.00    +0.157 HD
ENDROOT
BRANCH   5   9
ATOM      9  N   UNL     1      -1.240  -0.696   0.022  0.00  0.00    -0.156 NA
ATOM     10  C   UNL     1      -1.231  -1.991   0.014  0.00  0.00    +0.041 C 
ATOM     11  C   UNL     1       0.072  -2.758  -0.015  0.00  0.00    +0.053 C 
ATOM     12  C   UNL     1       0.048  -3.794   1.120  0.00  0.00    +0.006 C 
ATOM     13  C   UNL     1      -1.200  -4.668   0.980  0.00  0.00    +0.001 C 
ATOM     14  C   UNL     1      -2.455  -3.811   1.154  0.00  0.00    +0.006 C 
ATOM     15  C   UNL     1      -2.525  -2.775   0.027  0.00  0.00    +0.053 C 
ENDBRANCH   5   9
BRANCH   1  16
ATOM     16  C   UNL     1       0.639   4.844  -1.234  0.00  0.00    +0.120 C 
BRANCH  16  18
ATOM     17  N   UNL     1       2.519   6.075  -2.268  0.00  0.00    -0.285 N 
ATOM     18  C   UNL     1       2.069   5.322  -1.246  0.00  0.00    +0.219 C 
ATOM     19  O   UNL     1       2.814   5.028  -0.335  0.00  0.00    -0.275 OA
ATOM     20  H   UNL     1       1.873   6.266  -3.138  0.00  0.00    +0.155 HD
BRANCH  17  25
ATOM     21  C   UNL     1       7.750   8.264  -2.091  0.00  0.00    +0.044 C 
ATOM     22  C   UNL     1       6.361   7.682  -2.138  0.00  0.00    -0.050 A 
ATOM     23  C   UNL     1       5.706   7.364  -0.963  0.00  0.00    +0.005 A 
ATOM     24  C   UNL     1       4.430   6.836  -1.002  0.00  0.00    +0.024 A 
ATOM     25  C   UNL     1       3.810   6.615  -2.225  0.00  0.00    +0.036 A 
ATOM     26  C   UNL     1       4.470   6.935  -3.403  0.00  0.00    -0.029 A 
ATOM     27  C   UNL     1       5.744   7.468  -3.357  0.00  0.00    +0.008 A 
ATOM     28  C   UNL     1       3.798   6.702  -4.732  0.00  0.00    +0.045 C 
ENDBRANCH  17  25
ENDBRANCH  16  18
ENDBRANCH   1  16
TORSDOF 4
