REMARK  Name = ZINC21160155
REMARK  6 active torsions:
REMARK  status: ('A' for Active; 'I' for Inactive)
REMARK    1  A    between atoms: C_1  and  C_2
REMARK    2  A    between atoms: C_7  and  C_8
REMARK    3  A    between atoms: C_8  and  N_9
REMARK    4  A    between atoms: C_21  and  C_24
REMARK    5  A    between atoms: N_26  and  C_27
REMARK    6  A    between atoms: C_27  and  C_28
REMARK                            x       y       z     vdW  Elec       q    Type
REMARK                         _______ _______ _______ _____ _____    ______ ____
ROOT
ATOM      1  N   UNL     1       1.647   4.728   0.374  0.00  0.00    -0.309 N 
ATOM      2  C   UNL     1       0.473   4.118  -0.035  0.00  0.00    +0.068 A 
ATOM      3  C   UNL     1      -0.107   2.883   0.215  0.00  0.00    +0.028 A 
ATOM      4  C   UNL     1      -1.321   2.566  -0.358  0.00  0.00    +0.002 A 
ATOM      5  C   UNL     1      -1.965   3.473  -1.187  0.00  0.00    +0.002 A 
ATOM      6  C   UNL     1      -1.407   4.705  -1.442  0.00  0.00    +0.028 A 
ATOM      7  C   UNL     1      -0.177   5.042  -0.869  0.00  0.00    +0.065 A 
ATOM      8  N   UNL     1       0.610   6.147  -0.932  0.00  0.00    -0.327 N 
ATOM      9  C   UNL     1       1.683   5.965  -0.203  0.00  0.00    +0.177 A 
ATOM     10  N   UNL     1       2.696   6.886  -0.040  0.00  0.00    -0.302 N 
ATOM     11  C   UNL     1       3.593   6.892  -1.203  0.00  0.00    +0.108 C 
ATOM     12  C   UNL     1       4.782   7.816  -0.927  0.00  0.00    +0.032 C 
ATOM     13  C   UNL     1       4.269   9.231  -0.648  0.00  0.00    +0.078 C 
ATOM     14  C   UNL     1       3.300   9.189   0.537  0.00  0.00    +0.032 C 
ATOM     15  C   UNL     1       2.154   8.226   0.219  0.00  0.00    +0.108 C 
ATOM     16  H   UNL     1       0.298   7.012  -1.536  0.00  0.00    +0.169 HD
ENDROOT
BRANCH  13  17
ATOM     17  C   UNL     1       5.430  10.132  -0.317  0.00  0.00    +0.216 C 
ATOM     18  O   UNL     1       5.480  10.686   0.761  0.00  0.00    -0.276 OA
ATOM     19  N   UNL     1       6.415  10.321  -1.218  0.00  0.00    -0.311 N 
ATOM     20  H   UNL     1       6.370   9.818  -2.195  0.00  0.00    +0.149 HD
BRANCH  19  21
ATOM     21  C   UNL     1       7.544  11.197  -0.896  0.00  0.00    +0.139 C 
BRANCH  21  22
ATOM     22  C   UNL     1       8.497  11.237  -2.063  0.00  0.00    -0.027 A 
ATOM     23  C   UNL     1       9.532  10.324  -2.140  0.00  0.00    +0.009 A 
ATOM     24  C   UNL     1      10.405  10.353  -3.211  0.00  0.00    +0.050 A 
ATOM     25  C   UNL     1      10.252  11.306  -4.205  0.00  0.00    +0.166 A 
ATOM     26  C   UNL     1       9.212  12.230  -4.124  0.00  0.00    +0.167 A 
ATOM     27  C   UNL     1       8.337  12.190  -3.051  0.00  0.00    +0.054 A 
ATOM     28  O   UNL     1       9.275  13.053  -5.211  0.00  0.00    -0.453 OA
ATOM     29  C   UNL     1      10.602  12.885  -5.745  0.00  0.00    +0.466 C 
ATOM     30  O   UNL     1      10.966  11.551  -5.342  0.00  0.00    -0.453 OA
ENDBRANCH  21  22
ENDBRANCH  19  21
ENDBRANCH  13  17
BRANCH   1  31
ATOM     31  C   UNL     1       2.663   4.152   1.259  0.00  0.00    +0.160 C 
BRANCH  31  38
ATOM     32  C   UNL     1       1.711   2.319   3.279  0.00  0.00    +0.044 C 
ATOM     33  C   UNL     1       1.978   3.759   3.634  0.00  0.00    -0.046 A 
ATOM     34  C   UNL     1       1.772   4.201   4.927  0.00  0.00    +0.004 A 
ATOM     35  C   UNL     1       2.012   5.523   5.252  0.00  0.00    +0.000 A 
ATOM     36  C   UNL     1       2.463   6.402   4.284  0.00  0.00    +0.000 A 
ATOM     37  C   UNL     1       2.673   5.958   2.992  0.00  0.00    +0.005 A 
ATOM     38  C   UNL     1       2.434   4.636   2.668  0.00  0.00    -0.025 A 
ENDBRANCH  31  38
ENDBRANCH   1  31
TORSDOF 5
