REMARK  Name = ZINC09604473
REMARK  7 active torsions:
REMARK  status: ('A' for Active; 'I' for Inactive)
REMARK    1  A    between atoms: C_1  and  C_2
REMARK    2  A    between atoms: C_15  and  C_17
REMARK    3  A    between atoms: C_17  and  S_18
REMARK    4  A    between atoms: S_18  and  C_19
REMARK    5  A    between atoms: N_29  and  C_30
REMARK    6  A    between atoms: C_30  and  C_32
REMARK    7  A    between atoms: C_30  and  C_33
REMARK                            x       y       z     vdW  Elec       q    Type
REMARK                         _______ _______ _______ _____ _____    ______ ____
ROOT
ATOM      1  C   UNL     1       3.391   3.295   0.171  0.00  0.00    +0.173 A 
ATOM      2  N   UNL     1       3.268   1.992   0.225  0.00  0.00    -0.223 NA
ATOM      3  C   UNL     1       2.061   1.394   0.175  0.00  0.00    +0.079 A 
ATOM      4  C   UNL     1       1.929   0.003   0.233  0.00  0.00    +0.028 A 
ATOM      5  C   UNL     1       0.686  -0.561   0.179  0.00  0.00    +0.002 A 
ATOM      6  C   UNL     1      -0.453   0.226   0.068  0.00  0.00    +0.001 A 
ATOM      7  C   UNL     1      -0.356   1.589   0.010  0.00  0.00    +0.015 A 
ATOM      8  C   UNL     1       0.900   2.192   0.062  0.00  0.00    +0.065 A 
ATOM      9  C   UNL     1       1.064   3.651   0.003  0.00  0.00    +0.263 A 
ATOM     10  O   UNL     1       0.102   4.391  -0.094  0.00  0.00    -0.267 OA
ATOM     11  N   UNL     1       2.324   4.141   0.062  0.00  0.00    -0.280 N 
ENDROOT
BRANCH  11  12
ATOM     12  C   UNL     1       2.545   5.588   0.007  0.00  0.00    +0.119 C 
ATOM     13  C   UNL     1       1.861   6.254   1.202  0.00  0.00    +0.036 C 
BRANCH  12  14
ATOM     14  C   UNL     1       1.968   6.136  -1.273  0.00  0.00    -0.025 A 
ATOM     15  C   UNL     1       2.032   5.391  -2.435  0.00  0.00    +0.005 A 
ATOM     16  C   UNL     1       1.497   5.891  -3.607  0.00  0.00    +0.000 A 
ATOM     17  C   UNL     1       0.908   7.142  -3.620  0.00  0.00    +0.000 A 
ATOM     18  C   UNL     1       0.850   7.890  -2.459  0.00  0.00    +0.000 A 
ATOM     19  C   UNL     1       1.379   7.387  -1.285  0.00  0.00    +0.005 A 
ENDBRANCH  12  14
ENDBRANCH  11  12
BRANCH   1  20
ATOM     20  S   UNL     1       5.009   3.989   0.242  0.00  0.00    -0.078 S 
BRANCH  20  21
ATOM     21  C   UNL     1       5.994   2.477   0.378  0.00  0.00    +0.173 C 
BRANCH  21  35
ATOM     22  C   UNL     1      10.457   1.939  -0.731  0.00  0.00    +0.029 C 
ATOM     23  C   UNL     1       9.807   2.196   0.630  0.00  0.00    +0.087 C 
ATOM     24  C   UNL     1      10.487   1.328   1.696  0.00  0.00    +0.118 C 
ATOM     25  C   UNL     1       9.631   1.254   2.932  0.00  0.00    +0.219 C 
ATOM     26  O   UNL     1       9.935   1.895   3.915  0.00  0.00    -0.275 OA
ATOM     27  N   UNL     1       8.526   0.477   2.953  0.00  0.00    -0.284 N 
ATOM     28  C   UNL     1       8.107  -0.194   1.798  0.00  0.00    +0.055 A 
ATOM     29  C   UNL     1       7.765  -1.535   1.840  0.00  0.00    +0.025 A 
ATOM     30  C   UNL     1       7.302  -2.163   0.698  0.00  0.00    +0.002 A 
ATOM     31  C   UNL     1       7.179  -1.456  -0.484  0.00  0.00    +0.002 A 
ATOM     32  C   UNL     1       7.529  -0.119  -0.537  0.00  0.00    +0.025 A 
ATOM     33  C   UNL     1       8.002   0.515   0.600  0.00  0.00    +0.058 A 
ATOM     34  N   UNL     1       8.383   1.863   0.561  0.00  0.00    -0.266 N 
ATOM     35  C   UNL     1       7.456   2.835   0.455  0.00  0.00    +0.230 C 
ATOM     36  O   UNL     1       7.798   3.998   0.421  0.00  0.00    -0.274 OA
ATOM     37  H   UNL     1       8.018   0.384   3.774  0.00  0.00    +0.155 HD
ENDBRANCH  21  35
ENDBRANCH  20  21
ENDBRANCH   1  20
TORSDOF 5
