REMARK  Name = ZINC09332895
REMARK  11 active torsions:
REMARK  status: ('A' for Active; 'I' for Inactive)
REMARK    1  A    between atoms: C_1  and  C_2
REMARK    2  A    between atoms: C_8  and  C_9
REMARK    3  A    between atoms: C_8  and  N_61
REMARK    4  A    between atoms: C_10  and  O_32
REMARK    5  A    between atoms: C_17  and  C_18
REMARK    6  A    between atoms: C_21  and  O_28
REMARK    7  A    between atoms: C_22  and  O_26
REMARK    8  A    between atoms: C_23  and  O_24
REMARK    9  A    between atoms: O_24  and  C_25
REMARK   10  A    between atoms: O_26  and  C_27
REMARK   11  A    between atoms: O_28  and  C_29
REMARK                            x       y       z     vdW  Elec       q    Type
REMARK                         _______ _______ _______ _____ _____    ______ ____
ROOT
ATOM      1  C   UNL     1       2.083   5.572  -1.629  0.00  0.00    +0.020 A 
ATOM      2  C   UNL     1       3.467   5.613  -1.691  0.00  0.00    +0.122 A 
ATOM      3  C   UNL     1       4.212   4.437  -1.657  0.00  0.00    +0.046 A 
ATOM      4  C   UNL     1       3.583   3.228  -1.562  0.00  0.00    +0.019 A 
ATOM      5  C   UNL     1       2.190   3.172  -1.499  0.00  0.00    +0.068 A 
ATOM      6  C   UNL     1       1.428   4.351  -1.532  0.00  0.00    +0.144 A 
ATOM      7  O   UNL     1       0.115   4.045  -1.458  0.00  0.00    -0.451 OA
ATOM      8  C   UNL     1      -0.087   2.708  -1.382  0.00  0.00    +0.176 C 
ATOM      9  C   UNL     1      -1.291   2.081  -1.303  0.00  0.00    +0.062 C 
ATOM     10  C   UNL     1       1.229   2.059  -1.395  0.00  0.00    +0.231 C 
ATOM     11  O   UNL     1       1.473   0.866  -1.339  0.00  0.00    -0.283 OA
ENDROOT
BRANCH   9  12
ATOM     12  C   UNL     1      -2.529   2.855  -1.420  0.00  0.00    +0.024 A 
ATOM     13  C   UNL     1      -2.506   4.249  -1.269  0.00  0.00    +0.015 A 
ATOM     14  C   UNL     1      -3.669   4.973  -1.385  0.00  0.00    +0.050 A 
ATOM     15  C   UNL     1      -4.875   4.328  -1.641  0.00  0.00    +0.165 A 
ATOM     16  C   UNL     1      -4.914   2.945  -1.788  0.00  0.00    +0.204 A 
ATOM     17  C   UNL     1      -3.748   2.203  -1.679  0.00  0.00    +0.172 A 
BRANCH  17  18
ATOM     18  O   UNL     1      -3.782   0.853  -1.821  0.00  0.00    -0.491 OA
ATOM     19  C   UNL     1      -4.099   0.086  -0.659  0.00  0.00    +0.277 C 
ENDBRANCH  17  18
BRANCH  16  20
ATOM     20  O   UNL     1      -6.097   2.321  -2.038  0.00  0.00    -0.488 OA
ATOM     21  C   UNL     1      -6.420   2.067  -3.406  0.00  0.00    +0.277 C 
ENDBRANCH  16  20
BRANCH  15  22
ATOM     22  O   UNL     1      -6.019   5.052  -1.748  0.00  0.00    -0.491 OA
ATOM     23  C   UNL     1      -5.909   6.467  -1.587  0.00  0.00    +0.277 C 
ENDBRANCH  15  22
ENDBRANCH   9  12
BRANCH   2  24
ATOM     24  O   UNL     1       4.101   6.809  -1.784  0.00  0.00    -0.506 OA
ATOM     25  H   UNL     1       4.247   7.107  -2.693  0.00  0.00    +0.292 HD
ENDBRANCH   2  24
BRANCH   1  26
ATOM     26  C   UNL     1       1.290   6.853  -1.665  0.00  0.00    -0.035 C 
BRANCH  26  33
ATOM     27  C   UNL     1      -1.100   8.218  -2.252  0.00  0.00    -0.013 C 
ATOM     28  C   UNL     1       0.140   8.400  -3.129  0.00  0.00    -0.071 C 
ATOM     29  C   UNL     1      -0.291   8.641  -4.578  0.00  0.00    -0.016 C 
ATOM     30  C   UNL     1       0.953   8.803  -5.455  0.00  0.00    -0.003 C 
ATOM     31  C   UNL     1       1.826   7.551  -5.326  0.00  0.00    -0.019 C 
ATOM     32  C   UNL     1       2.196   7.343  -3.856  0.00  0.00    -0.078 C 
ATOM     33  N   UNL     1       0.956   7.169  -3.069  0.00  0.00    +0.384 N 
ATOM     34  H   UNL     1       0.415   6.392  -3.467  0.00  0.00    -0.081 HD
ENDBRANCH  26  33
ENDBRANCH   1  26
TORSDOF 7
