REMARK  Name = ZINC17147617
REMARK  11 active torsions:
REMARK  status: ('A' for Active; 'I' for Inactive)
REMARK    1  A    between atoms: C_1  and  C_2
REMARK    2  A    between atoms: C_2  and  C_4
REMARK    3  A    between atoms: C_9  and  C_39
REMARK    4  A    between atoms: C_20  and  C_38
REMARK    5  A    between atoms: C_23  and  O_26
REMARK    6  A    between atoms: O_26  and  C_27
REMARK    7  A    between atoms: C_27  and  C_29
REMARK    8  A    between atoms: C_29  and  C_30
REMARK    9  A    between atoms: C_30  and  N_84
REMARK   10  A    between atoms: C_34  and  C_36
REMARK   11  A    between atoms: C_34  and  C_37
REMARK                            x       y       z     vdW  Elec       q    Type
REMARK                         _______ _______ _______ _____ _____    ______ ____
ROOT
ATOM      1  C   UNL     1       1.717   7.106   3.667  0.00  0.00    -0.003 C 
ATOM      2  C   UNL     1       0.911   7.112   4.750  0.00  0.00    -0.019 C 
ATOM      3  C   UNL     1       0.432   5.687   5.042  0.00  0.00    +0.032 C 
ATOM      4  C   UNL     1       1.589   4.882   4.429  0.00  0.00    +0.006 C 
ATOM      5  C   UNL     1       1.765   5.694   3.127  0.00  0.00    -0.001 C 
ATOM      6  C   UNL     1       3.015   5.285   2.397  0.00  0.00    +0.012 C 
ATOM      7  C   UNL     1       3.295   3.781   2.583  0.00  0.00    +0.005 C 
ATOM      8  C   UNL     1       2.004   3.021   2.836  0.00  0.00    -0.001 C 
ATOM      9  C   UNL     1       1.420   3.422   4.194  0.00  0.00    -0.003 C 
ATOM     10  C   UNL     1       0.003   2.872   4.301  0.00  0.00    +0.004 C 
ATOM     11  C   UNL     1       0.104   1.339   4.259  0.00  0.00    +0.004 C 
ATOM     12  C   UNL     1       0.756   0.879   2.954  0.00  0.00    -0.001 C 
ATOM     13  C   UNL     1       2.140   1.505   2.764  0.00  0.00    -0.026 C 
ATOM     14  C   UNL     1       2.715   1.092   1.406  0.00  0.00    +0.011 C 
ATOM     15  C   UNL     1       1.780   1.513   0.275  0.00  0.00    +0.045 C 
ATOM     16  C   UNL     1       0.428   0.819   0.463  0.00  0.00    +0.177 C 
ATOM     17  C   UNL     1      -0.173   1.255   1.797  0.00  0.00    +0.048 C 
ATOM     18  C   UNL     1       3.092   0.988   3.846  0.00  0.00    +0.012 C 
ATOM     19  C   UNL     1       0.550   5.578   2.201  0.00  0.00    +0.016 C 
ENDROOT
BRANCH   1  21
ATOM     20  C   UNL     1       2.205   9.627   3.684  0.00  0.00    +0.091 C 
ATOM     21  C   UNL     1       2.398   8.257   3.086  0.00  0.00    +0.156 C 
ATOM     22  O   UNL     1       3.119   8.112   2.122  0.00  0.00    -0.293 OA
ENDBRANCH   1  21
BRANCH  16  23
ATOM     23  O   UNL     1      -0.463   1.198  -0.619  0.00  0.00    -0.461 OA
BRANCH  23  24
ATOM     24  C   UNL     1      -0.451   0.426  -1.717  0.00  0.00    +0.306 C 
ATOM     25  O   UNL     1       0.280  -0.535  -1.772  0.00  0.00    -0.251 OA
BRANCH  24  26
ATOM     26  C   UNL     1      -1.349   0.757  -2.881  0.00  0.00    +0.102 C 
BRANCH  26  27
ATOM     27  C   UNL     1      -1.142  -0.272  -3.994  0.00  0.00    -0.068 C 
BRANCH  27  35
ATOM     28  C   UNL     1      -1.626   1.322  -5.750  0.00  0.00    -0.079 C 
ATOM     29  C   UNL     1      -2.463   1.554  -7.011  0.00  0.00    -0.018 C 
ATOM     30  C   UNL     1      -3.947   1.584  -6.634  0.00  0.00    +0.003 C 
ATOM     31  C   UNL     1      -4.317   0.268  -5.945  0.00  0.00    -0.050 C 
ATOM     32  C   UNL     1      -3.427   0.073  -4.715  0.00  0.00    -0.072 C 
ATOM     33  C   UNL     1      -5.784   0.313  -5.512  0.00  0.00    +0.009 C 
ATOM     34  C   UNL     1      -4.107  -0.895  -6.917  0.00  0.00    +0.009 C 
ATOM     35  N   UNL     1      -2.014   0.029  -5.148  0.00  0.00    +0.380 N 
ATOM     36  H   UNL     1      -1.904  -0.712  -5.851  0.00  0.00    -0.082 HD
ENDBRANCH  27  35
ENDBRANCH  26  27
ENDBRANCH  24  26
ENDBRANCH  23  24
ENDBRANCH  16  23
TORSDOF 6
