REMARK  Name = ZINC39665560
REMARK  10 active torsions:
REMARK  status: ('A' for Active; 'I' for Inactive)
REMARK    1  A    between atoms: C_1  and  C_2
REMARK    2  A    between atoms: C_2  and  C_4
REMARK    3  A    between atoms: C_2  and  O_31
REMARK    4  A    between atoms: C_4  and  N_5
REMARK    5  A    between atoms: C_6  and  C_8
REMARK    6  A    between atoms: C_19  and  C_21
REMARK    7  A    between atoms: C_24  and  C_27
REMARK    8  A    between atoms: O_31  and  C_32
REMARK    9  A    between atoms: C_35  and  O_38
REMARK   10  A    between atoms: O_38  and  C_39
REMARK                            x       y       z     vdW  Elec       q    Type
REMARK                         _______ _______ _______ _____ _____    ______ ____
ROOT
ATOM      1  C   UNL     1       0.909  -3.869  -2.328  0.00  0.00    +0.100 C 
ATOM      2  C   UNL     1       1.525  -4.492  -1.055  0.00  0.00    +0.121 C 
ATOM      3  N   UNL     1       2.187  -5.731  -1.527  0.00  0.00    -0.296 N 
ATOM      4  C   UNL     1       2.792  -5.354  -2.827  0.00  0.00    +0.115 C 
ATOM      5  C   UNL     1       1.744  -4.437  -3.489  0.00  0.00    -0.004 C 
ATOM      6  C   UNL     1       0.857  -5.244  -4.432  0.00  0.00    -0.010 C 
ATOM      7  C   UNL     1       1.698  -5.750  -5.608  0.00  0.00    -0.082 C 
ATOM      8  N   UNL     1       2.289  -4.608  -6.316  0.00  0.00    +0.379 N 
ATOM      9  C   UNL     1       3.212  -3.891  -5.428  0.00  0.00    -0.082 C 
ATOM     10  C   UNL     1       2.435  -3.307  -4.245  0.00  0.00    -0.010 C 
ATOM     11  C   UNL     1       2.230  -6.930  -0.914  0.00  0.00    +0.247 C 
ATOM     12  O   UNL     1       1.590  -7.116   0.103  0.00  0.00    -0.270 OA
ATOM     13  H   UNL     1       2.792  -4.940  -7.125  0.00  0.00    -0.086 HD
ATOM     14  H   UNL     1       1.556  -3.982  -6.613  0.00  0.00    -0.086 HD
ENDROOT
BRANCH  11  15
ATOM     15  C   UNL     1       3.055  -8.020  -1.477  0.00  0.00    +0.037 A 
ATOM     16  C   UNL     1       4.153  -7.722  -2.285  0.00  0.00    +0.013 A 
ATOM     17  C   UNL     1       4.919  -8.744  -2.808  0.00  0.00    +0.013 A 
ATOM     18  C   UNL     1       4.600 -10.062  -2.532  0.00  0.00    +0.055 A 
ATOM     19  C   UNL     1       3.512 -10.364  -1.732  0.00  0.00    +0.013 A 
ATOM     20  C   UNL     1       2.742  -9.352  -1.199  0.00  0.00    +0.013 A 
BRANCH  18  21
ATOM     21  C   UNL     1       5.441 -11.173  -3.107  0.00  0.00    +0.417 C 
ATOM     22  F   UNL     1       6.476 -11.481  -2.218  0.00  0.00    -0.166 F 
ATOM     23  F   UNL     1       4.644 -12.305  -3.306  0.00  0.00    -0.166 F 
ATOM     24  F   UNL     1       5.982 -10.763  -4.330  0.00  0.00    -0.166 F 
ENDBRANCH  18  21
ENDBRANCH  11  15
BRANCH   1  26
ATOM     25  N   UNL     1       0.094  -1.603  -2.892  0.00  0.00    -0.312 N 
ATOM     26  C   UNL     1       1.024  -2.367  -2.285  0.00  0.00    +0.218 C 
ATOM     27  O   UNL     1       1.952  -1.846  -1.705  0.00  0.00    -0.275 OA
ATOM     28  H   UNL     1      -0.649  -2.020  -3.356  0.00  0.00    +0.149 HD
BRANCH  25  29
ATOM     29  C   UNL     1       0.205  -0.143  -2.850  0.00  0.00    +0.148 C 
BRANCH  29  31
ATOM     30  C   UNL     1      -0.788   1.998  -3.672  0.00  0.00    +0.053 C 
ATOM     31  C   UNL     1      -0.969   0.480  -3.609  0.00  0.00    +0.187 C 
BRANCH  31  32
ATOM     32  O   UNL     1      -2.190   0.174  -2.932  0.00  0.00    -0.488 OA
BRANCH  32  33
ATOM     33  C   UNL     1      -3.327   0.178  -3.677  0.00  0.00    +0.121 A 
ATOM     34  C   UNL     1      -4.558  -0.006  -3.066  0.00  0.00    +0.049 A 
ATOM     35  C   UNL     1      -5.713  -0.002  -3.823  0.00  0.00    +0.049 A 
ATOM     36  C   UNL     1      -5.642   0.186  -5.196  0.00  0.00    +0.120 A 
ATOM     37  C   UNL     1      -4.411   0.371  -5.807  0.00  0.00    +0.049 A 
ATOM     38  C   UNL     1      -3.256   0.371  -5.049  0.00  0.00    +0.049 A 
BRANCH  36  39
ATOM     39  O   UNL     1      -6.779   0.189  -5.941  0.00  0.00    -0.495 OA
ATOM     40  C   UNL     1      -6.631   0.388  -7.349  0.00  0.00    +0.277 C 
ENDBRANCH  36  39
ENDBRANCH  32  33
ENDBRANCH  31  32
ENDBRANCH  29  31
ENDBRANCH  25  29
ENDBRANCH   1  26
TORSDOF 8
