REMARK  Name = ZINC39690984
REMARK  8 active torsions:
REMARK  status: ('A' for Active; 'I' for Inactive)
REMARK    1  A    between atoms: C_1  and  C_2
REMARK    2  A    between atoms: C_2  and  C_4
REMARK    3  A    between atoms: C_4  and  N_5
REMARK    4  A    between atoms: C_6  and  C_8
REMARK    5  A    between atoms: C_19  and  C_21
REMARK    6  A    between atoms: C_27  and  O_29
REMARK    7  A    between atoms: O_29  and  C_30
REMARK    8  A    between atoms: C_30  and  C_31
REMARK                            x       y       z     vdW  Elec       q    Type
REMARK                         _______ _______ _______ _____ _____    ______ ____
ROOT
ATOM      1  C   UNL     1      -3.389  -1.748   3.062  0.00  0.00    +0.100 C 
ATOM      2  C   UNL     1      -2.442  -2.680   3.851  0.00  0.00    +0.121 C 
ATOM      3  N   UNL     1      -3.337  -3.466   4.732  0.00  0.00    -0.300 N 
ATOM      4  C   UNL     1      -4.522  -3.755   3.889  0.00  0.00    +0.115 C 
ATOM      5  C   UNL     1      -4.753  -2.458   3.089  0.00  0.00    -0.004 C 
ATOM      6  C   UNL     1      -5.205  -2.788   1.669  0.00  0.00    -0.010 C 
ATOM      7  C   UNL     1      -6.590  -3.440   1.718  0.00  0.00    -0.082 C 
ATOM      8  N   UNL     1      -7.542  -2.524   2.356  0.00  0.00    +0.379 N 
ATOM      9  C   UNL     1      -7.151  -2.285   3.750  0.00  0.00    -0.082 C 
ATOM     10  C   UNL     1      -5.790  -1.584   3.787  0.00  0.00    -0.010 C 
ATOM     11  C   UNL     1      -3.123  -3.834   6.011  0.00  0.00    +0.219 C 
ATOM     12  O   UNL     1      -3.959  -4.482   6.603  0.00  0.00    -0.275 OA
ATOM     13  H   UNL     1      -7.550  -1.647   1.855  0.00  0.00    -0.086 HD
ATOM     14  H   UNL     1      -8.466  -2.930   2.332  0.00  0.00    -0.086 HD
ENDROOT
BRANCH  11  15
ATOM     15  C   UNL     1      -1.845  -3.439   6.704  0.00  0.00    +0.078 C 
ATOM     16  C   UNL     1      -0.651  -4.024   5.945  0.00  0.00    +0.032 C 
ATOM     17  C   UNL     1       0.648  -3.593   6.633  0.00  0.00    +0.112 C 
ATOM     18  N   UNL     1       0.585  -3.981   8.048  0.00  0.00    -0.267 N 
ATOM     19  C   UNL     1      -0.569  -3.547   8.849  0.00  0.00    +0.112 C 
ATOM     20  C   UNL     1      -1.854  -3.979   8.136  0.00  0.00    +0.032 C 
ATOM     21  C   UNL     1       1.566  -4.721   8.602  0.00  0.00    +0.403 C 
ATOM     22  O   UNL     1       2.514  -5.073   7.929  0.00  0.00    -0.226 OA
BRANCH  21  23
ATOM     23  O   UNL     1       1.495  -5.069   9.900  0.00  0.00    -0.445 OA
BRANCH  23  24
ATOM     24  C   UNL     1       2.570  -5.854  10.421  0.00  0.00    +0.269 C 
BRANCH  24  25
ATOM     25  C   UNL     1       2.319  -6.144  11.879  0.00  0.00    -0.010 A 
ATOM     26  C   UNL     1       2.784  -5.275  12.847  0.00  0.00    +0.007 A 
ATOM     27  C   UNL     1       2.555  -5.541  14.184  0.00  0.00    +0.000 A 
ATOM     28  C   UNL     1       1.859  -6.678  14.552  0.00  0.00    +0.000 A 
ATOM     29  C   UNL     1       1.393  -7.547  13.584  0.00  0.00    +0.000 A 
ATOM     30  C   UNL     1       1.619  -7.278  12.247  0.00  0.00    +0.007 A 
ENDBRANCH  24  25
ENDBRANCH  23  24
ENDBRANCH  21  23
ENDBRANCH  11  15
BRANCH   1  32
ATOM     31  N   UNL     1      -3.179  -0.460   0.961  0.00  0.00    -0.311 N 
ATOM     32  C   UNL     1      -2.908  -1.590   1.643  0.00  0.00    +0.218 C 
ATOM     33  O   UNL     1      -2.276  -2.480   1.114  0.00  0.00    -0.275 OA
ATOM     34  H   UNL     1      -3.685   0.252   1.384  0.00  0.00    +0.149 HD
BRANCH  31  35
ATOM     35  C   UNL     1      -2.712  -0.306  -0.419  0.00  0.00    +0.134 C 
BRANCH  35  37
ATOM     36  C   UNL     1      -4.516   1.204  -1.549  0.00  0.00    +0.040 C 
ATOM     37  C   UNL     1      -3.144   1.037  -0.949  0.00  0.00    -0.063 C 
ATOM     38  C   UNL     1      -2.327   2.059  -0.889  0.00  0.00    +0.009 C 
ENDBRANCH  35  37
ENDBRANCH  31  35
ENDBRANCH   1  32
TORSDOF 7
