REMARK  Name = ZINC36313176
REMARK  12 active torsions:
REMARK  status: ('A' for Active; 'I' for Inactive)
REMARK    1  A    between atoms: C_1  and  C_2
REMARK    2  A    between atoms: C_2  and  C_3
REMARK    3  A    between atoms: C_2  and  C_4
REMARK    4  A    between atoms: C_11  and  C_15
REMARK    5  A    between atoms: C_15  and  N_16
REMARK    6  A    between atoms: N_16  and  C_17
REMARK    7  A    between atoms: N_16  and  C_23
REMARK    8  A    between atoms: C_17  and  C_18
REMARK    9  A    between atoms: C_23  and  C_24
REMARK   10  A    between atoms: C_24  and  C_26
REMARK   11  A    between atoms: C_24  and  O_33
REMARK   12  A    between atoms: C_26  and  C_27
REMARK                            x       y       z     vdW  Elec       q    Type
REMARK                         _______ _______ _______ _____ _____    ______ ____
ROOT
ATOM      1  N   UNL     1      -7.477  -1.834   1.744  0.00  0.00    +0.391 N 
ATOM      2  H   UNL     1      -6.763  -1.937   2.449  0.00  0.00    -0.080 HD
ENDROOT
BRANCH   1   3
ATOM      3  C   UNL     1      -7.040  -2.488   0.503  0.00  0.00    -0.003 C 
BRANCH   3  11
ATOM      4  C   UNL     1      -1.566   0.664  -0.017  0.00  0.00    -0.005 A 
ATOM      5  C   UNL     1      -1.985  -0.267  -0.889  0.00  0.00    +0.027 A 
ATOM      6  C   UNL     1      -3.260  -0.923  -0.666  0.00  0.00    +0.072 A 
ATOM      7  C   UNL     1      -3.911  -1.934  -1.446  0.00  0.00    +0.260 A 
ATOM      8  O   UNL     1      -3.390  -2.365  -2.460  0.00  0.00    -0.267 OA
ATOM      9  N   UNL     1      -5.106  -2.401  -1.039  0.00  0.00    -0.312 N 
ATOM     10  H   UNL     1      -5.552  -3.086  -1.563  0.00  0.00    +0.170 HD
ATOM     11  C   UNL     1      -5.701  -1.934   0.088  0.00  0.00    +0.094 A 
ATOM     12  N   UNL     1      -5.133  -1.012   0.820  0.00  0.00    -0.229 NA
ATOM     13  C   UNL     1      -3.953  -0.502   0.484  0.00  0.00    +0.116 A 
ATOM     14  S   UNL     1      -2.876   0.718   1.191  0.00  0.00    -0.073 S 
BRANCH   4  16
ATOM     15  C   UNL     1      -0.626   2.957  -0.113  0.00  0.00    +0.013 C 
ATOM     16  C   UNL     1      -0.290   1.466  -0.049  0.00  0.00    +0.020 C 
ATOM     17  C   UNL     1       0.523   1.180   1.215  0.00  0.00    +0.013 C 
ENDBRANCH   4  16
ENDBRANCH   3  11
ENDBRANCH   1   3
BRANCH   1  18
ATOM     18  C   UNL     1      -7.710  -0.406   1.488  0.00  0.00    -0.002 C 
BRANCH  18  19
ATOM     19  C   UNL     1      -8.020   0.293   2.787  0.00  0.00    +0.089 A 
ATOM     20  C   UNL     1      -7.114   0.764   3.663  0.00  0.00    +0.042 A 
ATOM     21  C   UNL     1      -7.838   1.339   4.732  0.00  0.00    +0.041 A 
ATOM     22  C   UNL     1      -9.143   1.185   4.446  0.00  0.00    +0.195 A 
ATOM     23  O   UNL     1      -9.247   0.555   3.264  0.00  0.00    -0.470 OA
ENDBRANCH  18  19
ENDBRANCH   1  18
BRANCH   1  24
ATOM     24  C   UNL     1      -8.722  -2.456   2.213  0.00  0.00    -0.046 C 
BRANCH  24  25
ATOM     25  C   UNL     1      -8.447  -3.906   2.618  0.00  0.00    +0.102 C 
BRANCH  25  26
ATOM     26  O   UNL     1      -7.506  -3.929   3.693  0.00  0.00    -0.393 OA
ATOM     27  H   UNL     1      -7.827  -3.516   4.506  0.00  0.00    +0.210 HD
ENDBRANCH  25  26
BRANCH  25  28
ATOM     28  C   UNL     1      -9.751  -4.567   3.067  0.00  0.00    +0.064 C 
BRANCH  28  29
ATOM     29  C   UNL     1      -9.504  -6.026   3.349  0.00  0.00    -0.045 A 
ATOM     30  C   UNL     1      -9.643  -6.959   2.338  0.00  0.00    +0.004 A 
ATOM     31  C   UNL     1      -9.416  -8.297   2.597  0.00  0.00    +0.000 A 
ATOM     32  C   UNL     1      -9.049  -8.704   3.866  0.00  0.00    +0.000 A 
ATOM     33  C   UNL     1      -8.909  -7.771   4.877  0.00  0.00    +0.000 A 
ATOM     34  C   UNL     1      -9.132  -6.432   4.617  0.00  0.00    +0.004 A 
ENDBRANCH  28  29
ENDBRANCH  25  28
ENDBRANCH  24  25
ENDBRANCH   1  24
TORSDOF 10
