REMARK  Name = ZINC13113440
REMARK  10 active torsions:
REMARK  status: ('A' for Active; 'I' for Inactive)
REMARK    1  A    between atoms: C_10  and  S_22
REMARK    2  A    between atoms: N_11  and  C_15
REMARK    3  A    between atoms: C_15  and  C_16
REMARK    4  A    between atoms: S_22  and  C_23
REMARK    5  A    between atoms: C_23  and  C_24
REMARK    6  A    between atoms: C_24  and  C_25
REMARK    7  A    between atoms: C_25  and  C_26
REMARK    8  A    between atoms: C_26  and  N_27
REMARK    9  A    between atoms: C_28  and  C_30
REMARK   10  A    between atoms: C_35  and  C_36
REMARK                            x       y       z     vdW  Elec       q    Type
REMARK                         _______ _______ _______ _____ _____    ______ ____
ROOT
ATOM      1  C   UNL     1      -7.167  -0.711  -4.530  0.00  0.00    +0.001 A 
ATOM      2  C   UNL     1      -7.261  -0.883  -3.162  0.00  0.00    +0.002 A 
ATOM      3  C   UNL     1      -6.264  -0.463  -2.295  0.00  0.00    +0.023 A 
ATOM      4  C   UNL     1      -5.146   0.152  -2.853  0.00  0.00    +0.038 A 
ATOM      5  C   UNL     1      -5.032   0.297  -4.260  0.00  0.00    +0.022 A 
ATOM      6  C   UNL     1      -6.057  -0.123  -5.114  0.00  0.00    +0.012 A 
ATOM      7  C   UNL     1      -3.740   0.888  -4.543  0.00  0.00    +0.108 C 
ATOM      8  N   UNL     1      -3.007   0.980  -5.609  0.00  0.00    -0.173 NA
ATOM      9  N   UNL     1      -1.770   1.333  -5.490  0.00  0.00    -0.258 N 
ATOM     10  C   UNL     1      -1.154   1.416  -4.330  0.00  0.00    +0.152 C 
ATOM     11  N   UNL     1      -1.837   1.164  -3.148  0.00  0.00    -0.284 N 
ATOM     12  C   UNL     1      -3.277   1.452  -3.202  0.00  0.00    +0.213 C 
ATOM     13  N   UNL     1      -4.062   0.729  -2.208  0.00  0.00    -0.320 N 
ATOM     14  H   UNL     1      -3.743   0.720  -1.156  0.00  0.00    +0.148 HD
ATOM     15  H   UNL     1      -1.231   1.572  -6.418  0.00  0.00    +0.191 HD
ENDROOT
BRANCH  11  16
ATOM     16  C   UNL     1      -1.177   0.648  -1.946  0.00  0.00    +0.140 C 
BRANCH  16  17
ATOM     17  C   UNL     1      -0.688   1.819  -1.090  0.00  0.00    +0.136 C 
ATOM     18  C   UNL     1       0.117   1.288   0.112  0.00  0.00    +0.035 C 
ATOM     19  C   UNL     1      -0.638   1.835   1.348  0.00  0.00    +0.031 C 
ATOM     20  C   UNL     1      -1.432   3.023   0.742  0.00  0.00    +0.160 C 
ATOM     21  O   UNL     1      -1.812   2.544  -0.566  0.00  0.00    -0.375 OA
ENDBRANCH  16  17
ENDBRANCH  11  16
BRANCH  10  22
ATOM     22  S   UNL     1       0.553   1.850  -4.278  0.00  0.00    -0.091 S 
BRANCH  22  23
ATOM     23  C   UNL     1       0.881   2.049  -6.047  0.00  0.00    +0.077 C 
BRANCH  23  24
ATOM     24  C   UNL     1       2.347   2.437  -6.253  0.00  0.00    +0.013 C 
BRANCH  24  25
ATOM     25  C   UNL     1       2.624   2.605  -7.748  0.00  0.00    +0.019 C 
BRANCH  25  26
ATOM     26  C   UNL     1       4.090   2.994  -7.954  0.00  0.00    +0.104 C 
BRANCH  26  27
ATOM     27  N   UNL     1       4.356   3.155  -9.386  0.00  0.00    -0.311 N 
ATOM     28  C   UNL     1       5.589   3.498  -9.808  0.00  0.00    +0.245 C 
ATOM     29  O   UNL     1       6.480   3.674  -9.001  0.00  0.00    -0.270 OA
ATOM     30  H   UNL     1       3.549   2.995 -10.116  0.00  0.00    +0.149 HD
BRANCH  28  31
ATOM     31  C   UNL     1       5.857   3.660 -11.254  0.00  0.00    +0.051 A 
ATOM     32  C   UNL     1       5.083   4.531 -12.016  0.00  0.00    +0.014 A 
ATOM     33  C   UNL     1       5.341   4.684 -13.366  0.00  0.00    +0.001 A 
ATOM     34  C   UNL     1       6.360   3.967 -13.969  0.00  0.00    +0.001 A 
ATOM     35  C   UNL     1       7.134   3.094 -13.230  0.00  0.00    +0.016 A 
ATOM     36  C   UNL     1       6.893   2.931 -11.868  0.00  0.00    +0.075 A 
BRANCH  36  37
ATOM     37  C   UNL     1       7.718   1.998 -11.072  0.00  0.00    +0.387 C 
ATOM     38  O   UNL     1       7.435   1.774  -9.912  0.00  0.00    -0.241 OA
ATOM     39  O   UNL     1       8.784   1.396 -11.633  0.00  0.00    -0.241 OA
ENDBRANCH  36  37
ENDBRANCH  28  31
ENDBRANCH  26  27
ENDBRANCH  25  26
ENDBRANCH  24  25
ENDBRANCH  23  24
ENDBRANCH  22  23
ENDBRANCH  10  22
TORSDOF 10
