REMARK  Name = ZINC07003426
REMARK  8 active torsions:
REMARK  status: ('A' for Active; 'I' for Inactive)
REMARK    1  A    between atoms: C_1  and  C_2
REMARK    2  A    between atoms: C_5  and  S_8
REMARK    3  A    between atoms: S_8  and  C_9
REMARK    4  A    between atoms: C_9  and  C_10
REMARK    5  A    between atoms: C_10  and  N_11
REMARK    6  A    between atoms: C_16  and  C_23
REMARK    7  A    between atoms: C_19  and  C_21
REMARK    8  A    between atoms: C_19  and  C_22
REMARK                            x       y       z     vdW  Elec       q    Type
REMARK                         _______ _______ _______ _____ _____    ______ ____
ROOT
ATOM      1  N   UNL     1      -2.910  -3.459  -1.065  0.00  0.00    -0.223 N 
ATOM      2  C   UNL     1      -2.822  -2.719   0.059  0.00  0.00    +0.247 C 
ATOM      3  O   UNL     1      -3.681  -2.555   0.899  0.00  0.00    -0.273 OA
ATOM      4  C   UNL     1      -1.427  -2.137   0.051  0.00  0.00    +0.113 C 
ATOM      5  C   UNL     1      -1.487  -0.614   0.015  0.00  0.00    +0.038 C 
ATOM      6  C   UNL     1      -0.066  -0.045  -0.021  0.00  0.00    -0.011 C 
ATOM      7  C   UNL     1       0.700  -0.512   1.218  0.00  0.00    +0.009 C 
ATOM      8  C   UNL     1       0.773  -2.041   1.228  0.00  0.00    -0.032 C 
ATOM      9  C   UNL     1      -0.644  -2.618   1.268  0.00  0.00    +0.041 C 
ATOM     10  C   UNL     1       1.485  -2.525  -0.037  0.00  0.00    +0.011 C 
ATOM     11  C   UNL     1       1.549  -2.507   2.461  0.00  0.00    +0.011 C 
ATOM     12  C   UNL     1      -0.129   1.484  -0.035  0.00  0.00    +0.007 C 
ATOM     13  N   UNL     1      -0.830  -2.659  -1.184  0.00  0.00    -0.285 N 
ATOM     14  C   UNL     1      -1.772  -3.422  -1.770  0.00  0.00    +0.309 C 
ATOM     15  O   UNL     1      -1.609  -4.011  -2.821  0.00  0.00    -0.252 OA
ATOM     16  H   UNL     1       0.067  -2.488  -1.513  0.00  0.00    +0.151 HD
ENDROOT
BRANCH   1  17
ATOM     17  C   UNL     1      -4.102  -4.211  -1.465  0.00  0.00    +0.129 C 
BRANCH  17  18
ATOM     18  C   UNL     1      -5.002  -3.321  -2.325  0.00  0.00    +0.094 C 
BRANCH  18  19
ATOM     19  S   UNL     1      -6.478  -4.252  -2.820  0.00  0.00    -0.124 S 
BRANCH  19  24
ATOM     20  C   UNL     1      -9.635  -0.325  -6.143  0.00  0.00    +0.044 C 
ATOM     21  C   UNL     1      -8.847  -1.306  -5.314  0.00  0.00    -0.050 A 
ATOM     22  C   UNL     1      -9.335  -2.583  -5.107  0.00  0.00    +0.004 A 
ATOM     23  C   UNL     1      -8.615  -3.484  -4.347  0.00  0.00    +0.015 A 
ATOM     24  C   UNL     1      -7.399  -3.106  -3.790  0.00  0.00    +0.008 A 
ATOM     25  C   UNL     1      -6.915  -1.820  -3.996  0.00  0.00    +0.015 A 
ATOM     26  C   UNL     1      -7.637  -0.926  -4.762  0.00  0.00    +0.004 A 
ENDBRANCH  19  24
ENDBRANCH  18  19
ENDBRANCH  17  18
ENDBRANCH   1  17
TORSDOF 4
