REMARK  Name = ZINC04282119
REMARK  8 active torsions:
REMARK  status: ('A' for Active; 'I' for Inactive)
REMARK    1  A    between atoms: C_10  and  C_11
REMARK    2  A    between atoms: N_13  and  C_14
REMARK    3  A    between atoms: C_14  and  C_15
REMARK    4  A    between atoms: N_17  and  N_18
REMARK    5  A    between atoms: C_19  and  C_20
REMARK    6  A    between atoms: C_23  and  O_26
REMARK    7  A    between atoms: O_26  and  C_27
REMARK    8  A    between atoms: C_27  and  C_29
REMARK                            x       y       z     vdW  Elec       q    Type
REMARK                         _______ _______ _______ _____ _____    ______ ____
ROOT
ATOM      1  C   UNL     1       2.005   0.679  -0.188  0.00  0.00    +0.249 C 
ATOM      2  O   UNL     1       1.596  -0.463  -0.215  0.00  0.00    -0.272 OA
ATOM      3  N   UNL     1       3.331   0.920  -0.211  0.00  0.00    -0.206 N 
ATOM      4  H   UNL     1       3.658   1.833  -0.189  0.00  0.00    +0.177 HD
ENDROOT
BRANCH   3   5
ATOM      5  N   UNL     1       4.237  -0.147  -0.266  0.00  0.00    -0.188 NA
ATOM      6  C   UNL     1       5.513   0.085  -0.288  0.00  0.00    +0.138 C 
BRANCH   6   7
ATOM      7  C   UNL     1       6.466  -1.038  -0.346  0.00  0.00    -0.005 A 
ATOM      8  C   UNL     1       5.997  -2.355  -0.371  0.00  0.00    +0.013 A 
ATOM      9  C   UNL     1       6.891  -3.401  -0.431  0.00  0.00    +0.047 A 
ATOM     10  C   UNL     1       8.257  -3.150  -0.454  0.00  0.00    +0.132 A 
ATOM     11  C   UNL     1       8.728  -1.844  -0.423  0.00  0.00    +0.047 A 
ATOM     12  C   UNL     1       7.841  -0.791  -0.370  0.00  0.00    +0.013 A 
BRANCH  10  13
ATOM     13  O   UNL     1       9.135  -4.186  -0.507  0.00  0.00    -0.422 OA
BRANCH  13  14
ATOM     14  C   UNL     1       9.922  -4.376   0.570  0.00  0.00    +0.344 C 
ATOM     15  O   UNL     1       9.762  -3.700   1.566  0.00  0.00    -0.245 OA
BRANCH  14  16
ATOM     16  C   UNL     1      10.979  -5.407   0.539  0.00  0.00    +0.061 A 
ATOM     17  C   UNL     1      11.797  -5.607   1.654  0.00  0.00    +0.015 A 
ATOM     18  C   UNL     1      12.782  -6.572   1.619  0.00  0.00    +0.002 A 
ATOM     19  C   UNL     1      12.962  -7.341   0.483  0.00  0.00    +0.020 A 
ATOM     20  C   UNL     1      12.156  -7.148  -0.626  0.00  0.00    +0.042 A 
ATOM     21  C   UNL     1      11.162  -6.190  -0.602  0.00  0.00    +0.035 A 
ATOM     22 CL   UNL     1      12.390  -8.119  -2.046  0.00  0.00    -0.084 Cl
ENDBRANCH  14  16
ENDBRANCH  13  14
ENDBRANCH  10  13
ENDBRANCH   6   7
ENDBRANCH   3   5
BRANCH   1  23
ATOM     23  C   UNL     1       1.031   1.827  -0.129  0.00  0.00    +0.202 C 
BRANCH  23  26
ATOM     24  C   UNL     1      -1.382   2.157  -0.068  0.00  0.00    +0.245 C 
ATOM     25  O   UNL     1      -1.188   3.357  -0.034  0.00  0.00    -0.270 OA
ATOM     26  N   UNL     1      -0.338   1.306  -0.113  0.00  0.00    -0.303 N 
ATOM     27  H   UNL     1      -0.493   0.349  -0.140  0.00  0.00    +0.150 HD
BRANCH  24  37
ATOM     28  C   UNL     1      -6.058   4.205  -0.311  0.00  0.00    +0.001 A 
ATOM     29  C   UNL     1      -4.764   4.724  -0.322  0.00  0.00    +0.001 A 
ATOM     30  C   UNL     1      -3.680   3.903  -0.241  0.00  0.00    +0.009 A 
ATOM     31  C   UNL     1      -3.865   2.517  -0.140  0.00  0.00    -0.006 A 
ATOM     32  C   UNL     1      -5.178   1.988  -0.133  0.00  0.00    -0.017 A 
ATOM     33  C   UNL     1      -6.274   2.865  -0.219  0.00  0.00    +0.008 A 
ATOM     34  C   UNL     1      -5.364   0.598  -0.037  0.00  0.00    +0.008 A 
ATOM     35  C   UNL     1      -4.287  -0.233   0.045  0.00  0.00    +0.001 A 
ATOM     36  C   UNL     1      -2.991   0.268   0.035  0.00  0.00    +0.013 A 
ATOM     37  C   UNL     1      -2.760   1.632  -0.059  0.00  0.00    +0.044 A 
ENDBRANCH  24  37
ENDBRANCH  23  26
ENDBRANCH   1  23
TORSDOF 8
