REMARK  Name = ZINC35379058
REMARK  7 active torsions:
REMARK  status: ('A' for Active; 'I' for Inactive)
REMARK    1  A    between atoms: C_1  and  C_2
REMARK    2  A    between atoms: C_7  and  S_8
REMARK    3  A    between atoms: S_8  and  N_11
REMARK    4  A    between atoms: C_15  and  C_18
REMARK    5  A    between atoms: N_20  and  C_21
REMARK    6  A    between atoms: C_21  and  C_22
REMARK    7  A    between atoms: C_30  and  C_35
REMARK                            x       y       z     vdW  Elec       q    Type
REMARK                         _______ _______ _______ _____ _____    ______ ____
ROOT
ATOM      1  N   UNL     1       1.616   1.132   2.607  0.00  0.00    -0.176 NA
ATOM      2  C   UNL     1       2.940   0.585   2.934  0.00  0.00    +0.109 C 
ATOM      3  C   UNL     1       3.884   0.841   1.755  0.00  0.00    +0.018 C 
ATOM      4  C   UNL     1       3.886   2.335   1.423  0.00  0.00    +0.015 C 
ATOM      5  C   UNL     1       2.476   2.771   1.017  0.00  0.00    +0.091 C 
ATOM      6  C   UNL     1       1.517   2.535   2.182  0.00  0.00    +0.122 C 
ENDROOT
BRANCH   5   7
ATOM      7  C   UNL     1       2.486   4.234   0.658  0.00  0.00    +0.218 C 
ATOM      8  O   UNL     1       1.791   5.014   1.275  0.00  0.00    -0.275 OA
ATOM      9  N   UNL     1       3.265   4.677  -0.348  0.00  0.00    -0.311 N 
ATOM     10  H   UNL     1       3.821   4.053  -0.842  0.00  0.00    +0.149 HD
BRANCH   9  11
ATOM     11  C   UNL     1       3.274   6.100  -0.696  0.00  0.00    +0.139 C 
BRANCH  11  12
ATOM     12  C   UNL     1       4.222   6.330  -1.846  0.00  0.00    -0.030 A 
ATOM     13  C   UNL     1       5.552   6.613  -1.599  0.00  0.00    +0.006 A 
ATOM     14  C   UNL     1       6.421   6.824  -2.652  0.00  0.00    +0.020 A 
ATOM     15  C   UNL     1       5.960   6.751  -3.954  0.00  0.00    +0.041 A 
ATOM     16  C   UNL     1       4.628   6.467  -4.201  0.00  0.00    +0.020 A 
ATOM     17  C   UNL     1       3.761   6.251  -3.147  0.00  0.00    +0.006 A 
ATOM     18 CL   UNL     1       7.051   7.016  -5.278  0.00  0.00    -0.084 Cl
ENDBRANCH  11  12
ENDBRANCH   9  11
ENDBRANCH   5   7
BRANCH   1  19
ATOM     19  S   UNL     1       0.263   0.184   2.711  0.00  0.00    +0.061 S 
ATOM     20  O   UNL     1      -0.848   1.067   2.779  0.00  0.00    -0.153 OA
ATOM     21  O   UNL     1       0.525  -0.790   3.712  0.00  0.00    -0.153 OA
BRANCH  19  28
ATOM     22  C   UNL     1      -0.436   1.485   0.077  0.00  0.00    +0.046 C 
ATOM     23  C   UNL     1      -0.205  -0.003   0.029  0.00  0.00    -0.022 A 
ATOM     24  C   UNL     1      -0.313  -0.680  -1.173  0.00  0.00    +0.032 A 
ATOM     25  C   UNL     1      -0.101  -2.047  -1.214  0.00  0.00    +0.076 A 
ATOM     26  C   UNL     1       0.221  -2.739  -0.047  0.00  0.00    +0.145 A 
ATOM     27  C   UNL     1       0.328  -2.055   1.151  0.00  0.00    +0.076 A 
ATOM     28  C   UNL     1       0.120  -0.688   1.186  0.00  0.00    +0.112 A 
ATOM     29  O   UNL     1       0.424  -4.082  -0.100  0.00  0.00    -0.478 OA
ATOM     30  C   UNL     1      -0.345  -4.812  -1.059  0.00  0.00    +0.256 C 
ATOM     31  C   UNL     1      -0.306  -4.099  -2.387  0.00  0.00    +0.258 C 
ATOM     32  O   UNL     1      -0.366  -4.732  -3.420  0.00  0.00    -0.271 OA
ATOM     33  N   UNL     1      -0.204  -2.752  -2.422  0.00  0.00    -0.280 N 
ATOM     34  C   UNL     1       0.240  -6.216  -1.219  0.00  0.00    +0.062 C 
ATOM     35  H   UNL     1      -0.203  -2.280  -3.269  0.00  0.00    +0.155 HD
ENDBRANCH  19  28
ENDBRANCH   1  19
TORSDOF 5
