REMARK  Name = ZINC40779686
REMARK  3 active torsions:
REMARK  status: ('A' for Active; 'I' for Inactive)
REMARK    1  A    between atoms: C_3  and  N_8
REMARK    2  A    between atoms: C_10  and  N_23
REMARK    3  A    between atoms: C_11  and  N_15
REMARK                            x       y       z     vdW  Elec       q    Type
REMARK                         _______ _______ _______ _____ _____    ______ ____
ROOT
ATOM      1  N   UNL     1       3.603   2.006   0.059  0.00  0.00    -0.283 N 
ATOM      2  C   UNL     1       3.633   3.390  -0.071  0.00  0.00    +0.150 A 
ATOM      3  C   UNL     1       4.849   4.064  -0.199  0.00  0.00    +0.104 A 
ATOM      4  C   UNL     1       4.822   5.454  -0.327  0.00  0.00    +0.127 A 
ATOM      5  N   UNL     1       3.648   6.079  -0.321  0.00  0.00    -0.333 N 
ATOM      6  C   UNL     1       2.522   5.405  -0.198  0.00  0.00    +0.200 A 
ATOM      7  N   UNL     1       2.503   4.093  -0.080  0.00  0.00    -0.221 NA
ATOM      8  H   UNL     1       4.431   1.507   0.137  0.00  0.00    +0.155 HD
ATOM      9  H   UNL     1       3.619   7.045  -0.409  0.00  0.00    +0.168 HD
ENDROOT
BRANCH   4  10
ATOM     10  N   UNL     1       6.005   6.174  -0.457  0.00  0.00    -0.284 N 
ATOM     11  C   UNL     1       5.978   7.565  -0.447  0.00  0.00    +0.124 A 
ATOM     12  C   UNL     1       7.172   8.279  -0.463  0.00  0.00    +0.045 A 
ATOM     13  C   UNL     1       7.130   9.661  -0.453  0.00  0.00    +0.020 A 
ATOM     14  C   UNL     1       5.890  10.287  -0.427  0.00  0.00    +0.036 A 
ATOM     15  C   UNL     1       4.744   9.516  -0.412  0.00  0.00    +0.128 A 
ATOM     16  N   UNL     1       4.815   8.198  -0.428  0.00  0.00    -0.239 NA
ATOM     17 BR   UNL     1       5.772  12.174  -0.411  0.00  0.00    -0.049 Br
ATOM     18  H   UNL     1       6.850   5.706  -0.555  0.00  0.00    +0.155 HD
ENDBRANCH   4  10
BRANCH   1  21
ATOM     19  C   UNL     1       1.143  -0.710   0.118  0.00  0.00    +0.020 A 
ATOM     20  C   UNL     1       2.362  -0.056   0.100  0.00  0.00    +0.045 A 
ATOM     21  C   UNL     1       2.383   1.335   0.077  0.00  0.00    +0.124 A 
ATOM     22  N   UNL     1       1.254   2.026   0.072  0.00  0.00    -0.239 NA
ATOM     23  C   UNL     1       0.077   1.430   0.089  0.00  0.00    +0.128 A 
ATOM     24  C   UNL     1      -0.018   0.052   0.112  0.00  0.00    +0.036 A 
ATOM     25 BR   UNL     1      -1.712  -0.788   0.136  0.00  0.00    -0.049 Br
ENDBRANCH   1  21
BRANCH   3  26
ATOM     26  N   UNL     1       6.065   3.363  -0.199  0.00  0.00    -0.353 N 
ATOM     27  H   UNL     1       6.068   2.397  -0.110  0.00  0.00    +0.143 HD
ATOM     28  H   UNL     1       6.902   3.844  -0.289  0.00  0.00    +0.143 HD
ENDBRANCH   3  26
TORSDOF 3
