REMARK  Name = ZINC30827097
REMARK  9 active torsions:
REMARK  status: ('A' for Active; 'I' for Inactive)
REMARK    1  A    between atoms: C_1  and  C_2
REMARK    2  A    between atoms: C_5  and  C_9
REMARK    3  A    between atoms: C_12  and  C_14
REMARK    4  A    between atoms: C_15  and  C_16
REMARK    5  A    between atoms: N_18  and  C_19
REMARK    6  A    between atoms: C_24  and  N_25
REMARK    7  A    between atoms: C_31  and  C_33
REMARK    8  A    between atoms: C_33  and  C_34
REMARK    9  A    between atoms: C_33  and  C_35
REMARK                            x       y       z     vdW  Elec       q    Type
REMARK                         _______ _______ _______ _____ _____    ______ ____
ROOT
ATOM      1  C   UNL     1       2.524   4.165   0.009  0.00  0.00    +0.241 C 
ATOM      2  O   UNL     1       3.546   3.588   0.334  0.00  0.00    -0.270 OA
ATOM      3  N   UNL     1       1.477   3.463  -0.469  0.00  0.00    -0.280 N 
ATOM      4  H   UNL     1       0.582   3.989  -0.833  0.00  0.00    +0.155 HD
ENDROOT
BRANCH   3   5
ATOM      5  C   UNL     1       1.528   2.064  -0.501  0.00  0.00    +0.056 A 
ATOM      6  C   UNL     1       2.729   1.417  -0.755  0.00  0.00    +0.045 A 
ATOM      7  C   UNL     1       2.777   0.035  -0.788  0.00  0.00    +0.043 A 
ATOM      8  C   UNL     1       1.629  -0.706  -0.567  0.00  0.00    +0.022 A 
ATOM      9  C   UNL     1       0.429  -0.069  -0.314  0.00  0.00    +0.026 A 
ATOM     10  C   UNL     1       0.372   1.316  -0.280  0.00  0.00    +0.051 A 
ATOM     11 CL   UNL     1       4.281  -0.771  -1.105  0.00  0.00    -0.083 Cl
BRANCH  10  12
ATOM     12  N   UNL     1      -0.844   1.963  -0.029  0.00  0.00    -0.325 N 
ATOM     13  C   UNL     1      -1.334   1.658   1.322  0.00  0.00    +0.124 C 
ATOM     14  C   UNL     1      -2.564   2.521   1.622  0.00  0.00    +0.126 C 
ATOM     15  N   UNL     1      -3.547   2.325   0.546  0.00  0.00    -0.298 N 
ATOM     16  C   UNL     1      -3.095   2.478  -0.845  0.00  0.00    +0.126 C 
ATOM     17  C   UNL     1      -1.844   1.617  -1.049  0.00  0.00    +0.124 C 
ATOM     18  C   UNL     1      -4.827   2.012   0.827  0.00  0.00    +0.218 C 
ATOM     19  O   UNL     1      -5.601   1.757  -0.072  0.00  0.00    -0.275 OA
BRANCH  18  20
ATOM     20  C   UNL     1      -5.298   1.979   2.258  0.00  0.00    +0.069 C 
ATOM     21  C   UNL     1      -6.749   2.459   2.329  0.00  0.00    +0.017 C 
ATOM     22  C   UNL     1      -5.208   0.548   2.792  0.00  0.00    +0.017 C 
ENDBRANCH  18  20
ENDBRANCH  10  12
ENDBRANCH   3   5
BRANCH   1  24
ATOM     23  C   UNL     1       3.491   6.278   0.613  0.00  0.00    +0.051 C 
ATOM     24  C   UNL     1       2.436   5.571   0.132  0.00  0.00    +0.071 C 
BRANCH  23  28
ATOM     25  C   UNL     1       2.613   9.734   0.664  0.00  0.00    +0.136 A 
ATOM     26  C   UNL     1       3.884   9.820   1.158  0.00  0.00    +0.050 A 
ATOM     27  C   UNL     1       4.394   8.521   1.213  0.00  0.00    +0.050 A 
ATOM     28  C   UNL     1       3.403   7.683   0.736  0.00  0.00    +0.129 A 
ATOM     29  O   UNL     1       2.334   8.442   0.413  0.00  0.00    -0.455 OA
BRANCH  25  34
ATOM     30  C   UNL     1      -0.959  14.160  -0.203  0.00  0.00    +0.045 C 
ATOM     31  C   UNL     1      -0.023  13.001   0.024  0.00  0.00    -0.032 A 
ATOM     32  C   UNL     1      -0.435  11.714  -0.276  0.00  0.00    +0.005 A 
ATOM     33  C   UNL     1       0.416  10.649  -0.071  0.00  0.00    +0.012 A 
ATOM     34  C   UNL     1       1.697  10.870   0.442  0.00  0.00    +0.019 A 
ATOM     35  C   UNL     1       2.104  12.170   0.749  0.00  0.00    +0.031 A 
ATOM     36  C   UNL     1       1.245  13.228   0.533  0.00  0.00    +0.045 A 
ATOM     37 CL   UNL     1       1.751  14.846   0.907  0.00  0.00    -0.083 Cl
ENDBRANCH  25  34
ENDBRANCH  23  28
ENDBRANCH   1  24
TORSDOF 6
