REMARK  Name = ZINC16310486
REMARK  8 active torsions:
REMARK  status: ('A' for Active; 'I' for Inactive)
REMARK    1  A    between atoms: C_1  and  C_2
REMARK    2  A    between atoms: C_5  and  S_8
REMARK    3  A    between atoms: S_8  and  N_11
REMARK    4  A    between atoms: N_11  and  C_12
REMARK    5  A    between atoms: C_15  and  C_18
REMARK    6  A    between atoms: C_18  and  C_20
REMARK    7  A    between atoms: C_20  and  C_21
REMARK    8  A    between atoms: C_21  and  O_31
REMARK                            x       y       z     vdW  Elec       q    Type
REMARK                         _______ _______ _______ _____ _____    ______ ____
ROOT
ATOM      1  C   UNL     1      -5.886   6.949   4.713  0.00  0.00    +0.048 A 
ATOM      2  C   UNL     1      -6.596   6.476   3.611  0.00  0.00    +0.025 A 
ATOM      3  C   UNL     1      -5.954   5.768   2.636  0.00  0.00    +0.013 A 
ATOM      4  C   UNL     1      -4.580   5.517   2.744  0.00  0.00    +0.018 A 
ATOM      5  C   UNL     1      -3.871   5.990   3.856  0.00  0.00    +0.013 A 
ATOM      6  C   UNL     1      -4.520   6.702   4.824  0.00  0.00    +0.025 A 
ENDROOT
BRANCH   1   7
ATOM      7  N   UNL     1      -6.543   7.668   5.702  0.00  0.00    -0.216 N 
ATOM      8  H   UNL     1      -6.424   8.629   5.763  0.00  0.00    +0.174 HD
BRANCH   7   9
ATOM      9  S   UNL     1      -7.528   6.886   6.779  0.00  0.00    +0.072 S 
ATOM     10  O   UNL     1      -8.002   7.872   7.686  0.00  0.00    -0.150 OA
ATOM     11  O   UNL     1      -8.405   6.074   6.011  0.00  0.00    -0.150 OA
BRANCH   9  16
ATOM     12  C   UNL     1      -4.054   3.129   9.976  0.00  0.00    +0.044 C 
ATOM     13  C   UNL     1      -4.922   4.067   9.177  0.00  0.00    -0.050 A 
ATOM     14  C   UNL     1      -5.177   5.342   9.648  0.00  0.00    +0.005 A 
ATOM     15  C   UNL     1      -5.973   6.203   8.916  0.00  0.00    +0.029 A 
ATOM     16  C   UNL     1      -6.514   5.789   7.713  0.00  0.00    +0.109 A 
ATOM     17  C   UNL     1      -6.263   4.513   7.244  0.00  0.00    +0.029 A 
ATOM     18  C   UNL     1      -5.463   3.654   7.974  0.00  0.00    +0.005 A 
ENDBRANCH   9  16
ENDBRANCH   7   9
ENDBRANCH   1   7
BRANCH   4  19
ATOM     19  C   UNL     1      -3.886   4.757   1.698  0.00  0.00    +0.167 C 
ATOM     20  O   UNL     1      -4.502   4.344   0.738  0.00  0.00    -0.292 OA
BRANCH  19  21
ATOM     21  C   UNL     1      -2.408   4.489   1.817  0.00  0.00    +0.129 C 
BRANCH  21  22
ATOM     22  C   UNL     1      -1.937   3.683   0.604  0.00  0.00    +0.175 C 
ATOM     23  C   UNL     1      -0.484   3.295   0.758  0.00  0.00    +0.014 A 
ATOM     24  C   UNL     1       0.674   4.031   0.877  0.00  0.00    +0.009 A 
ATOM     25  C   UNL     1       1.891   3.386   1.007  0.00  0.00    +0.000 A 
ATOM     26  C   UNL     1       1.940   2.003   1.016  0.00  0.00    +0.002 A 
ATOM     27  C   UNL     1       0.781   1.264   0.898  0.00  0.00    +0.024 A 
ATOM     28  C   UNL     1      -0.448   1.907   0.761  0.00  0.00    +0.040 A 
ATOM     29  N   UNL     1      -1.737   1.391   0.622  0.00  0.00    -0.282 N 
ATOM     30  C   UNL     1      -2.664   2.358   0.517  0.00  0.00    +0.254 C 
ATOM     31  O   UNL     1      -3.859   2.199   0.387  0.00  0.00    -0.272 OA
ATOM     32  H   UNL     1      -1.940   0.442   0.604  0.00  0.00    +0.155 HD
BRANCH  22  33
ATOM     33  O   UNL     1      -2.131   4.427  -0.600  0.00  0.00    -0.374 OA
ATOM     34  H   UNL     1      -3.047   4.702  -0.749  0.00  0.00    +0.211 HD
ENDBRANCH  22  33
ENDBRANCH  21  22
ENDBRANCH  19  21
ENDBRANCH   4  19
TORSDOF 7
