REMARK  Name = ZINC15388364
REMARK  8 active torsions:
REMARK  status: ('A' for Active; 'I' for Inactive)
REMARK    1  A    between atoms: C_1  and  C_2
REMARK    2  A    between atoms: C_5  and  N_8
REMARK    3  A    between atoms: N_8  and  S_9
REMARK    4  A    between atoms: S_9  and  C_12
REMARK    5  A    between atoms: C_15  and  C_18
REMARK    6  A    between atoms: N_20  and  C_21
REMARK    7  A    between atoms: C_21  and  C_22
REMARK    8  A    between atoms: N_24  and  C_25
REMARK                            x       y       z     vdW  Elec       q    Type
REMARK                         _______ _______ _______ _____ _____    ______ ____
ROOT
ATOM      1  C   UNL     1       1.018  -0.455   1.441  0.00  0.00    +0.109 A 
ATOM      2  C   UNL     1       2.388  -0.553   1.278  0.00  0.00    +0.029 A 
ATOM      3  C   UNL     1       3.192  -0.875   2.352  0.00  0.00    +0.015 A 
ATOM      4  C   UNL     1       2.619  -1.113   3.602  0.00  0.00    +0.037 A 
ATOM      5  C   UNL     1       1.236  -1.017   3.759  0.00  0.00    +0.015 A 
ATOM      6  C   UNL     1       0.443  -0.689   2.678  0.00  0.00    +0.029 A 
ENDROOT
BRANCH   4   7
ATOM      7  C   UNL     1       3.474  -1.463   4.756  0.00  0.00    +0.244 C 
ATOM      8  O   UNL     1       2.973  -1.669   5.844  0.00  0.00    -0.270 OA
ATOM      9  N   UNL     1       4.810  -1.555   4.602  0.00  0.00    -0.303 N 
ATOM     10  H   UNL     1       5.211  -1.391   3.734  0.00  0.00    +0.150 HD
BRANCH   9  11
ATOM     11  C   UNL     1       5.658  -1.902   5.745  0.00  0.00    +0.200 C 
BRANCH  11  12
ATOM     12  C   UNL     1       7.100  -1.938   5.309  0.00  0.00    +0.234 C 
ATOM     13  O   UNL     1       7.391  -1.697   4.157  0.00  0.00    -0.274 OA
ATOM     14  N   UNL     1       8.066  -2.238   6.200  0.00  0.00    -0.284 N 
ATOM     15  H   UNL     1       7.841  -2.364   7.135  0.00  0.00    +0.155 HD
BRANCH  14  16
ATOM     16  C   UNL     1       9.394  -2.367   5.775  0.00  0.00    +0.036 A 
ATOM     17  C   UNL     1      10.226  -3.306   6.371  0.00  0.00    +0.026 A 
ATOM     18  C   UNL     1      11.534  -3.437   5.948  0.00  0.00    +0.043 A 
ATOM     19  C   UNL     1      12.021  -2.626   4.937  0.00  0.00    +0.159 A 
ATOM     20  C   UNL     1      11.194  -1.684   4.344  0.00  0.00    +0.160 A 
ATOM     21  C   UNL     1       9.882  -1.554   4.762  0.00  0.00    +0.064 A 
ATOM     22  F   UNL     1      11.670  -0.893   3.357  0.00  0.00    -0.202 F 
ATOM     23  F   UNL     1      13.302  -2.752   4.528  0.00  0.00    -0.202 F 
ENDBRANCH  14  16
ENDBRANCH  11  12
ENDBRANCH   9  11
ENDBRANCH   4   7
BRANCH   1  24
ATOM     24  S   UNL     1      -0.002  -0.037   0.066  0.00  0.00    +0.072 S 
ATOM     25  O   UNL     1      -1.322  -0.440   0.402  0.00  0.00    -0.150 OA
ATOM     26  O   UNL     1       0.667  -0.512  -1.094  0.00  0.00    -0.150 OA
BRANCH  24  27
ATOM     27  N   UNL     1      -0.024   1.615  -0.043  0.00  0.00    -0.216 N 
ATOM     28  H   UNL     1       0.345   2.054  -0.825  0.00  0.00    +0.174 HD
BRANCH  27  33
ATOM     29  C   UNL     1      -2.235   4.705   4.166  0.00  0.00    +0.044 C 
ATOM     30  C   UNL     1      -1.648   3.884   3.047  0.00  0.00    -0.050 A 
ATOM     31  C   UNL     1      -0.437   4.248   2.487  0.00  0.00    +0.005 A 
ATOM     32  C   UNL     1       0.104   3.497   1.462  0.00  0.00    +0.025 A 
ATOM     33  C   UNL     1      -0.569   2.376   0.994  0.00  0.00    +0.048 A 
ATOM     34  C   UNL     1      -1.787   2.016   1.556  0.00  0.00    +0.025 A 
ATOM     35  C   UNL     1      -2.320   2.768   2.584  0.00  0.00    +0.005 A 
ENDBRANCH  27  33
ENDBRANCH  24  27
ENDBRANCH   1  24
TORSDOF 7
