REMARK  Name = ZINC20131539
REMARK  12 active torsions:
REMARK  status: ('A' for Active; 'I' for Inactive)
REMARK    1  A    between atoms: C_1  and  C_2
REMARK    2  A    between atoms: C_2  and  O_3
REMARK    3  A    between atoms: O_3  and  C_4
REMARK    4  A    between atoms: C_4  and  C_6
REMARK    5  A    between atoms: C_7  and  C_24
REMARK    6  A    between atoms: C_12  and  C_14
REMARK    7  A    between atoms: C_17  and  O_22
REMARK    8  A    between atoms: C_18  and  O_20
REMARK    9  A    between atoms: O_20  and  C_21
REMARK   10  A    between atoms: O_22  and  C_23
REMARK   11  A    between atoms: C_24  and  S_25
REMARK   12  A    between atoms: S_25  and  C_28
REMARK                            x       y       z     vdW  Elec       q    Type
REMARK                         _______ _______ _______ _____ _____    ______ ____
ROOT
ATOM      1  C   UNL     1      -4.220  -1.399  -2.236  0.00  0.00    +0.080 C 
ATOM      2  C   UNL     1      -3.276  -2.345  -2.429  0.00  0.00    +0.045 C 
ATOM      3  N   UNL     1      -3.619  -3.647  -2.658  0.00  0.00    -0.271 N 
ATOM      4  C   UNL     1      -4.884  -4.082  -2.714  0.00  0.00    +0.304 C 
ATOM      5  O   UNL     1      -5.091  -5.262  -2.923  0.00  0.00    -0.252 OA
ATOM      6  N   UNL     1      -5.935  -3.256  -2.546  0.00  0.00    -0.288 N 
ATOM      7  C   UNL     1      -5.672  -1.829  -2.294  0.00  0.00    +0.144 C 
ATOM      8  H   UNL     1      -2.835  -4.404  -2.808  0.00  0.00    +0.156 HD
ATOM      9  H   UNL     1      -6.971  -3.624  -2.595  0.00  0.00    +0.151 HD
ENDROOT
BRANCH   7  10
ATOM     10  C   UNL     1      -6.355  -1.032  -3.376  0.00  0.00    -0.019 A 
ATOM     11  C   UNL     1      -7.041   0.123  -3.053  0.00  0.00    +0.009 A 
ATOM     12  C   UNL     1      -7.664   0.861  -4.042  0.00  0.00    +0.050 A 
ATOM     13  C   UNL     1      -7.612   0.436  -5.360  0.00  0.00    +0.162 A 
ATOM     14  C   UNL     1      -6.926  -0.731  -5.685  0.00  0.00    +0.162 A 
ATOM     15  C   UNL     1      -6.298  -1.462  -4.689  0.00  0.00    +0.055 A 
BRANCH  14  16
ATOM     16  O   UNL     1      -6.871  -1.152  -6.976  0.00  0.00    -0.491 OA
ATOM     17  C   UNL     1      -6.231  -2.405  -7.224  0.00  0.00    +0.277 C 
ENDBRANCH  14  16
BRANCH  13  18
ATOM     18  O   UNL     1      -8.229   1.157  -6.333  0.00  0.00    -0.491 OA
ATOM     19  C   UNL     1      -8.914   2.343  -5.927  0.00  0.00    +0.277 C 
ENDBRANCH  13  18
ENDBRANCH   7  10
BRANCH   1  20
ATOM     20  C   UNL     1      -3.866  -0.051  -1.994  0.00  0.00    +0.339 C 
ATOM     21  O   UNL     1      -3.933   0.402  -0.867  0.00  0.00    -0.245 OA
BRANCH  20  22
ATOM     22  O   UNL     1      -3.453   0.732  -3.012  0.00  0.00    -0.462 OA
BRANCH  22  24
ATOM     23  C   UNL     1      -2.689   2.819  -3.962  0.00  0.00    +0.048 C 
ATOM     24  C   UNL     1      -3.006   2.048  -2.679  0.00  0.00    +0.229 C 
ENDBRANCH  22  24
ENDBRANCH  20  22
ENDBRANCH   1  20
BRANCH   2  25
ATOM     25  C   UNL     1      -1.820  -1.959  -2.385  0.00  0.00    +0.223 C 
BRANCH  25  26
ATOM     26  S   UNL     1      -1.090  -2.529  -0.825  0.00  0.00    +0.002 S 
ATOM     27  O   UNL     1      -1.039  -3.949  -0.798  0.00  0.00    -0.169 OA
ATOM     28  O   UNL     1      -1.640  -1.804   0.267  0.00  0.00    -0.169 OA
BRANCH  26  29
ATOM     29  C   UNL     1       0.595  -2.020  -0.900  0.00  0.00    +0.090 A 
ATOM     30  C   UNL     1       1.547  -2.860  -1.446  0.00  0.00    +0.030 A 
ATOM     31  C   UNL     1       2.869  -2.462  -1.506  0.00  0.00    +0.042 A 
ATOM     32  C   UNL     1       3.240  -1.221  -1.019  0.00  0.00    +0.142 A 
ATOM     33  C   UNL     1       2.286  -0.379  -0.471  0.00  0.00    +0.078 A 
ATOM     34  C   UNL     1       0.964  -0.780  -0.413  0.00  0.00    +0.049 A 
ATOM     35 CL   UNL     1       2.750   1.178   0.140  0.00  0.00    -0.081 Cl
ATOM     36  F   UNL     1       4.533  -0.831  -1.077  0.00  0.00    -0.204 F 
ENDBRANCH  26  29
ENDBRANCH  25  26
ENDBRANCH   2  25
TORSDOF 9
