REMARK  Name = ZINC14357852
REMARK  9 active torsions:
REMARK  status: ('A' for Active; 'I' for Inactive)
REMARK    1  A    between atoms: C_1  and  C_2
REMARK    2  A    between atoms: C_5  and  S_9
REMARK    3  A    between atoms: C_6  and  C_8
REMARK    4  A    between atoms: S_9  and  N_12
REMARK    5  A    between atoms: C_18  and  C_20
REMARK    6  A    between atoms: C_20  and  O_21
REMARK    7  A    between atoms: O_21  and  C_22
REMARK    8  A    between atoms: C_22  and  C_24
REMARK    9  A    between atoms: C_24  and  C_29
REMARK                            x       y       z     vdW  Elec       q    Type
REMARK                         _______ _______ _______ _____ _____    ______ ____
ROOT
ATOM      1  N   UNL     1       0.931   6.247  -7.062  0.00  0.00    -0.174 NA
ATOM      2  C   UNL     1      -0.421   5.686  -6.939  0.00  0.00    +0.128 C 
ATOM      3  C   UNL     1      -0.880   5.827  -5.482  0.00  0.00    +0.125 C 
ATOM      4  N   UNL     1       0.182   5.314  -4.605  0.00  0.00    -0.296 N 
ATOM      5  C   UNL     1       1.534   5.879  -4.724  0.00  0.00    +0.125 C 
ATOM      6  C   UNL     1       1.993   5.734  -6.185  0.00  0.00    +0.128 C 
ATOM      7  C   UNL     1      -0.080   4.348  -3.703  0.00  0.00    +0.253 C 
ATOM      8  O   UNL     1      -1.201   3.893  -3.610  0.00  0.00    -0.272 OA
ENDROOT
BRANCH   1   9
ATOM      9  S   UNL     1       1.254   7.435  -8.170  0.00  0.00    +0.061 S 
ATOM     10  O   UNL     1       2.639   7.344  -8.472  0.00  0.00    -0.153 OA
ATOM     11  O   UNL     1       0.249   7.341  -9.170  0.00  0.00    -0.153 OA
BRANCH   9  16
ATOM     12  C   UNL     1       0.435  12.731  -5.397  0.00  0.00    +0.044 C 
ATOM     13  C   UNL     1       0.640  11.408  -6.089  0.00  0.00    -0.050 A 
ATOM     14  C   UNL     1       1.913  11.003  -6.445  0.00  0.00    +0.005 A 
ATOM     15  C   UNL     1       2.100   9.790  -7.080  0.00  0.00    +0.029 A 
ATOM     16  C   UNL     1       1.015   8.981  -7.360  0.00  0.00    +0.108 A 
ATOM     17  C   UNL     1      -0.259   9.388  -7.008  0.00  0.00    -0.024 A 
ATOM     18  C   UNL     1      -0.446  10.599  -6.368  0.00  0.00    +0.008 A 
ATOM     19  C   UNL     1      -1.443   8.508  -7.318  0.00  0.00    +0.046 C 
ENDBRANCH   9  16
ENDBRANCH   1   9
BRANCH   7  20
ATOM     20  C   UNL     1       1.018   3.833  -2.809  0.00  0.00    +0.327 C 
BRANCH  20  21
ATOM     21  O   UNL     1       0.487   2.804  -1.933  0.00  0.00    -0.455 OA
BRANCH  21  22
ATOM     22  C   UNL     1       1.344   2.238  -1.068  0.00  0.00    +0.318 C 
ATOM     23  O   UNL     1       2.499   2.591  -1.044  0.00  0.00    -0.250 OA
BRANCH  22  24
ATOM     24  C   UNL     1       0.865   1.163  -0.127  0.00  0.00    +0.093 C 
ATOM     25  C   UNL     1       2.028   0.679   0.756  0.00  0.00    +0.023 C 
ATOM     26  C   UNL     1       1.626   0.973   2.216  0.00  0.00    +0.001 C 
ATOM     27  C   UNL     1       0.588   2.118   2.101  0.00  0.00    +0.001 C 
ATOM     28  C   UNL     1      -0.205   1.734   0.827  0.00  0.00    +0.023 C 
BRANCH  24  29
ATOM     29  C   UNL     1       0.294   0.008  -0.909  0.00  0.00    -0.031 A 
ATOM     30  C   UNL     1      -0.348  -1.023  -0.250  0.00  0.00    +0.006 A 
ATOM     31  C   UNL     1      -0.876  -2.080  -0.967  0.00  0.00    +0.020 A 
ATOM     32  C   UNL     1      -0.751  -2.111  -2.345  0.00  0.00    +0.041 A 
ATOM     33  C   UNL     1      -0.103  -1.082  -3.004  0.00  0.00    +0.020 A 
ATOM     34  C   UNL     1       0.419  -0.023  -2.286  0.00  0.00    +0.006 A 
ATOM     35 CL   UNL     1      -1.409  -3.442  -3.246  0.00  0.00    -0.084 Cl
ENDBRANCH  24  29
ENDBRANCH  22  24
ENDBRANCH  21  22
ENDBRANCH  20  21
ENDBRANCH   7  20
TORSDOF 7
