REMARK  Name = ZINC57608747
REMARK  13 active torsions:
REMARK  status: ('A' for Active; 'I' for Inactive)
REMARK    1  A    between atoms: C_1  and  C_2
REMARK    2  A    between atoms: C_6  and  C_15
REMARK    3  A    between atoms: C_13  and  C_14
REMARK    4  A    between atoms: C_15  and  C_17
REMARK    5  A    between atoms: C_15  and  N_26
REMARK    6  A    between atoms: N_21  and  C_22
REMARK    7  A    between atoms: C_22  and  C_23
REMARK    8  A    between atoms: C_22  and  C_24
REMARK    9  A    between atoms: C_22  and  C_25
REMARK   10  A    between atoms: N_26  and  C_27
REMARK   11  A    between atoms: N_26  and  C_34
REMARK   12  A    between atoms: C_27  and  C_28
REMARK   13  A    between atoms: C_34  and  C_35
REMARK                            x       y       z     vdW  Elec       q    Type
REMARK                         _______ _______ _______ _____ _____    ______ ____
ROOT
ATOM      1  C   UNL     1      -0.144  -4.866  -4.352  0.00  0.00    +0.163 C 
ENDROOT
BRANCH   1   7
ATOM      2  C   UNL     1       4.250  -2.016   0.957  0.00  0.00    +0.044 C 
ATOM      3  C   UNL     1       2.944  -2.042   0.206  0.00  0.00    -0.047 A 
ATOM      4  C   UNL     1       2.761  -2.944  -0.804  0.00  0.00    +0.013 A 
ATOM      5  C   UNL     1       1.549  -2.968  -1.501  0.00  0.00    -0.001 A 
ATOM      6  C   UNL     1       1.320  -3.922  -2.589  0.00  0.00    +0.021 A 
ATOM      7  C   UNL     1       0.124  -3.899  -3.228  0.00  0.00    +0.042 A 
ATOM      8  C   UNL     1      -0.869  -2.973  -2.846  0.00  0.00    +0.254 A 
ATOM      9  O   UNL     1      -1.937  -2.970  -3.434  0.00  0.00    -0.268 OA
ATOM     10  N   UNL     1      -0.668  -2.094  -1.848  0.00  0.00    -0.322 N 
ATOM     11  H   UNL     1      -1.373  -1.471  -1.611  0.00  0.00    +0.169 HD
ATOM     12  C   UNL     1       0.525  -2.065  -1.159  0.00  0.00    +0.049 A 
ATOM     13  C   UNL     1       0.734  -1.156  -0.127  0.00  0.00    +0.030 A 
ATOM     14  C   UNL     1       1.934  -1.154   0.550  0.00  0.00    -0.046 A 
ATOM     15  C   UNL     1       2.156  -0.172   1.672  0.00  0.00    +0.044 C 
ENDBRANCH   1   7
BRANCH   1  16
ATOM     16  C   UNL     1       1.100  -5.670  -4.631  0.00  0.00    +0.174 A 
ATOM     17  N   UNL     1       1.567  -6.663  -3.914  0.00  0.00    -0.111 NA
ATOM     18  N   UNL     1       2.645  -7.089  -4.478  0.00  0.00    -0.023 NA
ATOM     19  N   UNL     1       2.877  -6.393  -5.536  0.00  0.00    -0.043 NA
ATOM     20  N   UNL     1       1.944  -5.512  -5.668  0.00  0.00    -0.222 N 
BRANCH  20  21
ATOM     21  C   UNL     1       1.827  -4.522  -6.741  0.00  0.00    +0.059 C 
ATOM     22  C   UNL     1       1.734  -3.120  -6.135  0.00  0.00    +0.036 C 
ATOM     23  C   UNL     1       3.057  -4.605  -7.648  0.00  0.00    +0.036 C 
ATOM     24  C   UNL     1       0.568  -4.807  -7.562  0.00  0.00    +0.036 C 
ENDBRANCH  20  21
ENDBRANCH   1  16
BRANCH   1  25
ATOM     25  N   UNL     1      -1.236  -5.771  -3.969  0.00  0.00    -0.277 NA
BRANCH  25  26
ATOM     26  C   UNL     1      -1.518  -6.738  -5.039  0.00  0.00    +0.121 C 
BRANCH  26  27
ATOM     27  C   UNL     1      -2.849  -7.396  -4.783  0.00  0.00    -0.033 A 
ATOM     28  C   UNL     1      -2.909  -8.585  -4.080  0.00  0.00    +0.005 A 
ATOM     29  C   UNL     1      -4.130  -9.189  -3.845  0.00  0.00    +0.000 A 
ATOM     30  C   UNL     1      -5.292  -8.603  -4.313  0.00  0.00    +0.000 A 
ATOM     31  C   UNL     1      -5.232  -7.414  -5.014  0.00  0.00    +0.000 A 
ATOM     32  C   UNL     1      -4.011  -6.808  -5.245  0.00  0.00    +0.005 A 
ENDBRANCH  26  27
ENDBRANCH  25  26
BRANCH  25  33
ATOM     33  C   UNL     1      -0.933  -6.457  -2.706  0.00  0.00    +0.160 C 
BRANCH  33  34
ATOM     34  C   UNL     1      -1.382  -5.601  -1.550  0.00  0.00    +0.119 A 
ATOM     35  C   UNL     1      -2.631  -5.542  -1.054  0.00  0.00    +0.046 A 
ATOM     36  C   UNL     1      -2.603  -4.620   0.017  0.00  0.00    +0.041 A 
ATOM     37  C   UNL     1      -1.339  -4.171   0.112  0.00  0.00    +0.195 A 
ATOM     38  O   UNL     1      -0.602  -4.773  -0.836  0.00  0.00    -0.467 OA
ENDBRANCH  33  34
ENDBRANCH  25  33
ENDBRANCH   1  25
TORSDOF 8
