REMARK  Name = ZINC01792673
REMARK  5 active torsions:
REMARK  status: ('A' for Active; 'I' for Inactive)
REMARK    1  A    between atoms: C_4  and  S_10
REMARK    2  A    between atoms: C_5  and  N_7
REMARK    3  A    between atoms: S_10  and  C_11
REMARK    4  A    between atoms: C_16  and  C_32
REMARK    5  A    between atoms: C_36  and  N_38
REMARK                            x       y       z     vdW  Elec       q    Type
REMARK                         _______ _______ _______ _____ _____    ______ ____
ROOT
ATOM      1  C   UNL     1       5.069   0.592   0.000  0.00  0.00    +0.070 C 
ATOM      2  C   UNL     1       6.533   0.102   0.010  0.00  0.00    +0.022 C 
ATOM      3  C   UNL     1       6.957   0.167  -1.472  0.00  0.00    +0.024 C 
ATOM      4  C   UNL     1       8.472   0.253  -1.594  0.00  0.00    +0.104 C 
ATOM      5  N   UNL     1       8.950   1.410  -0.829  0.00  0.00    -0.335 N 
ATOM      6  C   UNL     1       8.299   2.637  -1.010  0.00  0.00    +0.050 A 
ATOM      7  C   UNL     1       7.029   2.686  -1.558  0.00  0.00    -0.019 A 
ATOM      8  C   UNL     1       6.410   3.917  -1.725  0.00  0.00    +0.025 A 
ATOM      9  C   UNL     1       7.052   5.080  -1.349  0.00  0.00    +0.043 A 
ATOM     10  C   UNL     1       8.322   5.029  -0.800  0.00  0.00    +0.041 A 
ATOM     11  C   UNL     1       8.946   3.808  -0.631  0.00  0.00    +0.063 A 
ATOM     12 CL   UNL     1      10.539   3.736   0.056  0.00  0.00    -0.082 Cl
ATOM     13 CL   UNL     1       6.264   6.612  -1.565  0.00  0.00    -0.083 Cl
ATOM     14  C   UNL     1       6.270   1.442  -1.987  0.00  0.00    +0.045 C 
ATOM     15  C   UNL     1       4.896   1.440  -1.273  0.00  0.00    +0.101 C 
ATOM     16 CL   UNL     1       4.424   3.124  -0.834  0.00  0.00    -0.120 Cl
ATOM     17  H   UNL     1       9.697   1.328  -0.215  0.00  0.00    +0.147 HD
ENDROOT
BRANCH   4  18
ATOM     18  C   UNL     1       8.853   0.412  -3.043  0.00  0.00    -0.025 A 
ATOM     19  C   UNL     1       8.775   1.654  -3.646  0.00  0.00    +0.005 A 
ATOM     20  C   UNL     1       9.124   1.800  -4.975  0.00  0.00    +0.003 A 
ATOM     21  C   UNL     1       9.552   0.704  -5.702  0.00  0.00    +0.033 A 
ATOM     22  C   UNL     1       9.631  -0.537  -5.099  0.00  0.00    +0.127 A 
ATOM     23  C   UNL     1       9.285  -0.682  -3.768  0.00  0.00    +0.038 A 
BRANCH  22  24
ATOM     24  N   UNL     1      10.088  -1.711  -5.877  0.00  0.00    +0.056 N 
ATOM     25  O   UNL     1      10.393  -1.583  -7.040  0.00  0.00    -0.126 OA
ATOM     26  O   UNL     1      10.157  -2.796  -5.349  0.00  0.00    -0.126 OA
ENDBRANCH  22  24
ENDBRANCH   4  18
BRANCH   1  27
ATOM     27  S   UNL     1       3.939  -0.827  -0.042  0.00  0.00    -0.118 S 
BRANCH  27  31
ATOM     28  C   UNL     1       4.328  -2.658   4.083  0.00  0.00    +0.002 A 
ATOM     29  C   UNL     1       4.973  -1.469   3.792  0.00  0.00    +0.001 A 
ATOM     30  C   UNL     1       4.856  -0.908   2.536  0.00  0.00    +0.017 A 
ATOM     31  C   UNL     1       4.091  -1.539   1.563  0.00  0.00    +0.038 A 
ATOM     32  C   UNL     1       3.444  -2.734   1.858  0.00  0.00    +0.140 A 
ATOM     33  C   UNL     1       3.565  -3.289   3.117  0.00  0.00    +0.034 A 
BRANCH  32  34
ATOM     34  N   UNL     1       2.627  -3.409   0.826  0.00  0.00    +0.058 N 
ATOM     35  O   UNL     1       2.066  -4.448   1.083  0.00  0.00    -0.126 OA
ATOM     36  O   UNL     1       2.522  -2.922  -0.276  0.00  0.00    -0.126 OA
ENDBRANCH  32  34
ENDBRANCH  27  31
ENDBRANCH   1  27
TORSDOF 5
