REMARK  Name = ZINC39608916
REMARK  8 active torsions:
REMARK  status: ('A' for Active; 'I' for Inactive)
REMARK    1  A    between atoms: C_1  and  O_2
REMARK    2  A    between atoms: O_2  and  C_3
REMARK    3  A    between atoms: C_8  and  C_9
REMARK    4  A    between atoms: C_13  and  C_22
REMARK    5  A    between atoms: N_24  and  C_25
REMARK    6  A    between atoms: C_30  and  O_32
REMARK    7  A    between atoms: O_32  and  C_33
REMARK    8  A    between atoms: C_33  and  C_34
REMARK                            x       y       z     vdW  Elec       q    Type
REMARK                         _______ _______ _______ _____ _____    ______ ____
ROOT
ATOM      1  C   UNL     1       0.012  -2.902   0.237  0.00  0.00    +0.250 C 
ATOM      2  O   UNL     1      -0.448  -2.465   1.275  0.00  0.00    -0.270 OA
ATOM      3  N   UNL     1       0.001  -4.229   0.002  0.00  0.00    -0.296 N 
ATOM      4  C   UNL     1       0.604  -4.953  -1.142  0.00  0.00    +0.121 C 
ATOM      5  C   UNL     1       1.195  -6.239  -0.523  0.00  0.00    +0.100 C 
ATOM      6  C   UNL     1       0.389  -6.458   0.769  0.00  0.00    -0.004 C 
ATOM      7  C   UNL     1      -0.611  -5.294   0.831  0.00  0.00    +0.115 C 
ATOM      8  C   UNL     1       1.313  -6.418   1.982  0.00  0.00    -0.010 C 
ATOM      9  C   UNL     1       0.498  -6.695   3.248  0.00  0.00    -0.082 C 
ATOM     10  N   UNL     1      -0.144  -8.011   3.141  0.00  0.00    +0.379 N 
ATOM     11  C   UNL     1      -1.100  -8.012   2.027  0.00  0.00    -0.082 C 
ATOM     12  C   UNL     1      -0.353  -7.790   0.709  0.00  0.00    -0.010 C 
ATOM     13  H   UNL     1       0.560  -8.715   2.978  0.00  0.00    -0.086 HD
ATOM     14  H   UNL     1      -0.630  -8.217   4.000  0.00  0.00    -0.086 HD
ENDROOT
BRANCH   1  20
ATOM     15  C   UNL     1       1.242  -0.814  -0.352  0.00  0.00    +0.132 A 
ATOM     16  C   UNL     1       1.778   0.043  -1.302  0.00  0.00    +0.046 A 
ATOM     17  C   UNL     1       1.655  -0.248  -2.645  0.00  0.00    +0.004 A 
ATOM     18  C   UNL     1       0.996  -1.395  -3.056  0.00  0.00    +0.001 A 
ATOM     19  C   UNL     1       0.458  -2.259  -2.127  0.00  0.00    +0.017 A 
ATOM     20  C   UNL     1       0.581  -1.979  -0.763  0.00  0.00    +0.078 A 
BRANCH  15  22
ATOM     21  C   UNL     1       2.049   0.676   1.312  0.00  0.00    +0.277 C 
ATOM     22  O   UNL     1       1.363  -0.529   0.969  0.00  0.00    -0.494 OA
ENDBRANCH  15  22
ENDBRANCH   1  20
BRANCH   5  23
ATOM     23  C   UNL     1       2.655  -6.046  -0.206  0.00  0.00    +0.218 C 
ATOM     24  O   UNL     1       3.073  -4.945   0.083  0.00  0.00    -0.275 OA
ATOM     25  N   UNL     1       3.498  -7.097  -0.244  0.00  0.00    -0.310 N 
ATOM     26  H   UNL     1       3.164  -7.978  -0.475  0.00  0.00    +0.149 HD
BRANCH  25  27
ATOM     27  C   UNL     1       4.918  -6.910   0.064  0.00  0.00    +0.102 C 
ATOM     28  C   UNL     1       5.684  -6.506  -1.208  0.00  0.00    +0.025 C 
ATOM     29  C   UNL     1       6.739  -7.604  -1.454  0.00  0.00    +0.004 C 
ATOM     30  C   UNL     1       6.960  -8.238  -0.058  0.00  0.00    +0.033 C 
ATOM     31  C   UNL     1       5.534  -8.239   0.548  0.00  0.00    +0.139 C 
BRANCH  31  32
ATOM     32  O   UNL     1       5.595  -8.271   1.975  0.00  0.00    -0.370 OA
BRANCH  32  33
ATOM     33  C   UNL     1       5.489  -9.583   2.532  0.00  0.00    +0.195 C 
BRANCH  33  34
ATOM     34  C   UNL     1       5.566  -9.498   4.035  0.00  0.00    -0.022 A 
ATOM     35  C   UNL     1       6.792  -9.573   4.670  0.00  0.00    +0.006 A 
ATOM     36  C   UNL     1       6.862  -9.496   6.048  0.00  0.00    +0.000 A 
ATOM     37  C   UNL     1       5.707  -9.343   6.792  0.00  0.00    +0.000 A 
ATOM     38  C   UNL     1       4.481  -9.268   6.157  0.00  0.00    +0.000 A 
ATOM     39  C   UNL     1       4.411  -9.341   4.778  0.00  0.00    +0.006 A 
ENDBRANCH  33  34
ENDBRANCH  32  33
ENDBRANCH  31  32
ENDBRANCH  25  27
ENDBRANCH   5  23
TORSDOF 7
