REMARK  Name = ZINC13279848
REMARK  7 active torsions:
REMARK  status: ('A' for Active; 'I' for Inactive)
REMARK    1  A    between atoms: C_3  and  N_22
REMARK    2  A    between atoms: C_4  and  S_10
REMARK    3  A    between atoms: C_6  and  N_7
REMARK    4  A    between atoms: S_10  and  N_13
REMARK    5  A    between atoms: C_16  and  C_19
REMARK    6  A    between atoms: N_25  and  C_28
REMARK    7  A    between atoms: C_28  and  C_29
REMARK                            x       y       z     vdW  Elec       q    Type
REMARK                         _______ _______ _______ _____ _____    ______ ____
ROOT
ATOM      1  C   UNL     1      -0.005   2.458   1.689  0.00  0.00    +0.034 A 
ATOM      2  C   UNL     1       1.256   2.977   1.467  0.00  0.00    +0.027 A 
ATOM      3  C   UNL     1       2.305   2.131   1.133  0.00  0.00    +0.057 A 
ATOM      4  C   UNL     1       2.083   0.763   1.024  0.00  0.00    +0.129 A 
ATOM      5  C   UNL     1       0.820   0.251   1.248  0.00  0.00    +0.063 A 
ATOM      6  C   UNL     1      -0.223   1.097   1.580  0.00  0.00    +0.128 A 
ENDROOT
BRANCH   3   7
ATOM      7  N   UNL     1       3.581   2.652   0.907  0.00  0.00    -0.326 N 
ATOM      8  C   UNL     1       4.095   2.824  -0.460  0.00  0.00    +0.120 C 
ATOM      9  C   UNL     1       5.477   2.168  -0.546  0.00  0.00    +0.103 C 
ATOM     10  N   UNL     1       6.339   2.708   0.514  0.00  0.00    -0.291 NA
ATOM     11  C   UNL     1       5.814   2.381   1.846  0.00  0.00    +0.103 C 
ATOM     12  C   UNL     1       4.443   3.051   2.030  0.00  0.00    +0.120 C 
BRANCH  10  13
ATOM     13  C   UNL     1       7.721   2.235   0.361  0.00  0.00    +0.198 C 
BRANCH  13  14
ATOM     14  C   UNL     1       8.403   3.009  -0.769  0.00  0.00    +0.402 C 
ATOM     15  F   UNL     1       8.285   4.382  -0.531  0.00  0.00    -0.169 F 
ATOM     16  F   UNL     1       9.757   2.659  -0.822  0.00  0.00    -0.169 F 
ATOM     17  F   UNL     1       7.792   2.691  -1.987  0.00  0.00    -0.169 F 
ENDBRANCH  13  14
ENDBRANCH  10  13
ENDBRANCH   3   7
BRANCH   6  18
ATOM     18  N   UNL     1      -1.574   0.544   1.819  0.00  0.00    +0.056 N 
ATOM     19  O   UNL     1      -2.487   1.282   2.109  0.00  0.00    -0.126 OA
ATOM     20  O   UNL     1      -1.766  -0.646   1.724  0.00  0.00    -0.126 OA
ENDBRANCH   6  18
BRANCH   4  21
ATOM     21  S   UNL     1       3.410  -0.315   0.601  0.00  0.00    +0.063 S 
ATOM     22  O   UNL     1       3.581  -0.216  -0.807  0.00  0.00    -0.153 OA
ATOM     23  O   UNL     1       4.462  -0.044   1.517  0.00  0.00    -0.153 OA
BRANCH  21  24
ATOM     24  N   UNL     1       2.902  -1.861   0.908  0.00  0.00    -0.176 NA
ATOM     25  C   UNL     1       3.013  -2.431   2.257  0.00  0.00    +0.110 C 
ATOM     26  C   UNL     1       3.771  -3.760   2.170  0.00  0.00    +0.032 C 
ATOM     27  C   UNL     1       3.076  -4.673   1.157  0.00  0.00    +0.105 C 
ATOM     28  C   UNL     1       3.096  -4.014  -0.224  0.00  0.00    +0.032 C 
ATOM     29  C   UNL     1       2.326  -2.686  -0.162  0.00  0.00    +0.110 C 
BRANCH  27  30
ATOM     30  C   UNL     1       3.798  -5.994   1.094  0.00  0.00    +0.359 C 
ATOM     31  O   UNL     1       3.164  -7.032   1.005  0.00  0.00    -0.246 OA
ATOM     32  O   UNL     1       5.016  -6.025   1.132  0.00  0.00    -0.246 OA
ENDBRANCH  27  30
ENDBRANCH  21  24
ENDBRANCH   4  21
TORSDOF 7
