REMARK  Name = ZINC03353030
REMARK  5 active torsions:
REMARK  status: ('A' for Active; 'I' for Inactive)
REMARK    1  A    between atoms: N_14  and  N_15
REMARK    2  A    between atoms: C_16  and  C_18
REMARK    3  A    between atoms: C_23  and  N_24
REMARK    4  A    between atoms: N_24  and  S_25
REMARK    5  A    between atoms: S_25  and  C_28
REMARK                            x       y       z     vdW  Elec       q    Type
REMARK                         _______ _______ _______ _____ _____    ______ ____
ROOT
ATOM      1  N   UNL     1      -4.064   2.570  -0.333  0.00  0.00    -0.202 N 
ATOM      2  C   UNL     1      -5.380   2.280  -0.335  0.00  0.00    +0.265 C 
ATOM      3  O   UNL     1      -6.201   3.178  -0.340  0.00  0.00    -0.268 OA
ATOM      4  H   UNL     1      -3.410   1.854  -0.329  0.00  0.00    +0.178 HD
ENDROOT
BRANCH   1  18
ATOM      5  C   UNL     1       1.106   1.914  -1.270  0.00  0.00    +0.001 A 
ATOM      6  C   UNL     1      -0.082   1.204  -1.216  0.00  0.00    +0.001 A 
ATOM      7  C   UNL     1      -1.273   1.855  -0.966  0.00  0.00    +0.011 A 
ATOM      8  C   UNL     1      -1.281   3.231  -0.755  0.00  0.00    +0.010 A 
ATOM      9  C   UNL     1      -0.076   3.954  -0.809  0.00  0.00    -0.008 A 
ATOM     10  C   UNL     1       1.116   3.279  -1.069  0.00  0.00    +0.009 A 
ATOM     11  C   UNL     1      -0.369   5.381  -0.558  0.00  0.00    -0.008 A 
ATOM     12  C   UNL     1       0.454   6.505  -0.501  0.00  0.00    +0.009 A 
ATOM     13  C   UNL     1      -0.090   7.747  -0.244  0.00  0.00    +0.001 A 
ATOM     14  C   UNL     1      -1.453   7.889  -0.040  0.00  0.00    +0.001 A 
ATOM     15  C   UNL     1      -2.284   6.788  -0.092  0.00  0.00    +0.011 A 
ATOM     16  C   UNL     1      -1.752   5.527  -0.351  0.00  0.00    +0.010 A 
ATOM     17  C   UNL     1      -2.370   4.189  -0.466  0.00  0.00    +0.097 C 
ATOM     18  N   UNL     1      -3.641   3.906  -0.338  0.00  0.00    -0.179 NA
ENDBRANCH   1  18
BRANCH   2  19
ATOM     19  C   UNL     1      -5.825   0.876  -0.330  0.00  0.00    +0.061 A 
ATOM     20  C   UNL     1      -4.886  -0.160  -0.323  0.00  0.00    +0.015 A 
ATOM     21  C   UNL     1      -5.309  -1.470  -0.318  0.00  0.00    +0.001 A 
ATOM     22  C   UNL     1      -6.662  -1.770  -0.320  0.00  0.00    +0.002 A 
ATOM     23  C   UNL     1      -7.602  -0.760  -0.326  0.00  0.00    +0.025 A 
ATOM     24  C   UNL     1      -7.195   0.569  -0.325  0.00  0.00    +0.060 A 
BRANCH  24  25
ATOM     25  N   UNL     1      -8.139   1.587  -0.326  0.00  0.00    -0.215 N 
ATOM     26  H   UNL     1      -7.968   2.407  -0.816  0.00  0.00    +0.174 HD
BRANCH  25  27
ATOM     27  S   UNL     1      -9.557   1.403   0.509  0.00  0.00    +0.079 S 
ATOM     28  O   UNL     1     -10.223   2.657   0.460  0.00  0.00    -0.149 OA
ATOM     29  O   UNL     1     -10.155   0.204   0.035  0.00  0.00    -0.149 OA
BRANCH  27  30
ATOM     30  C   UNL     1      -9.135   1.123   2.197  0.00  0.00    +0.146 A 
ATOM     31  C   UNL     1      -8.959   2.024   3.194  0.00  0.00    +0.036 A 
ATOM     32  C   UNL     1      -8.627   1.570   4.457  0.00  0.00    +0.010 A 
ATOM     33  C   UNL     1      -8.487   0.237   4.661  0.00  0.00    +0.047 A 
ATOM     34  S   UNL     1      -8.835  -0.423   3.039  0.00  0.00    -0.077 S 
ENDBRANCH  27  30
ENDBRANCH  25  27
ENDBRANCH  24  25
ENDBRANCH   2  19
TORSDOF 5
