REMARK  Name = ZINC12863578
REMARK  6 active torsions:
REMARK  status: ('A' for Active; 'I' for Inactive)
REMARK    1  A    between atoms: C_4  and  C_7
REMARK    2  A    between atoms: C_12  and  S_22
REMARK    3  A    between atoms: C_14  and  C_16
REMARK    4  A    between atoms: C_16  and  N_56
REMARK    5  A    between atoms: S_22  and  C_23
REMARK    6  A    between atoms: C_26  and  C_28
REMARK                            x       y       z     vdW  Elec       q    Type
REMARK                         _______ _______ _______ _____ _____    ______ ____
ROOT
ATOM      1  C   UNL     1       3.659   2.163  -0.022  0.00  0.00    +0.001 A 
ATOM      2  C   UNL     1       4.600   1.939   0.926  0.00  0.00    +0.056 A 
ATOM      3  S   UNL     1       5.910   3.064   0.486  0.00  0.00    -0.076 S 
ATOM      4  C   UNL     1       5.171   3.812  -0.941  0.00  0.00    +0.113 A 
ATOM      5  C   UNL     1       3.922   3.166  -1.048  0.00  0.00    +0.048 A 
ATOM      6  C   UNL     1       3.108   3.587  -2.133  0.00  0.00    +0.118 A 
ATOM      7  N   UNL     1       3.557   4.527  -2.951  0.00  0.00    -0.227 NA
ATOM      8  C   UNL     1       4.741   5.090  -2.791  0.00  0.00    +0.115 A 
ATOM      9  N   UNL     1       5.540   4.741  -1.802  0.00  0.00    -0.227 NA
ENDROOT
BRANCH   1  13
ATOM     10  C   UNL     1       0.002  -0.004   0.001  0.00  0.00    +0.000 A 
ATOM     11  C   UNL     1       0.830  -0.062  -1.105  0.00  0.00    +0.001 A 
ATOM     12  C   UNL     1       2.018   0.639  -1.119  0.00  0.00    +0.008 A 
ATOM     13  C   UNL     1       2.384   1.407  -0.014  0.00  0.00    -0.017 A 
ATOM     14  C   UNL     1       1.545   1.462   1.099  0.00  0.00    +0.008 A 
ATOM     15  C   UNL     1       0.359   0.757   1.100  0.00  0.00    +0.001 A 
ENDBRANCH   1  13
BRANCH   8  16
ATOM     16  C   UNL     1       5.188   6.154  -3.760  0.00  0.00    -0.001 C 
BRANCH  16  22
ATOM     17  C   UNL     1       7.158   4.913  -4.424  0.00  0.00    -0.078 C 
ATOM     18  C   UNL     1       7.802   4.148  -5.582  0.00  0.00    -0.019 C 
ATOM     19  C   UNL     1       8.076   5.115  -6.737  0.00  0.00    -0.004 C 
ATOM     20  C   UNL     1       6.762   5.778  -7.160  0.00  0.00    -0.019 C 
ATOM     21  C   UNL     1       6.148   6.495  -5.956  0.00  0.00    -0.078 C 
ATOM     22  N   UNL     1       5.886   5.506  -4.890  0.00  0.00    +0.384 N 
ATOM     23  H   UNL     1       5.289   4.760  -5.267  0.00  0.00    -0.081 HD
ENDBRANCH  16  22
ENDBRANCH   8  16
BRANCH   6  24
ATOM     24  S   UNL     1       1.521   2.867  -2.389  0.00  0.00    -0.009 S 
BRANCH  24  25
ATOM     25  C   UNL     1       1.010   3.753  -3.824  0.00  0.00    +0.284 A 
ATOM     26  N   UNL     1       1.696   4.681  -4.449  0.00  0.00    -0.100 NA
ATOM     27  N   UNL     1       1.020   5.109  -5.456  0.00  0.00    -0.106 NA
ATOM     28  C   UNL     1      -0.128   4.479  -5.509  0.00  0.00    +0.251 A 
ATOM     29  O   UNL     1      -0.159   3.608  -4.476  0.00  0.00    -0.411 OA
BRANCH  28  30
ATOM     30  C   UNL     1      -1.193   4.684  -6.512  0.00  0.00    +0.057 A 
ATOM     31  C   UNL     1      -1.037   5.628  -7.534  0.00  0.00    +0.016 A 
ATOM     32  C   UNL     1      -2.061   5.778  -8.451  0.00  0.00    +0.020 A 
ATOM     33  C   UNL     1      -3.201   5.004  -8.325  0.00  0.00    +0.111 A 
ATOM     34  N   UNL     1      -3.324   4.125  -7.349  0.00  0.00    -0.263 NA
ATOM     35  C   UNL     1      -2.374   3.942  -6.455  0.00  0.00    +0.124 A 
ENDBRANCH  28  30
ENDBRANCH  24  25
ENDBRANCH   6  24
TORSDOF 6
