REMARK  Name = ZINC40325203
REMARK  15 active torsions:
REMARK  status: ('A' for Active; 'I' for Inactive)
REMARK    1  A    between atoms: C_1  and  C_2
REMARK    2  A    between atoms: C_2  and  S_3
REMARK    3  A    between atoms: S_3  and  C_6
REMARK    4  A    between atoms: C_9  and  C_12
REMARK    5  A    between atoms: C_14  and  C_17
REMARK    6  A    between atoms: N_19  and  C_20
REMARK    7  A    between atoms: C_20  and  C_21
REMARK    8  A    between atoms: C_21  and  C_23
REMARK    9  A    between atoms: C_21  and  N_33
REMARK   10  A    between atoms: C_26  and  O_31
REMARK   11  A    between atoms: C_27  and  O_29
REMARK   12  A    between atoms: O_29  and  C_30
REMARK   13  A    between atoms: O_31  and  C_32
REMARK   14  A    between atoms: N_33  and  C_34
REMARK   15  A    between atoms: N_33  and  C_35
REMARK                            x       y       z     vdW  Elec       q    Type
REMARK                         _______ _______ _______ _____ _____    ______ ____
ROOT
ATOM      1  C   UNL     1       1.850  -9.919   0.216  0.00  0.00    +0.266 C 
ATOM      2  O   UNL     1       2.969  -9.738  -0.221  0.00  0.00    -0.268 OA
ATOM      3  N   UNL     1       1.352 -11.169   0.299  0.00  0.00    -0.311 N 
ATOM      4  H   UNL     1       0.459 -11.313   0.648  0.00  0.00    +0.149 HD
ENDROOT
BRANCH   1   7
ATOM      5  C   UNL     1       0.396  -6.665   1.118  0.00  0.00    +0.168 A 
ATOM      6  C   UNL     1       1.424  -7.408   0.629  0.00  0.00    +0.086 A 
ATOM      7  C   UNL     1       1.031  -8.764   0.659  0.00  0.00    +0.168 A 
ATOM      8  N   UNL     1      -0.185  -8.823   1.148  0.00  0.00    -0.073 NA
ATOM      9  O   UNL     1      -0.603  -7.504   1.449  0.00  0.00    -0.354 OA
BRANCH   5  13
ATOM     10  C   UNL     1       0.351  -2.438   1.544  0.00  0.00    +0.088 A 
ATOM     11  C   UNL     1      -0.752  -3.181   1.926  0.00  0.00    +0.027 A 
ATOM     12  C   UNL     1      -0.744  -4.554   1.790  0.00  0.00    +0.013 A 
ATOM     13  C   UNL     1       0.380  -5.194   1.266  0.00  0.00    +0.020 A 
ATOM     14  C   UNL     1       1.490  -4.439   0.882  0.00  0.00    +0.013 A 
ATOM     15  C   UNL     1       1.467  -3.066   1.018  0.00  0.00    +0.027 A 
BRANCH  10  16
ATOM     16  S   UNL     1       0.333  -0.685   1.720  0.00  0.00    -0.003 S 
ATOM     17  O   UNL     1       1.700  -0.319   1.841  0.00  0.00    -0.169 OA
ATOM     18  O   UNL     1      -0.580  -0.437   2.780  0.00  0.00    -0.169 OA
BRANCH  16  20
ATOM     19  C   UNL     1      -0.406   1.462   0.196  0.00  0.00    +0.028 C 
ATOM     20  C   UNL     1      -0.344  -0.066   0.155  0.00  0.00    +0.168 C 
ENDBRANCH  16  20
ENDBRANCH  10  16
ENDBRANCH   5  13
ENDBRANCH   1   7
BRANCH   3  21
ATOM     21  C   UNL     1       2.161 -12.309  -0.139  0.00  0.00    +0.094 C 
BRANCH  21  22
ATOM     22  C   UNL     1       1.414 -13.610   0.164  0.00  0.00    -0.021 C 
BRANCH  22  23
ATOM     23  C   UNL     1       0.149 -13.665  -0.654  0.00  0.00    -0.056 A 
ATOM     24  C   UNL     1       0.202 -14.049  -1.981  0.00  0.00    +0.006 A 
ATOM     25  C   UNL     1      -0.955 -14.101  -2.735  0.00  0.00    +0.049 A 
ATOM     26  C   UNL     1      -2.172 -13.767  -2.161  0.00  0.00    +0.161 A 
ATOM     27  C   UNL     1      -2.225 -13.381  -0.826  0.00  0.00    +0.162 A 
ATOM     28  C   UNL     1      -1.062 -13.335  -0.074  0.00  0.00    +0.051 A 
BRANCH  27  29
ATOM     29  O   UNL     1      -3.416 -13.052  -0.258  0.00  0.00    -0.491 OA
ATOM     30  C   UNL     1      -3.395 -12.665   1.117  0.00  0.00    +0.277 C 
ENDBRANCH  27  29
BRANCH  26  31
ATOM     31  O   UNL     1      -3.311 -13.817  -2.902  0.00  0.00    -0.491 OA
ATOM     32  C   UNL     1      -3.181 -14.222  -4.266  0.00  0.00    +0.277 C 
ENDBRANCH  26  31
ENDBRANCH  22  23
BRANCH  22  33
ATOM     33  N   UNL     1       2.268 -14.756  -0.177  0.00  0.00    +0.382 N 
ATOM     34  C   UNL     1       3.500 -14.704   0.621  0.00  0.00    -0.096 C 
ATOM     35  C   UNL     1       1.550 -16.005   0.111  0.00  0.00    -0.096 C 
ATOM     36  H   UNL     1       2.501 -14.721  -1.159  0.00  0.00    -0.082 HD
ENDBRANCH  22  33
ENDBRANCH  21  22
ENDBRANCH   3  21
TORSDOF 10
