REMARK  Name = ZINC09549989
REMARK  11 active torsions:
REMARK  status: ('A' for Active; 'I' for Inactive)
REMARK    1  A    between atoms: C_1  and  C_2
REMARK    2  A    between atoms: C_2  and  C_25
REMARK    3  A    between atoms: N_5  and  C_9
REMARK    4  A    between atoms: C_9  and  C_10
REMARK    5  A    between atoms: C_10  and  C_12
REMARK    6  A    between atoms: C_15  and  C_17
REMARK    7  A    between atoms: C_17  and  N_18
REMARK    8  A    between atoms: C_19  and  C_21
REMARK    9  A    between atoms: C_21  and  C_22
REMARK   10  A    between atoms: C_21  and  C_23
REMARK   11  A    between atoms: C_21  and  C_24
REMARK                            x       y       z     vdW  Elec       q    Type
REMARK                         _______ _______ _______ _____ _____    ______ ____
ROOT
ATOM      1  C   UNL     1       8.068   3.905   1.063  0.00  0.00    +0.050 C 
ATOM      2  C   UNL     1       8.022   2.456   0.574  0.00  0.00    +0.168 C 
ATOM      3  C   UNL     1       6.763   1.768   1.063  0.00  0.00    +0.254 C 
ATOM      4  O   UNL     1       6.432   1.577   2.214  0.00  0.00    -0.272 OA
ATOM      5  N   UNL     1       6.087   1.413  -0.048  0.00  0.00    -0.216 N 
ATOM      6  C   UNL     1       6.740   1.773  -1.159  0.00  0.00    +0.310 C 
ATOM      7  O   UNL     1       6.331   1.556  -2.283  0.00  0.00    -0.252 OA
ATOM      8  N   UNL     1       7.898   2.404  -0.893  0.00  0.00    -0.279 N 
ATOM      9  H   UNL     1       8.530   2.753  -1.540  0.00  0.00    +0.152 HD
ENDROOT
BRANCH   2  10
ATOM     10  C   UNL     1       9.247   1.706   1.030  0.00  0.00    +0.138 A 
ATOM     11  C   UNL     1      10.409   1.658   0.364  0.00  0.00    +0.056 A 
ATOM     12  C   UNL     1      11.309   0.824   1.171  0.00  0.00    +0.020 A 
ATOM     13  C   UNL     1      12.629   0.400   1.033  0.00  0.00    +0.011 A 
ATOM     14  C   UNL     1      13.188  -0.401   1.991  0.00  0.00    +0.001 A 
ATOM     15  C   UNL     1      12.448  -0.792   3.098  0.00  0.00    +0.004 A 
ATOM     16  C   UNL     1      11.141  -0.382   3.251  0.00  0.00    +0.047 A 
ATOM     17  C   UNL     1      10.555   0.432   2.289  0.00  0.00    +0.135 A 
ATOM     18  O   UNL     1       9.331   0.983   2.160  0.00  0.00    -0.457 OA
ENDBRANCH   2  10
BRANCH   5  19
ATOM     19  C   UNL     1       4.800   0.713  -0.040  0.00  0.00    +0.198 C 
BRANCH  19  20
ATOM     20  C   UNL     1       3.680   1.722  -0.023  0.00  0.00    +0.187 C 
ATOM     21  O   UNL     1       3.933   2.910  -0.019  0.00  0.00    -0.290 OA
BRANCH  20  22
ATOM     22  C   UNL     1       2.337   1.286  -0.013  0.00  0.00    +0.056 A 
ATOM     23  C   UNL     1       1.169   2.043   0.002  0.00  0.00    +0.019 A 
ATOM     24  C   UNL     1      -0.016   1.357   0.009  0.00  0.00    +0.013 A 
ATOM     25  C   UNL     1       0.002  -0.004   0.002  0.00  0.00    +0.008 A 
ATOM     26  S   UNL     1       1.695  -0.378  -0.016  0.00  0.00    -0.089 S 
BRANCH  25  27
ATOM     27  C   UNL     1      -1.167  -0.956   0.008  0.00  0.00    +0.146 C 
BRANCH  27  28
ATOM     28  N   UNL     1      -1.558  -1.257  -1.371  0.00  0.00    -0.310 N 
ATOM     29  C   UNL     1      -2.588  -2.092  -1.612  0.00  0.00    +0.219 C 
ATOM     30  O   UNL     1      -3.191  -2.595  -0.687  0.00  0.00    -0.275 OA
ATOM     31  H   UNL     1      -1.077  -0.855  -2.111  0.00  0.00    +0.149 HD
BRANCH  29  32
ATOM     32  C   UNL     1      -2.991  -2.401  -3.031  0.00  0.00    +0.039 C 
ATOM     33  C   UNL     1      -4.178  -3.368  -3.025  0.00  0.00    +0.020 C 
ATOM     34  C   UNL     1      -3.391  -1.107  -3.741  0.00  0.00    +0.020 C 
ATOM     35  C   UNL     1      -1.814  -3.044  -3.767  0.00  0.00    +0.020 C 
ENDBRANCH  29  32
ENDBRANCH  27  28
ENDBRANCH  25  27
ENDBRANCH  20  22
ENDBRANCH  19  20
ENDBRANCH   5  19
TORSDOF 7
