REMARK  Name = ZINC12203424
REMARK  9 active torsions:
REMARK  status: ('A' for Active; 'I' for Inactive)
REMARK    1  A    between atoms: C_1  and  O_2
REMARK    2  A    between atoms: O_2  and  C_3
REMARK    3  A    between atoms: C_3  and  C_5
REMARK    4  A    between atoms: C_6  and  O_27
REMARK    5  A    between atoms: C_16  and  C_17
REMARK    6  A    between atoms: C_16  and  N_61
REMARK    7  A    between atoms: O_27  and  C_28
REMARK    8  A    between atoms: C_28  and  C_29
REMARK    9  A    between atoms: C_29  and  C_30
REMARK                            x       y       z     vdW  Elec       q    Type
REMARK                         _______ _______ _______ _____ _____    ______ ____
ROOT
ATOM      1  C   UNL     1       0.594  -0.682  -3.618  0.00  0.00    +0.120 A 
ATOM      2  C   UNL     1      -0.385  -1.743  -3.855  0.00  0.00    +0.141 A 
ATOM      3  C   UNL     1      -1.203  -2.110  -2.806  0.00  0.00    +0.116 A 
ATOM      4  C   UNL     1      -1.052  -1.470  -1.575  0.00  0.00    +0.255 A 
ATOM      5  O   UNL     1      -1.784  -1.787  -0.651  0.00  0.00    -0.268 OA
ATOM      6  N   UNL     1      -0.121  -0.509  -1.371  0.00  0.00    -0.313 N 
ATOM      7  C   UNL     1       0.673  -0.091  -2.365  0.00  0.00    +0.038 A 
ATOM      8  C   UNL     1       1.665   1.036  -2.208  0.00  0.00    +0.036 C 
ATOM      9  C   UNL     1       2.178   1.131  -0.773  0.00  0.00    -0.072 C 
ATOM     10  C   UNL     1      -0.076   1.562  -0.022  0.00  0.00    -0.056 C 
ATOM     11  C   UNL     1      -0.032   0.033  -0.011  0.00  0.00    +0.106 C 
ATOM     12  N   UNL     1       1.315   2.052  -0.006  0.00  0.00    +0.384 N 
ATOM     13  H   UNL     1       1.645   2.089   0.966  0.00  0.00    -0.081 HD
ENDROOT
BRANCH   1  14
ATOM     14  C   UNL     1       1.489  -0.244  -4.701  0.00  0.00    +0.344 C 
ATOM     15  O   UNL     1       2.468  -0.905  -4.986  0.00  0.00    -0.245 OA
BRANCH  14  17
ATOM     16  C   UNL     1       2.149   1.262  -6.433  0.00  0.00    +0.280 C 
ATOM     17  O   UNL     1       1.223   0.891  -5.378  0.00  0.00    -0.464 OA
ENDBRANCH  14  17
ENDBRANCH   1  14
BRANCH  12  18
ATOM     18  C   UNL     1       1.381   3.410  -0.587  0.00  0.00    -0.041 C 
BRANCH  18  19
ATOM     19  C   UNL     1       0.666   4.369   0.330  0.00  0.00    -0.036 A 
ATOM     20  C   UNL     1      -0.599   4.779   0.038  0.00  0.00    +0.004 A 
ATOM     21  C   UNL     1      -1.278   5.661   0.877  0.00  0.00    +0.002 A 
ATOM     22  C   UNL     1      -0.692   6.146   2.005  0.00  0.00    +0.030 A 
ATOM     23  C   UNL     1       0.615   5.749   2.337  0.00  0.00    +0.089 A 
ATOM     24  C   UNL     1       1.304   4.848   1.487  0.00  0.00    +0.091 A 
ATOM     25  N   UNL     1       2.548   4.467   1.797  0.00  0.00    -0.252 NA
ATOM     26  C   UNL     1       3.119   4.932   2.885  0.00  0.00    +0.131 A 
ATOM     27  C   UNL     1       2.440   5.821   3.723  0.00  0.00    +0.131 A 
ATOM     28  N   UNL     1       1.218   6.209   3.439  0.00  0.00    -0.252 NA
ENDBRANCH  18  19
ENDBRANCH  12  18
BRANCH   2  29
ATOM     29  O   UNL     1      -0.485  -2.346  -5.063  0.00  0.00    -0.491 OA
BRANCH  29  30
ATOM     30  C   UNL     1      -1.471  -3.371  -5.197  0.00  0.00    +0.234 C 
BRANCH  30  31
ATOM     31  C   UNL     1      -1.436  -3.930  -6.620  0.00  0.00    +0.083 C 
BRANCH  31  32
ATOM     32  C   UNL     1      -2.476  -5.011  -6.761  0.00  0.00    -0.007 A 
ATOM     33  C   UNL     1      -3.774  -4.903  -7.137  0.00  0.00    +0.011 A 
ATOM     34  C   UNL     1      -4.551  -6.045  -7.200  0.00  0.00    +0.008 A 
ATOM     35  C   UNL     1      -3.994  -7.238  -6.876  0.00  0.00    +0.045 A 
ATOM     36  S   UNL     1      -2.321  -6.766  -6.471  0.00  0.00    -0.101 S 
ENDBRANCH  31  32
ENDBRANCH  30  31
ENDBRANCH  29  30
ENDBRANCH   2  29
TORSDOF 8
