REMARK  Name = ZINC63140591
REMARK  8 active torsions:
REMARK  status: ('A' for Active; 'I' for Inactive)
REMARK    1  A    between atoms: C_1  and  O_2
REMARK    2  A    between atoms: O_2  and  C_3
REMARK    3  A    between atoms: C_6  and  C_9
REMARK    4  A    between atoms: C_9  and  C_10
REMARK    5  A    between atoms: C_10  and  N_11
REMARK    6  A    between atoms: C_31  and  C_33
REMARK    7  A    between atoms: C_38  and  O_39
REMARK    8  A    between atoms: O_39  and  C_40
REMARK                            x       y       z     vdW  Elec       q    Type
REMARK                         _______ _______ _______ _____ _____    ______ ____
ROOT
ATOM      1  N   UNL     1       4.482  -3.355  -5.207  0.00  0.00    -0.291 N 
ATOM      2  C   UNL     1       4.549  -4.824  -5.316  0.00  0.00    +0.203 C 
ATOM      3  C   UNL     1       4.227  -5.215  -6.742  0.00  0.00    +0.234 C 
ATOM      4  O   UNL     1       3.485  -6.141  -6.994  0.00  0.00    -0.274 OA
ATOM      5  N   UNL     1       4.814  -4.473  -7.738  0.00  0.00    -0.279 N 
ATOM      6  C   UNL     1       5.738  -3.452  -7.290  0.00  0.00    +0.167 C 
ATOM      7  C   UNL     1       5.095  -2.639  -6.195  0.00  0.00    +0.237 C 
ATOM      8  O   UNL     1       5.124  -1.426  -6.191  0.00  0.00    -0.274 OA
ATOM      9  C   UNL     1       6.408  -2.589  -8.327  0.00  0.00    +0.065 C 
ATOM     10  C   UNL     1       5.785  -2.831  -9.674  0.00  0.00    -0.034 C 
ATOM     11  C   UNL     1       5.453  -2.011 -10.661  0.00  0.00    -0.001 A 
ATOM     12  C   UNL     1       5.612  -0.556 -10.823  0.00  0.00    +0.010 A 
ATOM     13  C   UNL     1       5.141  -0.026 -11.982  0.00  0.00    +0.001 A 
ATOM     14  C   UNL     1       4.534  -0.787 -12.986  0.00  0.00    +0.002 A 
ATOM     15  C   UNL     1       4.350  -2.130 -12.924  0.00  0.00    +0.026 A 
ATOM     16  C   UNL     1       4.808  -2.802 -11.753  0.00  0.00    +0.043 A 
ATOM     17  N   UNL     1       4.771  -4.062 -11.439  0.00  0.00    -0.375 N 
ATOM     18  C   UNL     1       5.406  -4.240 -10.127  0.00  0.00    +0.131 C 
ATOM     19  C   UNL     1       4.408  -4.763  -9.105  0.00  0.00    +0.137 C 
ATOM     20  H   UNL     1       4.386  -4.768 -11.981  0.00  0.00    +0.160 HD
ENDROOT
BRANCH  19  21
ATOM     21  C   UNL     1       4.237  -6.252  -9.262  0.00  0.00    +0.017 A 
ATOM     22  C   UNL     1       3.106  -6.758  -9.873  0.00  0.00    +0.009 A 
ATOM     23  C   UNL     1       2.949  -8.124 -10.017  0.00  0.00    +0.001 A 
ATOM     24  C   UNL     1       3.923  -8.987  -9.549  0.00  0.00    +0.004 A 
ATOM     25  C   UNL     1       5.056  -8.486  -8.938  0.00  0.00    +0.046 A 
ATOM     26  C   UNL     1       5.218  -7.115  -8.797  0.00  0.00    +0.125 A 
BRANCH  26  27
ATOM     27  O   UNL     1       6.335  -6.620  -8.201  0.00  0.00    -0.495 OA
ATOM     28  C   UNL     1       7.303  -7.567  -7.747  0.00  0.00    +0.277 C 
ENDBRANCH  26  27
ENDBRANCH  19  21
BRANCH   1  29
ATOM     29  C   UNL     1       3.788  -2.697  -4.097  0.00  0.00    +0.113 C 
BRANCH  29  30
ATOM     30  C   UNL     1       2.322  -2.473  -4.474  0.00  0.00    +0.054 C 
BRANCH  30  34
ATOM     31  C   UNL     1       0.297  -0.553  -1.238  0.00  0.00    +0.120 A 
ATOM     32  C   UNL     1       0.908   0.208  -2.224  0.00  0.00    +0.046 A 
ATOM     33  C   UNL     1       1.563  -0.415  -3.269  0.00  0.00    +0.007 A 
ATOM     34  C   UNL     1       1.608  -1.796  -3.333  0.00  0.00    -0.046 A 
ATOM     35  C   UNL     1       0.999  -2.556  -2.351  0.00  0.00    +0.007 A 
ATOM     36  C   UNL     1       0.349  -1.938  -1.301  0.00  0.00    +0.046 A 
BRANCH  31  38
ATOM     37  C   UNL     1      -0.360   1.487  -0.208  0.00  0.00    +0.277 C 
ATOM     38  O   UNL     1      -0.347   0.058  -0.208  0.00  0.00    -0.495 OA
ENDBRANCH  31  38
ENDBRANCH  30  34
ENDBRANCH  29  30
ENDBRANCH   1  29
TORSDOF 6
