REMARK  Name = ZINC59950144
REMARK  12 active torsions:
REMARK  status: ('A' for Active; 'I' for Inactive)
REMARK    1  A    between atoms: C_1  and  C_2
REMARK    2  A    between atoms: C_2  and  C_3
REMARK    3  A    between atoms: C_3  and  N_4
REMARK    4  A    between atoms: N_4  and  C_5
REMARK    5  A    between atoms: N_4  and  C_22
REMARK    6  A    between atoms: C_5  and  C_6
REMARK    7  A    between atoms: N_11  and  C_12
REMARK    8  A    between atoms: C_15  and  C_18
REMARK    9  A    between atoms: C_19  and  C_21
REMARK   10  A    between atoms: C_22  and  C_23
REMARK   11  A    between atoms: N_25  and  C_26
REMARK   12  A    between atoms: C_31  and  C_32
REMARK                            x       y       z     vdW  Elec       q    Type
REMARK                         _______ _______ _______ _____ _____    ______ ____
ROOT
ATOM      1  N   UNL     1       1.258  -0.966   1.335  0.00  0.00    +0.389 N 
ATOM      2  H   UNL     1       0.320  -1.268   1.116  0.00  0.00    -0.081 HD
ENDROOT
BRANCH   1   3
ATOM      3  C   UNL     1       1.281   0.496   1.477  0.00  0.00    -0.078 C 
BRANCH   3   5
ATOM      4  C   UNL     1       0.602   2.654   0.416  0.00  0.00    +0.002 C 
ATOM      5  C   UNL     1       0.700   1.140   0.216  0.00  0.00    -0.022 C 
ENDBRANCH   3   5
ENDBRANCH   1   3
BRANCH   1   6
ATOM      6  C   UNL     1       1.691  -1.587   2.594  0.00  0.00    -0.021 C 
BRANCH   6   7
ATOM      7  C   UNL     1       0.691  -1.276   3.678  0.00  0.00    +0.034 A 
ATOM      8  C   UNL     1      -0.308  -2.138   3.988  0.00  0.00    +0.070 A 
ATOM      9  S   UNL     1      -1.126  -1.242   5.298  0.00  0.00    -0.060 S 
ATOM     10  C   UNL     1      -0.127   0.112   5.312  0.00  0.00    +0.172 A 
ATOM     11  N   UNL     1       0.752  -0.154   4.371  0.00  0.00    -0.231 NA
ATOM     12  N   UNL     1      -0.208   1.238   6.125  0.00  0.00    -0.219 N 
ATOM     13  C   UNL     1       0.747   2.187   6.060  0.00  0.00    +0.223 C 
ATOM     14  O   UNL     1       1.629   2.103   5.232  0.00  0.00    -0.275 OA
ATOM     15  C   UNL     1       0.718   3.353   7.015  0.00  0.00    +0.110 C 
BRANCH  12  16
ATOM     16  C   UNL     1      -1.282   1.386   7.012  0.00  0.00    +0.043 A 
ATOM     17  C   UNL     1      -2.213   2.397   6.815  0.00  0.00    +0.024 A 
ATOM     18  C   UNL     1      -3.271   2.539   7.691  0.00  0.00    +0.005 A 
ATOM     19  C   UNL     1      -3.404   1.676   8.764  0.00  0.00    -0.050 A 
ATOM     20  C   UNL     1      -2.478   0.669   8.963  0.00  0.00    +0.005 A 
ATOM     21  C   UNL     1      -1.421   0.517   8.087  0.00  0.00    +0.024 A 
ATOM     22  C   UNL     1      -4.560   1.835   9.718  0.00  0.00    +0.044 C 
ENDBRANCH  12  16
ENDBRANCH   6   7
ENDBRANCH   1   6
BRANCH   1  23
ATOM     23  C   UNL     1       2.166  -1.368   0.253  0.00  0.00    +0.019 C 
BRANCH  23  24
ATOM     24  C   UNL     1       2.022  -2.846  -0.002  0.00  0.00    +0.201 C 
ATOM     25  O   UNL     1       1.165  -3.480   0.576  0.00  0.00    -0.278 OA
ATOM     26  N   UNL     1       2.846  -3.463  -0.871  0.00  0.00    -0.287 N 
ATOM     27  H   UNL     1       3.573  -2.971  -1.284  0.00  0.00    +0.155 HD
BRANCH  26  28
ATOM     28  C   UNL     1       2.653  -4.815  -1.179  0.00  0.00    +0.036 A 
ATOM     29  C   UNL     1       2.032  -5.655  -0.264  0.00  0.00    +0.023 A 
ATOM     30  C   UNL     1       1.843  -6.988  -0.570  0.00  0.00    +0.002 A 
ATOM     31  C   UNL     1       2.272  -7.487  -1.787  0.00  0.00    +0.000 A 
ATOM     32  C   UNL     1       2.891  -6.653  -2.700  0.00  0.00    +0.005 A 
ATOM     33  C   UNL     1       3.077  -5.317  -2.402  0.00  0.00    -0.029 A 
ATOM     34  C   UNL     1       3.745  -4.408  -3.400  0.00  0.00    +0.045 C 
ENDBRANCH  26  28
ENDBRANCH  23  24
ENDBRANCH   1  23
TORSDOF 8
