REMARK  Name = ZINC22319376
REMARK  12 active torsions:
REMARK  status: ('A' for Active; 'I' for Inactive)
REMARK    1  A    between atoms: C_1  and  C_2
REMARK    2  A    between atoms: C_5  and  S_8
REMARK    3  A    between atoms: S_8  and  N_11
REMARK    4  A    between atoms: N_11  and  C_12
REMARK    5  A    between atoms: N_11  and  C_29
REMARK    6  A    between atoms: C_12  and  C_13
REMARK    7  A    between atoms: N_15  and  C_16
REMARK    8  A    between atoms: C_19  and  C_27
REMARK    9  A    between atoms: C_19  and  C_28
REMARK   10  A    between atoms: C_32  and  C_35
REMARK   11  A    between atoms: C_35  and  C_36
REMARK   12  A    between atoms: C_35  and  C_37
REMARK                            x       y       z     vdW  Elec       q    Type
REMARK                         _______ _______ _______ _____ _____    ______ ____
ROOT
ATOM      1  N   UNL     1       1.376  -0.471  -0.005  0.00  0.00    -0.194 N 
ENDROOT
BRANCH   1   2
ATOM      2  C   UNL     1       2.058  -0.576  -1.220  0.00  0.00    +0.052 A 
ATOM      3  C   UNL     1       3.061  -1.524  -1.375  0.00  0.00    +0.025 A 
ATOM      4  C   UNL     1       3.730  -1.629  -2.579  0.00  0.00    +0.006 A 
ATOM      5  C   UNL     1       3.408  -0.784  -3.626  0.00  0.00    -0.045 A 
ATOM      6  C   UNL     1       2.413   0.164  -3.473  0.00  0.00    +0.006 A 
ATOM      7  C   UNL     1       1.737   0.271  -2.274  0.00  0.00    +0.025 A 
BRANCH   5   8
ATOM      8  C   UNL     1       4.144  -0.898  -4.937  0.00  0.00    +0.013 C 
ATOM      9  C   UNL     1       5.636  -0.651  -4.707  0.00  0.00    +0.012 C 
ATOM     10  C   UNL     1       3.941  -2.300  -5.515  0.00  0.00    +0.012 C 
ENDBRANCH   5   8
ENDBRANCH   1   2
BRANCH   1  11
ATOM     11  S   UNL     1       2.211  -0.137   1.386  0.00  0.00    +0.075 S 
ATOM     12  O   UNL     1       3.466   0.397   0.988  0.00  0.00    -0.150 OA
ATOM     13  O   UNL     1       1.317   0.569   2.236  0.00  0.00    -0.150 OA
BRANCH  11  18
ATOM     14  C   UNL     1       3.355  -5.410   4.087  0.00  0.00    +0.044 C 
ATOM     15  C   UNL     1       3.070  -4.092   3.413  0.00  0.00    -0.050 A 
ATOM     16  C   UNL     1       4.021  -3.515   2.593  0.00  0.00    +0.005 A 
ATOM     17  C   UNL     1       3.759  -2.307   1.974  0.00  0.00    +0.029 A 
ATOM     18  C   UNL     1       2.545  -1.677   2.175  0.00  0.00    +0.109 A 
ATOM     19  C   UNL     1       1.595  -2.252   2.999  0.00  0.00    +0.029 A 
ATOM     20  C   UNL     1       1.856  -3.462   3.614  0.00  0.00    +0.005 A 
ENDBRANCH  11  18
ENDBRANCH   1  11
BRANCH   1  21
ATOM     21  C   UNL     1      -0.076  -0.656   0.038  0.00  0.00    +0.227 C 
BRANCH  21  22
ATOM     22  C   UNL     1      -0.758   0.647  -0.292  0.00  0.00    +0.233 C 
ATOM     23  O   UNL     1      -0.096   1.633  -0.539  0.00  0.00    -0.274 OA
ATOM     24  N   UNL     1      -2.104   0.715  -0.318  0.00  0.00    -0.307 N 
ATOM     25  H   UNL     1      -2.705  -0.180  -0.099  0.00  0.00    +0.149 HD
BRANCH  24  26
ATOM     26  C   UNL     1      -2.767   1.982  -0.639  0.00  0.00    +0.110 C 
ATOM     27  C   UNL     1      -4.168   1.994  -0.022  0.00  0.00    +0.074 C 
ATOM     28  C   UNL     1      -4.942   3.181  -0.609  0.00  0.00    +0.107 C 
ATOM     29  O   UNL     1      -5.115   2.959  -2.009  0.00  0.00    -0.486 OA
ATOM     30  C   UNL     1      -4.023   2.607  -2.736  0.00  0.00    +0.126 A 
ATOM     31  C   UNL     1      -2.870   2.129  -2.136  0.00  0.00    +0.015 A 
ATOM     32  C   UNL     1      -1.783   1.776  -2.917  0.00  0.00    +0.009 A 
ATOM     33  C   UNL     1      -1.841   1.901  -4.291  0.00  0.00    +0.001 A 
ATOM     34  C   UNL     1      -2.989   2.381  -4.893  0.00  0.00    +0.004 A 
ATOM     35  C   UNL     1      -4.077   2.733  -4.120  0.00  0.00    +0.046 A 
ATOM     36  C   UNL     1      -6.310   3.290   0.068  0.00  0.00    +0.055 C 
ATOM     37  C   UNL     1      -4.152   4.472  -0.386  0.00  0.00    +0.055 C 
ENDBRANCH  24  26
ENDBRANCH  21  22
ENDBRANCH   1  21
TORSDOF 7
