REMARK  Name = ZINC36304851
REMARK  17 active torsions:
REMARK  status: ('A' for Active; 'I' for Inactive)
REMARK    1  A    between atoms: C_1  and  C_2
REMARK    2  A    between atoms: C_2  and  C_3
REMARK    3  A    between atoms: C_3  and  N_4
REMARK    4  A    between atoms: N_4  and  C_5
REMARK    5  A    between atoms: N_4  and  C_26
REMARK    6  A    between atoms: C_5  and  C_6
REMARK    7  A    between atoms: C_7  and  C_25
REMARK    8  A    between atoms: N_9  and  C_19
REMARK    9  A    between atoms: C_10  and  O_11
REMARK   10  A    between atoms: O_11  and  C_12
REMARK   11  A    between atoms: C_16  and  C_18
REMARK   12  A    between atoms: C_26  and  C_27
REMARK   13  A    between atoms: C_27  and  C_29
REMARK   14  A    between atoms: C_27  and  O_38
REMARK   15  A    between atoms: C_29  and  O_30
REMARK   16  A    between atoms: O_30  and  C_31
REMARK   17  A    between atoms: C_31  and  C_32
REMARK                            x       y       z     vdW  Elec       q    Type
REMARK                         _______ _______ _______ _____ _____    ______ ____
ROOT
ATOM      1  C   UNL     1       1.250  -1.810   0.923  0.00  0.00    +0.021 A 
ATOM      2  C   UNL     1       2.174  -2.229  -0.039  0.00  0.00    +0.065 A 
ATOM      3  N   UNL     1       3.144  -1.353  -0.090  0.00  0.00    -0.168 NA
ATOM      4  N   UNL     1       2.876  -0.340   0.840  0.00  0.00    -0.200 N 
ATOM      5  C   UNL     1       1.698  -0.639   1.451  0.00  0.00    +0.225 A 
ATOM      6  C   UNL     1       2.069  -3.478  -0.875  0.00  0.00    +0.068 C 
ENDROOT
BRANCH   4   7
ATOM      7  C   UNL     1       3.675   0.783   1.091  0.00  0.00    +0.069 A 
ATOM      8  C   UNL     1       3.085   2.017   1.333  0.00  0.00    +0.028 A 
ATOM      9  C   UNL     1       3.875   3.122   1.581  0.00  0.00    +0.002 A 
ATOM     10  C   UNL     1       5.252   3.002   1.588  0.00  0.00    +0.000 A 
ATOM     11  C   UNL     1       5.843   1.775   1.347  0.00  0.00    +0.002 A 
ATOM     12  C   UNL     1       5.058   0.664   1.105  0.00  0.00    +0.028 A 
ENDBRANCH   4   7
BRANCH   1  13
ATOM     13  C   UNL     1      -0.021  -2.525   1.304  0.00  0.00    -0.036 C 
BRANCH  13  14
ATOM     14  N   UNL     1      -1.147  -1.956   0.552  0.00  0.00    +0.384 N 
ATOM     15  H   UNL     1      -1.172  -0.956   0.689  0.00  0.00    -0.081 HD
BRANCH  14  16
ATOM     16  C   UNL     1      -2.404  -2.546   1.031  0.00  0.00    -0.079 C 
BRANCH  16  18
ATOM     17  C   UNL     1      -3.970  -2.701   2.971  0.00  0.00    +0.002 C 
ATOM     18  C   UNL     1      -2.601  -2.199   2.508  0.00  0.00    -0.022 C 
ENDBRANCH  16  18
ENDBRANCH  14  16
BRANCH  14  19
ATOM     19  C   UNL     1      -0.981  -2.250  -0.877  0.00  0.00    -0.044 C 
BRANCH  19  20
ATOM     20  C   UNL     1      -2.037  -1.489  -1.681  0.00  0.00    +0.124 C 
BRANCH  20  21
ATOM     21  O   UNL     1      -3.330  -2.026  -1.397  0.00  0.00    -0.391 OA
ATOM     22  H   UNL     1      -3.424  -2.963  -1.617  0.00  0.00    +0.210 HD
ENDBRANCH  20  21
BRANCH  20  23
ATOM     23  C   UNL     1      -1.742  -1.633  -3.176  0.00  0.00    +0.189 C 
BRANCH  23  24
ATOM     24  O   UNL     1      -2.658  -0.829  -3.921  0.00  0.00    -0.373 OA
BRANCH  24  25
ATOM     25  C   UNL     1      -2.468  -0.892  -5.336  0.00  0.00    +0.195 C 
BRANCH  25  26
ATOM     26  C   UNL     1      -3.482  -0.011  -6.019  0.00  0.00    -0.022 A 
ATOM     27  C   UNL     1      -4.710  -0.528  -6.388  0.00  0.00    +0.006 A 
ATOM     28  C   UNL     1      -5.640   0.280  -7.015  0.00  0.00    +0.000 A 
ATOM     29  C   UNL     1      -5.343   1.606  -7.271  0.00  0.00    +0.000 A 
ATOM     30  C   UNL     1      -4.115   2.123  -6.902  0.00  0.00    +0.000 A 
ATOM     31  C   UNL     1      -3.187   1.316  -6.271  0.00  0.00    +0.006 A 
ENDBRANCH  25  26
ENDBRANCH  24  25
ENDBRANCH  23  24
ENDBRANCH  20  23
ENDBRANCH  19  20
ENDBRANCH  14  19
ENDBRANCH  13  14
ENDBRANCH   1  13
BRANCH   5  32
ATOM     32  O   UNL     1       1.085   0.094   2.414  0.00  0.00    -0.438 OA
BRANCH  32  33
ATOM     33  C   UNL     1       1.463  -0.102   3.704  0.00  0.00    +0.131 A 
ATOM     34  C   UNL     1       2.524  -0.948   3.996  0.00  0.00    +0.046 A 
ATOM     35  C   UNL     1       2.906  -1.146   5.309  0.00  0.00    +0.004 A 
ATOM     36  C   UNL     1       2.233  -0.503   6.331  0.00  0.00    +0.003 A 
ATOM     37  C   UNL     1       1.176   0.340   6.043  0.00  0.00    -0.047 A 
ATOM     38  C   UNL     1       0.793   0.546   4.732  0.00  0.00    +0.049 A 
ATOM     39  C   UNL     1       0.444   1.039   7.160  0.00  0.00    +0.044 C 
ENDBRANCH  32  33
ENDBRANCH   5  32
TORSDOF 14
