REMARK  Name = ZINC20355163
REMARK  10 active torsions:
REMARK  status: ('A' for Active; 'I' for Inactive)
REMARK    1  A    between atoms: C_1  and  C_2
REMARK    2  A    between atoms: C_6  and  C_8
REMARK    3  A    between atoms: C_8  and  N_9
REMARK    4  A    between atoms: C_18  and  C_19
REMARK    5  A    between atoms: C_22  and  C_25
REMARK    6  A    between atoms: N_27  and  C_28
REMARK    7  A    between atoms: C_28  and  C_29
REMARK    8  A    between atoms: C_29  and  N_30
REMARK    9  A    between atoms: N_30  and  C_31
REMARK   10  A    between atoms: N_30  and  C_32
REMARK                            x       y       z     vdW  Elec       q    Type
REMARK                         _______ _______ _______ _____ _____    ______ ____
ROOT
ATOM      1  C   UNL     1       2.503   0.166   0.234  0.00  0.00    -0.021 A 
ATOM      2  C   UNL     1       1.219  -0.391   0.182  0.00  0.00    +0.009 A 
ATOM      3  C   UNL     1       0.127   0.389   0.435  0.00  0.00    +0.013 A 
ATOM      4  C   UNL     1       0.289   1.742   0.746  0.00  0.00    +0.037 A 
ATOM      5  C   UNL     1       1.570   2.299   0.798  0.00  0.00    +0.013 A 
ATOM      6  C   UNL     1       2.664   1.521   0.546  0.00  0.00    +0.009 A 
ENDROOT
BRANCH   1  16
ATOM      7  N   UNL     1       5.827   1.835  -1.551  0.00  0.00    -0.257 N 
ATOM      8  C   UNL     1       7.019   1.243  -1.117  0.00  0.00    +0.079 A 
ATOM      9  C   UNL     1       8.181   1.998  -1.040  0.00  0.00    +0.027 A 
ATOM     10  C   UNL     1       9.356   1.413  -0.608  0.00  0.00    +0.002 A 
ATOM     11  C   UNL     1       9.379   0.077  -0.252  0.00  0.00    +0.004 A 
ATOM     12  C   UNL     1       8.226  -0.683  -0.328  0.00  0.00    +0.048 A 
ATOM     13  C   UNL     1       7.044  -0.104  -0.759  0.00  0.00    +0.150 A 
ATOM     14  O   UNL     1       5.907  -0.849  -0.836  0.00  0.00    -0.449 OA
ATOM     15  C   UNL     1       4.731  -0.161  -0.716  0.00  0.00    +0.191 C 
ATOM     16  C   UNL     1       3.680  -0.672  -0.037  0.00  0.00    +0.059 C 
ATOM     17  C   UNL     1       4.659   1.167  -1.368  0.00  0.00    +0.287 C 
ATOM     18  O   UNL     1       3.596   1.640  -1.721  0.00  0.00    -0.266 OA
BRANCH   7  19
ATOM     19  C   UNL     1       5.838   3.149  -2.198  0.00  0.00    +0.149 C 
BRANCH  19  25
ATOM     20  C   UNL     1       8.774   2.751  -6.232  0.00  0.00    +0.044 C 
ATOM     21  C   UNL     1       7.398   2.785  -5.617  0.00  0.00    -0.050 A 
ATOM     22  C   UNL     1       6.279   2.656  -6.418  0.00  0.00    +0.003 A 
ATOM     23  C   UNL     1       5.018   2.688  -5.854  0.00  0.00    +0.001 A 
ATOM     24  C   UNL     1       4.875   2.847  -4.488  0.00  0.00    +0.005 A 
ATOM     25  C   UNL     1       5.994   2.975  -3.687  0.00  0.00    -0.029 A 
ATOM     26  C   UNL     1       7.256   2.948  -4.252  0.00  0.00    +0.008 A 
ENDBRANCH  19  25
ENDBRANCH   7  19
ENDBRANCH   1  16
BRANCH   4  27
ATOM     27  C   UNL     1      -0.893   2.585   1.013  0.00  0.00    +0.244 C 
ATOM     28  O   UNL     1      -2.008   2.102   0.962  0.00  0.00    -0.270 OA
ATOM     29  N   UNL     1      -0.737   3.889   1.312  0.00  0.00    -0.313 N 
ATOM     30  H   UNL     1       0.271   4.326   1.358  0.00  0.00    +0.149 HD
BRANCH  29  31
ATOM     31  C   UNL     1      -1.911   4.726   1.577  0.00  0.00    +0.086 C 
BRANCH  31  32
ATOM     32  C   UNL     1      -1.459   6.154   1.889  0.00  0.00    -0.060 C 
BRANCH  32  33
ATOM     33  N   UNL     1      -2.635   6.993   2.155  0.00  0.00    +0.381 N 
ATOM     34  C   UNL     1      -3.458   7.142   0.947  0.00  0.00    -0.096 C 
ATOM     35  H   UNL     1      -3.245   6.488   2.919  0.00  0.00    -0.082 HD
BRANCH  33  36
ATOM     36  C   UNL     1      -2.238   8.303   2.687  0.00  0.00    -0.069 C 
ATOM     37  C   UNL     1      -1.468   8.110   3.995  0.00  0.00    -0.015 C 
ATOM     38  C   UNL     1      -1.055   9.475   4.550  0.00  0.00    -0.002 C 
ATOM     39  C   UNL     1      -2.304  10.318   4.813  0.00  0.00    -0.000 C 
ATOM     40  C   UNL     1      -3.074  10.511   3.505  0.00  0.00    -0.002 C 
ATOM     41  C   UNL     1      -3.488   9.146   2.951  0.00  0.00    -0.015 C 
ENDBRANCH  33  36
ENDBRANCH  32  33
ENDBRANCH  31  32
ENDBRANCH  29  31
ENDBRANCH   4  27
TORSDOF 8
