REMARK  Name = ZINC06441899
REMARK  8 active torsions:
REMARK  status: ('A' for Active; 'I' for Inactive)
REMARK    1  A    between atoms: C_1  and  C_2
REMARK    2  A    between atoms: C_7  and  C_15
REMARK    3  A    between atoms: C_13  and  C_14
REMARK    4  A    between atoms: C_15  and  C_17
REMARK    5  A    between atoms: C_15  and  N_70
REMARK    6  A    between atoms: N_21  and  C_22
REMARK    7  A    between atoms: C_22  and  C_23
REMARK    8  A    between atoms: N_31  and  C_34
REMARK                            x       y       z     vdW  Elec       q    Type
REMARK                         _______ _______ _______ _____ _____    ______ ____
ROOT
ATOM      1  C   UNL     1       2.592  -4.249  -0.044  0.00  0.00    +0.039 C 
ENDROOT
BRANCH   1   8
ATOM      2  C   UNL     1       0.489   3.414   0.648  0.00  0.00    +0.044 C 
ATOM      3  C   UNL     1       0.658   1.920   0.543  0.00  0.00    -0.046 A 
ATOM      4  C   UNL     1      -0.454   1.095   0.631  0.00  0.00    +0.004 A 
ATOM      5  C   UNL     1      -0.323  -0.262   0.538  0.00  0.00    +0.010 A 
ATOM      6  C   UNL     1       0.945  -0.824   0.351  0.00  0.00    -0.001 A 
ATOM      7  C   UNL     1       1.122  -2.274   0.247  0.00  0.00    +0.017 A 
ATOM      8  C   UNL     1       2.374  -2.762   0.067  0.00  0.00    +0.011 A 
ATOM      9  C   UNL     1       3.475  -1.882  -0.018  0.00  0.00    +0.251 A 
ATOM     10  O   UNL     1       4.592  -2.342  -0.181  0.00  0.00    -0.268 OA
ATOM     11  N   UNL     1       3.322  -0.550   0.077  0.00  0.00    -0.322 N 
ATOM     12  H   UNL     1       4.099   0.026   0.014  0.00  0.00    +0.169 HD
ATOM     13  C   UNL     1       2.075   0.009   0.261  0.00  0.00    +0.052 A 
ATOM     14  C   UNL     1       1.916   1.388   0.358  0.00  0.00    -0.024 A 
ATOM     15  C   UNL     1       3.115   2.296   0.264  0.00  0.00    +0.046 C 
ENDBRANCH   1   8
BRANCH   1  21
ATOM     16  C   UNL     1       3.799  -6.127   0.895  0.00  0.00    -0.058 C 
ATOM     17  C   UNL     1       4.829  -6.527   1.954  0.00  0.00    +0.086 C 
ATOM     18  N   UNL     1       4.310  -6.195   3.289  0.00  0.00    -0.331 N 
ATOM     19  C   UNL     1       4.032  -4.756   3.399  0.00  0.00    +0.086 C 
ATOM     20  C   UNL     1       3.002  -4.356   2.340  0.00  0.00    -0.058 C 
ATOM     21  N   UNL     1       3.545  -4.674   1.003  0.00  0.00    +0.391 N 
ATOM     22  H   UNL     1       4.430  -4.170   0.874  0.00  0.00    -0.080 HD
BRANCH  18  23
ATOM     23  C   UNL     1       5.194  -6.613   4.288  0.00  0.00    +0.065 A 
ATOM     24  C   UNL     1       6.463  -6.056   4.372  0.00  0.00    +0.026 A 
ATOM     25  C   UNL     1       7.334  -6.470   5.361  0.00  0.00    +0.002 A 
ATOM     26  C   UNL     1       6.945  -7.439   6.267  0.00  0.00    +0.003 A 
ATOM     27  C   UNL     1       5.682  -7.997   6.188  0.00  0.00    +0.040 A 
ATOM     28  C   UNL     1       4.803  -7.583   5.204  0.00  0.00    +0.144 A 
ATOM     29  F   UNL     1       3.567  -8.124   5.130  0.00  0.00    -0.204 F 
ENDBRANCH  18  23
ENDBRANCH   1  21
BRANCH   1  30
ATOM     30  C   UNL     1       3.173  -4.572  -1.396  0.00  0.00    +0.143 A 
ATOM     31  N   UNL     1       4.406  -4.362  -1.788  0.00  0.00    -0.115 NA
ATOM     32  N   UNL     1       4.513  -4.774  -3.005  0.00  0.00    -0.023 NA
ATOM     33  N   UNL     1       3.378  -5.235  -3.401  0.00  0.00    -0.044 NA
ATOM     34  N   UNL     1       2.526  -5.128  -2.438  0.00  0.00    -0.228 N 
BRANCH  34  35
ATOM     35  C   UNL     1       1.119  -5.535  -2.471  0.00  0.00    +0.178 C 
BRANCH  35  36
ATOM     36  C   UNL     1       0.261  -4.364  -2.953  0.00  0.00    +0.140 C 
ATOM     37  C   UNL     1      -1.226  -4.790  -3.048  0.00  0.00    +0.035 C 
ATOM     38  C   UNL     1      -1.936  -3.417  -2.898  0.00  0.00    +0.031 C 
ATOM     39  C   UNL     1      -1.000  -2.668  -1.926  0.00  0.00    +0.160 C 
ATOM     40  O   UNL     1       0.285  -3.298  -1.991  0.00  0.00    -0.375 OA
ENDBRANCH  35  36
ENDBRANCH  34  35
ENDBRANCH   1  30
TORSDOF 6
