REMARK  Name = ZINC16576370
REMARK  6 active torsions:
REMARK  status: ('A' for Active; 'I' for Inactive)
REMARK    1  A    between atoms: C_1  and  C_2
REMARK    2  A    between atoms: C_2  and  C_4
REMARK    3  A    between atoms: C_2  and  O_23
REMARK    4  A    between atoms: N_6  and  C_7
REMARK    5  A    between atoms: O_23  and  C_24
REMARK    6  A    between atoms: C_24  and  C_26
REMARK                            x       y       z     vdW  Elec       q    Type
REMARK                         _______ _______ _______ _____ _____    ______ ____
ROOT
ATOM      1  C   UNL     1       1.401   1.607  -0.002  0.00  0.00    +0.258 C 
ATOM      2  O   UNL     1       1.800   2.296   0.912  0.00  0.00    -0.271 OA
ATOM      3  N   UNL     1       2.226   1.299  -1.023  0.00  0.00    -0.282 N 
ATOM      4  H   UNL     1       1.933   0.683  -1.714  0.00  0.00    +0.155 HD
ENDROOT
BRANCH   3   5
ATOM      5  C   UNL     1       3.495   1.863  -1.087  0.00  0.00    +0.045 A 
ATOM      6  C   UNL     1       3.752   3.083  -0.462  0.00  0.00    +0.024 A 
ATOM      7  C   UNL     1       5.010   3.646  -0.522  0.00  0.00    +0.003 A 
ATOM      8  C   UNL     1       6.036   3.009  -1.204  0.00  0.00    +0.012 A 
ATOM      9  C   UNL     1       5.802   1.794  -1.835  0.00  0.00    +0.035 A 
ATOM     10  C   UNL     1       4.522   1.208  -1.773  0.00  0.00    +0.054 A 
ATOM     11  C   UNL     1       4.277  -0.085  -2.437  0.00  0.00    +0.196 C 
ATOM     12  O   UNL     1       3.268  -0.719  -2.195  0.00  0.00    -0.287 OA
ATOM     13  C   UNL     1       5.272  -0.603  -3.402  0.00  0.00    +0.033 A 
ATOM     14  C   UNL     1       4.953  -1.657  -4.251  0.00  0.00    +0.012 A 
ATOM     15  C   UNL     1       5.896  -2.127  -5.149  0.00  0.00    +0.001 A 
ATOM     16  C   UNL     1       7.154  -1.556  -5.207  0.00  0.00    +0.001 A 
ATOM     17  C   UNL     1       7.488  -0.506  -4.369  0.00  0.00    +0.012 A 
ATOM     18  C   UNL     1       6.552  -0.022  -3.461  0.00  0.00    +0.033 A 
ATOM     19  C   UNL     1       6.887   1.105  -2.568  0.00  0.00    +0.195 C 
ATOM     20  O   UNL     1       8.042   1.454  -2.427  0.00  0.00    -0.287 OA
ENDBRANCH   3   5
BRANCH   1  22
ATOM     21  C   UNL     1      -0.750   1.613  -1.234  0.00  0.00    +0.062 C 
ATOM     22  C   UNL     1      -0.016   1.094   0.003  0.00  0.00    +0.259 C 
BRANCH  22  23
ATOM     23  O   UNL     1      -0.683   1.552   1.181  0.00  0.00    -0.449 OA
BRANCH  23  24
ATOM     24  C   UNL     1      -1.657   0.762   1.679  0.00  0.00    +0.339 C 
ATOM     25  O   UNL     1      -1.930  -0.287   1.128  0.00  0.00    -0.245 OA
BRANCH  24  26
ATOM     26  C   UNL     1      -2.361   1.155   2.846  0.00  0.00    +0.074 C 
ATOM     27  C   UNL     1      -3.339   0.362   3.348  0.00  0.00    +0.025 C 
ATOM     28  C   UNL     1      -4.078   0.835   4.527  0.00  0.00    +0.019 A 
ATOM     29  C   UNL     1      -4.915  -0.014   5.251  0.00  0.00    +0.031 A 
ATOM     30  C   UNL     1      -5.580   0.469   6.360  0.00  0.00    +0.042 A 
ATOM     31  C   UNL     1      -5.422   1.790   6.750  0.00  0.00    +0.023 A 
ATOM     32  C   UNL     1      -4.611   2.646   6.028  0.00  0.00    +0.048 A 
ATOM     33  C   UNL     1      -3.945   2.182   4.907  0.00  0.00    +0.128 A 
ATOM     34  O   UNL     1      -3.181   3.010   4.152  0.00  0.00    -0.487 OA
ATOM     35  C   UNL     1      -2.019   2.451   3.533  0.00  0.00    +0.271 C 
ATOM     36 CL   UNL     1      -6.617  -0.583   7.272  0.00  0.00    -0.084 Cl
ENDBRANCH  24  26
ENDBRANCH  23  24
ENDBRANCH  22  23
ENDBRANCH   1  22
TORSDOF 5
