REMARK  Name = ZINC09878770
REMARK  7 active torsions:
REMARK  status: ('A' for Active; 'I' for Inactive)
REMARK    1  A    between atoms: C_4  and  N_7
REMARK    2  A    between atoms: C_8  and  C_24
REMARK    3  A    between atoms: C_11  and  S_12
REMARK    4  A    between atoms: S_12  and  C_13
REMARK    5  A    between atoms: C_13  and  C_14
REMARK    6  A    between atoms: N_16  and  C_17
REMARK    7  A    between atoms: C_24  and  N_54
REMARK                            x       y       z     vdW  Elec       q    Type
REMARK                         _______ _______ _______ _____ _____    ______ ____
ROOT
ATOM      1  N   UNL     1       0.039   1.110   4.089  0.00  0.00    -0.276 N 
ATOM      2  C   UNL     1       1.077   0.408   4.642  0.00  0.00    +0.122 A 
ATOM      3  N   UNL     1       1.780  -0.081   3.660  0.00  0.00    -0.135 NA
ATOM      4  N   UNL     1       1.261   0.256   2.534  0.00  0.00    -0.122 NA
ATOM      5  C   UNL     1       0.193   0.992   2.735  0.00  0.00    +0.197 A 
ENDROOT
BRANCH   1   9
ATOM      6  C   UNL     1      -2.967   3.173   6.113  0.00  0.00    +0.000 A 
ATOM      7  C   UNL     1      -3.285   2.070   5.343  0.00  0.00    +0.002 A 
ATOM      8  C   UNL     1      -2.292   1.384   4.671  0.00  0.00    +0.026 A 
ATOM      9  C   UNL     1      -0.972   1.804   4.770  0.00  0.00    +0.050 A 
ATOM     10  C   UNL     1      -0.655   2.909   5.548  0.00  0.00    +0.026 A 
ATOM     11  C   UNL     1      -1.653   3.594   6.213  0.00  0.00    +0.002 A 
ENDBRANCH   1   9
BRANCH   5  12
ATOM     12  S   UNL     1      -0.848   1.690   1.497  0.00  0.00    -0.076 S 
BRANCH  12  13
ATOM     13  C   UNL     1      -0.004   1.101   0.008  0.00  0.00    +0.173 C 
BRANCH  13  14
ATOM     14  C   UNL     1      -0.739   1.590  -1.213  0.00  0.00    +0.228 C 
ATOM     15  O   UNL     1      -1.735   2.270  -1.089  0.00  0.00    -0.275 OA
ATOM     16  N   UNL     1      -0.288   1.272  -2.443  0.00  0.00    -0.284 N 
ATOM     17  H   UNL     1       0.544   0.784  -2.544  0.00  0.00    +0.155 HD
BRANCH  16  18
ATOM     18  C   UNL     1      -1.022   1.647  -3.575  0.00  0.00    +0.047 A 
ATOM     19  C   UNL     1      -1.723   2.845  -3.585  0.00  0.00    +0.024 A 
ATOM     20  C   UNL     1      -2.442   3.213  -4.705  0.00  0.00    +0.002 A 
ATOM     21  C   UNL     1      -2.473   2.386  -5.812  0.00  0.00    +0.001 A 
ATOM     22  C   UNL     1      -1.780   1.189  -5.805  0.00  0.00    +0.017 A 
ATOM     23  C   UNL     1      -1.055   0.817  -4.689  0.00  0.00    +0.039 A 
ATOM     24 BR   UNL     1      -0.108  -0.821  -4.678  0.00  0.00    -0.048 Br
ENDBRANCH  16  18
ENDBRANCH  13  14
ENDBRANCH  12  13
ENDBRANCH   5  12
BRANCH   2  25
ATOM     25  C   UNL     1       1.353   0.232   6.113  0.00  0.00    -0.001 C 
BRANCH  25  31
ATOM     26  C   UNL     1      -0.794  -0.805   6.531  0.00  0.00    -0.078 C 
ATOM     27  C   UNL     1      -1.476  -2.122   6.908  0.00  0.00    -0.019 C 
ATOM     28  C   UNL     1      -1.056  -2.522   8.325  0.00  0.00    -0.004 C 
ATOM     29  C   UNL     1       0.470  -2.640   8.382  0.00  0.00    -0.019 C 
ATOM     30  C   UNL     1       1.096  -1.308   7.963  0.00  0.00    -0.078 C 
ATOM     31  N   UNL     1       0.672  -0.992   6.582  0.00  0.00    +0.384 N 
ATOM     32  H   UNL     1       0.929  -1.773   5.968  0.00  0.00    -0.081 HD
ENDBRANCH  25  31
ENDBRANCH   2  25
TORSDOF 7
