REMARK  Name = ZINC20574202
REMARK  8 active torsions:
REMARK  status: ('A' for Active; 'I' for Inactive)
REMARK    1  A    between atoms: C_1  and  C_2
REMARK    2  A    between atoms: C_5  and  N_9
REMARK    3  A    between atoms: C_6  and  C_8
REMARK    4  A    between atoms: C_10  and  C_12
REMARK    5  A    between atoms: C_12  and  N_13
REMARK    6  A    between atoms: N_23  and  C_28
REMARK    7  A    between atoms: C_31  and  O_34
REMARK    8  A    between atoms: O_34  and  C_35
REMARK                            x       y       z     vdW  Elec       q    Type
REMARK                         _______ _______ _______ _____ _____    ______ ____
ROOT
ATOM      1  N   UNL     1       3.546  -2.090   4.432  0.00  0.00    -0.259 N 
ATOM      2  C   UNL     1       4.418  -1.036   4.713  0.00  0.00    +0.043 A 
ATOM      3  C   UNL     1       5.651  -0.701   4.158  0.00  0.00    +0.024 A 
ATOM      4  C   UNL     1       6.337   0.409   4.606  0.00  0.00    +0.002 A 
ATOM      5  C   UNL     1       5.807   1.198   5.611  0.00  0.00    +0.000 A 
ATOM      6  C   UNL     1       4.584   0.872   6.170  0.00  0.00    +0.009 A 
ATOM      7  C   UNL     1       3.895  -0.235   5.727  0.00  0.00    +0.017 A 
ATOM      8  C   UNL     1       2.587  -0.861   6.098  0.00  0.00    +0.192 C 
ATOM      9  C   UNL     1       2.441  -2.056   5.205  0.00  0.00    +0.259 C 
ATOM     10  O   UNL     1       1.514  -2.838   5.182  0.00  0.00    -0.272 OA
ATOM     11  N   UNL     1       1.458   0.060   6.021  0.00  0.00    -0.243 N 
ATOM     12  C   UNL     1       0.934   0.528   7.153  0.00  0.00    +0.231 C 
ATOM     13  O   UNL     1      -0.008   1.292   7.141  0.00  0.00    -0.274 OA
ATOM     14  C   UNL     1       1.558   0.064   8.461  0.00  0.00    +0.168 C 
ATOM     15  S   UNL     1       2.574  -1.358   7.864  0.00  0.00    -0.111 S 
ENDROOT
BRANCH  11  16
ATOM     16  C   UNL     1       0.939   0.450   4.780  0.00  0.00    +0.039 A 
ATOM     17  C   UNL     1      -0.351   0.083   4.421  0.00  0.00    +0.027 A 
ATOM     18  C   UNL     1      -0.863   0.468   3.197  0.00  0.00    +0.047 A 
ATOM     19  C   UNL     1      -0.088   1.222   2.327  0.00  0.00    +0.120 A 
ATOM     20  C   UNL     1       1.203   1.584   2.683  0.00  0.00    +0.047 A 
ATOM     21  C   UNL     1       1.714   1.204   3.909  0.00  0.00    +0.027 A 
BRANCH  19  22
ATOM     22  O   UNL     1      -0.592   1.600   1.123  0.00  0.00    -0.495 OA
ATOM     23  C   UNL     1       0.260   2.375   0.277  0.00  0.00    +0.277 C 
ENDBRANCH  19  22
ENDBRANCH  11  16
BRANCH   1  24
ATOM     24  C   UNL     1       3.802  -3.114   3.415  0.00  0.00    +0.209 C 
BRANCH  24  26
ATOM     25  N   UNL     1       4.891  -5.331   3.288  0.00  0.00    -0.284 N 
ATOM     26  C   UNL     1       4.546  -4.267   4.039  0.00  0.00    +0.235 C 
ATOM     27  O   UNL     1       4.834  -4.236   5.217  0.00  0.00    -0.274 OA
ATOM     28  H   UNL     1       4.688  -5.331   2.207  0.00  0.00    +0.155 HD
BRANCH  25  33
ATOM     29  C   UNL     1       7.393  -9.814   5.703  0.00  0.00    +0.044 C 
ATOM     30  C   UNL     1       6.728  -8.623   5.062  0.00  0.00    -0.050 A 
ATOM     31  C   UNL     1       6.838  -7.374   5.645  0.00  0.00    +0.005 A 
ATOM     32  C   UNL     1       6.235  -6.280   5.057  0.00  0.00    +0.024 A 
ATOM     33  C   UNL     1       5.508  -6.437   3.884  0.00  0.00    +0.036 A 
ATOM     34  C   UNL     1       5.399  -7.692   3.301  0.00  0.00    -0.029 A 
ATOM     35  C   UNL     1       6.009  -8.782   3.891  0.00  0.00    +0.008 A 
ATOM     36  C   UNL     1       4.617  -7.866   2.025  0.00  0.00    +0.045 C 
ENDBRANCH  25  33
ENDBRANCH  24  26
ENDBRANCH   1  24
TORSDOF 5
