REMARK  Name = ZINC39912064
REMARK  7 active torsions:
REMARK  status: ('A' for Active; 'I' for Inactive)
REMARK    1  A    between atoms: C_1  and  C_2
REMARK    2  A    between atoms: C_4  and  C_30
REMARK    3  A    between atoms: C_5  and  O_29
REMARK    4  A    between atoms: C_6  and  C_8
REMARK    5  A    between atoms: N_16  and  C_26
REMARK    6  A    between atoms: C_17  and  C_19
REMARK    7  A    between atoms: C_26  and  C_27
REMARK                            x       y       z     vdW  Elec       q    Type
REMARK                         _______ _______ _______ _____ _____    ______ ____
ROOT
ATOM      1  C   UNL     1       0.114  -2.921   2.532  0.00  0.00    +0.102 A 
ATOM      2  C   UNL     1       0.172  -2.322   3.795  0.00  0.00    +0.035 A 
ATOM      3  C   UNL     1       0.140  -3.360   4.706  0.00  0.00    +0.126 A 
ATOM      4  N   UNL     1       0.066  -4.509   3.970  0.00  0.00    -0.272 N 
ATOM      5  H   UNL     1       0.029  -5.405   4.339  0.00  0.00    +0.189 HD
ATOM      6  N   UNL     1       0.048  -4.224   2.717  0.00  0.00    -0.173 NA
ATOM      7  C   UNL     1       0.198  -2.796   6.059  0.00  0.00    +0.266 C 
ATOM      8  O   UNL     1       0.189  -3.449   7.085  0.00  0.00    -0.268 OA
ATOM      9  N   UNL     1       0.264  -1.453   6.005  0.00  0.00    -0.281 N 
ATOM     10  C   UNL     1       0.253  -1.049   4.593  0.00  0.00    +0.142 C 
ENDROOT
BRANCH   1  16
ATOM     11  C   UNL     1      -1.584   0.736  -0.412  0.00  0.00    +0.044 C 
ATOM     12  C   UNL     1      -0.694  -0.461  -0.195  0.00  0.00    -0.049 A 
ATOM     13  C   UNL     1       0.128  -0.904  -1.216  0.00  0.00    +0.010 A 
ATOM     14  C   UNL     1       0.948  -2.000  -1.025  0.00  0.00    -0.008 A 
ATOM     15  C   UNL     1       0.949  -2.662   0.193  0.00  0.00    +0.129 A 
ATOM     16  C   UNL     1       0.120  -2.217   1.226  0.00  0.00    +0.044 A 
ATOM     17  C   UNL     1      -0.698  -1.108   1.025  0.00  0.00    +0.017 A 
ATOM     18  C   UNL     1       1.840  -2.476  -2.142  0.00  0.00    +0.047 C 
BRANCH  15  19
ATOM     19  O   UNL     1       1.754  -3.741   0.381  0.00  0.00    -0.506 OA
ATOM     20  H   UNL     1       2.631  -3.522   0.724  0.00  0.00    +0.292 HD
ENDBRANCH  15  19
ENDBRANCH   1  16
BRANCH  10  21
ATOM     21  C   UNL     1       1.520  -0.306   4.256  0.00  0.00    -0.022 A 
ATOM     22  C   UNL     1       2.740  -0.785   4.698  0.00  0.00    +0.007 A 
ATOM     23  C   UNL     1       3.902  -0.104   4.389  0.00  0.00    +0.020 A 
ATOM     24  C   UNL     1       3.845   1.057   3.639  0.00  0.00    +0.041 A 
ATOM     25  C   UNL     1       2.625   1.536   3.198  0.00  0.00    +0.020 A 
ATOM     26  C   UNL     1       1.463   0.851   3.502  0.00  0.00    +0.007 A 
ATOM     27 CL   UNL     1       5.305   1.913   3.252  0.00  0.00    -0.084 Cl
ENDBRANCH  10  21
BRANCH   9  28
ATOM     28  C   UNL     1       0.335  -0.550   7.156  0.00  0.00    +0.135 C 
BRANCH  28  29
ATOM     29  C   UNL     1       1.778  -0.311   7.518  0.00  0.00    -0.016 C 
ATOM     30  C   UNL     1       2.242   0.912   7.588  0.00  0.00    +0.005 C 
ENDBRANCH  28  29
ENDBRANCH   9  28
TORSDOF 5
