REMARK  Name = ZINC14470530
REMARK  7 active torsions:
REMARK  status: ('A' for Active; 'I' for Inactive)
REMARK    1  A    between atoms: C_1  and  C_2
REMARK    2  A    between atoms: C_5  and  N_9
REMARK    3  A    between atoms: C_7  and  C_8
REMARK    4  A    between atoms: N_9  and  S_10
REMARK    5  A    between atoms: S_10  and  C_13
REMARK    6  A    between atoms: C_26  and  C_29
REMARK    7  A    between atoms: C_33  and  N_35
REMARK                            x       y       z     vdW  Elec       q    Type
REMARK                         _______ _______ _______ _____ _____    ______ ____
ROOT
ATOM      1  C   UNL     1      -5.107   6.006  -0.202  0.00  0.00    +0.109 A 
ATOM      2  C   UNL     1      -4.790   6.229   1.126  0.00  0.00    +0.030 A 
ATOM      3  C   UNL     1      -3.470   6.390   1.496  0.00  0.00    +0.025 A 
ATOM      4  C   UNL     1      -2.466   6.330   0.538  0.00  0.00    +0.031 A 
ATOM      5  C   UNL     1      -2.779   6.107  -0.794  0.00  0.00    -0.018 A 
ATOM      6  C   UNL     1      -4.110   5.946  -1.154  0.00  0.00    +0.034 A 
ATOM      7  C   UNL     1      -1.733   6.036  -1.861  0.00  0.00    +0.049 C 
ATOM      8  C   UNL     1      -1.463   4.599  -2.317  0.00  0.00    -0.023 C 
ATOM      9  C   UNL     1      -0.190   4.434  -2.580  0.00  0.00    -0.030 C 
ATOM     10  C   UNL     1       0.573   5.724  -2.350  0.00  0.00    +0.033 C 
ATOM     11  C   UNL     1      -0.351   6.520  -1.381  0.00  0.00    +0.029 C 
ATOM     12  C   UNL     1      -0.079   6.003   0.035  0.00  0.00    +0.105 C 
ATOM     13  N   UNL     1      -1.145   6.476   0.925  0.00  0.00    -0.336 N 
ATOM     14  H   UNL     1      -0.933   6.902   1.770  0.00  0.00    +0.147 HD
ENDROOT
BRANCH  12  15
ATOM     15  C   UNL     1      -0.059   4.497   0.027  0.00  0.00    -0.025 A 
ATOM     16  C   UNL     1      -1.247   3.789   0.034  0.00  0.00    +0.007 A 
ATOM     17  C   UNL     1      -1.229   2.408   0.021  0.00  0.00    +0.022 A 
ATOM     18  C   UNL     1      -0.021   1.732   0.012  0.00  0.00    +0.071 A 
ATOM     19  C   UNL     1       1.167   2.440   0.004  0.00  0.00    +0.145 A 
ATOM     20  C   UNL     1       1.147   3.822   0.012  0.00  0.00    +0.039 A 
ATOM     21 CL   UNL     1       0.002  -0.004   0.002  0.00  0.00    -0.081 Cl
BRANCH  19  22
ATOM     22  N   UNL     1       2.459   1.718  -0.012  0.00  0.00    +0.058 N 
ATOM     23  O   UNL     1       3.505   2.341  -0.018  0.00  0.00    -0.126 OA
ATOM     24  O   UNL     1       2.476   0.500  -0.018  0.00  0.00    -0.126 OA
ENDBRANCH  19  22
ENDBRANCH  12  15
BRANCH   1  25
ATOM     25  S   UNL     1      -6.790   5.798  -0.679  0.00  0.00    +0.072 S 
ATOM     26  O   UNL     1      -7.576   6.440   0.316  0.00  0.00    -0.150 OA
ATOM     27  O   UNL     1      -6.868   6.146  -2.054  0.00  0.00    -0.150 OA
BRANCH  25  28
ATOM     28  N   UNL     1      -7.131   4.180  -0.581  0.00  0.00    -0.216 N 
ATOM     29  H   UNL     1      -7.346   3.680  -1.383  0.00  0.00    +0.174 HD
BRANCH  28  34
ATOM     30  C   UNL     1      -7.037   1.563   4.449  0.00  0.00    +0.044 C 
ATOM     31  C   UNL     1      -7.062   2.259   3.113  0.00  0.00    -0.047 A 
ATOM     32  C   UNL     1      -7.685   3.487   2.986  0.00  0.00    +0.005 A 
ATOM     33  C   UNL     1      -7.709   4.127   1.762  0.00  0.00    +0.025 A 
ATOM     34  C   UNL     1      -7.107   3.536   0.658  0.00  0.00    +0.048 A 
ATOM     35  C   UNL     1      -6.488   2.300   0.789  0.00  0.00    +0.028 A 
ATOM     36  C   UNL     1      -6.462   1.668   2.016  0.00  0.00    -0.046 A 
ATOM     37  C   UNL     1      -5.784   0.329   2.160  0.00  0.00    +0.044 C 
ENDBRANCH  28  34
ENDBRANCH  25  28
ENDBRANCH   1  25
TORSDOF 5
