REMARK  Name = ZINC13527887
REMARK  8 active torsions:
REMARK  status: ('A' for Active; 'I' for Inactive)
REMARK    1  A    between atoms: C_4  and  N_10
REMARK    2  A    between atoms: C_5  and  C_7
REMARK    3  A    between atoms: N_10  and  S_11
REMARK    4  A    between atoms: S_11  and  C_14
REMARK    5  A    between atoms: C_17  and  N_23
REMARK    6  A    between atoms: C_18  and  N_20
REMARK    7  A    between atoms: N_23  and  N_24
REMARK    8  A    between atoms: C_25  and  C_26
REMARK                            x       y       z     vdW  Elec       q    Type
REMARK                         _______ _______ _______ _____ _____    ______ ____
ROOT
ATOM      1  C   UNL     1       4.925  -0.074   2.165  0.00  0.00    +0.111 A 
ATOM      2  C   UNL     1       4.285   1.002   2.752  0.00  0.00    +0.031 A 
ATOM      3  C   UNL     1       4.006   0.988   4.105  0.00  0.00    +0.029 A 
ATOM      4  C   UNL     1       4.371  -0.108   4.876  0.00  0.00    +0.076 A 
ATOM      5  C   UNL     1       5.014  -1.187   4.284  0.00  0.00    +0.150 A 
ATOM      6  C   UNL     1       5.285  -1.169   2.929  0.00  0.00    +0.063 A 
ENDROOT
BRANCH   1   7
ATOM      7  S   UNL     1       5.278  -0.053   0.439  0.00  0.00    +0.072 S 
ATOM      8  O   UNL     1       6.365  -0.945   0.235  0.00  0.00    -0.150 OA
ATOM      9  O   UNL     1       5.331   1.313   0.052  0.00  0.00    -0.150 OA
BRANCH   7  10
ATOM     10  N   UNL     1       3.972  -0.714  -0.336  0.00  0.00    -0.215 N 
ATOM     11  H   UNL     1       4.082  -1.509  -0.880  0.00  0.00    +0.174 HD
BRANCH  10  15
ATOM     12  C   UNL     1       0.213   1.041   0.053  0.00  0.00    +0.001 A 
ATOM     13  C   UNL     1       1.353   1.830   0.008  0.00  0.00    +0.002 A 
ATOM     14  C   UNL     1       2.599   1.252  -0.120  0.00  0.00    +0.025 A 
ATOM     15  C   UNL     1       2.720  -0.130  -0.206  0.00  0.00    +0.062 A 
ATOM     16  C   UNL     1       1.567  -0.932  -0.160  0.00  0.00    +0.085 A 
ATOM     17  C   UNL     1       0.311  -0.329  -0.029  0.00  0.00    +0.017 A 
BRANCH  16  18
ATOM     18  C   UNL     1       1.680  -2.396  -0.249  0.00  0.00    +0.388 C 
ATOM     19  O   UNL     1       0.674  -3.091  -0.209  0.00  0.00    -0.241 OA
ATOM     20  O   UNL     1       2.780  -2.919  -0.363  0.00  0.00    -0.241 OA
ENDBRANCH  16  18
ENDBRANCH  10  15
ENDBRANCH   7  10
ENDBRANCH   1   7
BRANCH   5  21
ATOM     21  N   UNL     1       5.405  -2.357   5.102  0.00  0.00    +0.058 N 
ATOM     22  O   UNL     1       5.803  -2.199   6.232  0.00  0.00    -0.126 OA
ATOM     23  O   UNL     1       5.325  -3.472   4.640  0.00  0.00    -0.126 OA
ENDBRANCH   5  21
BRANCH   4  24
ATOM     24  N   UNL     1       4.091  -0.125   6.245  0.00  0.00    -0.258 N 
ATOM     25  H   UNL     1       4.409  -0.858   6.795  0.00  0.00    +0.172 HD
BRANCH  24  26
ATOM     26  N   UNL     1       3.353   0.916   6.822  0.00  0.00    -0.313 N 
ATOM     27  C   UNL     1       3.084   0.900   8.135  0.00  0.00    +0.110 C 
ATOM     28  H   UNL     1       3.035   1.649   6.271  0.00  0.00    +0.184 HD
BRANCH  27  29
ATOM     29  C   UNL     1       2.239   1.866   8.688  0.00  0.00    +0.039 A 
ATOM     30  C   UNL     1       2.041   1.938  10.084  0.00  0.00    +0.013 A 
ATOM     31  C   UNL     1       1.216   2.885  10.603  0.00  0.00    +0.001 A 
ATOM     32  C   UNL     1       0.551   3.796   9.787  0.00  0.00    +0.004 A 
ATOM     33  C   UNL     1       0.698   3.780   8.433  0.00  0.00    +0.051 A 
ATOM     34  C   UNL     1       1.542   2.832   7.830  0.00  0.00    +0.187 A 
ATOM     35  O   UNL     1       1.687   2.808   6.615  0.00  0.00    -0.287 OA
ENDBRANCH  27  29
ENDBRANCH  24  26
ENDBRANCH   4  24
TORSDOF 8
