REMARK  Name = ZINC39710461
REMARK  10 active torsions:
REMARK  status: ('A' for Active; 'I' for Inactive)
REMARK    1  A    between atoms: C_1  and  C_2
REMARK    2  A    between atoms: C_2  and  C_3
REMARK    3  A    between atoms: C_10  and  C_15
REMARK    4  A    between atoms: C_15  and  C_17
REMARK    5  A    between atoms: C_15  and  N_26
REMARK    6  A    between atoms: N_21  and  C_22
REMARK    7  A    between atoms: C_22  and  C_23
REMARK    8  A    between atoms: C_23  and  O_24
REMARK    9  A    between atoms: O_24  and  C_25
REMARK   10  A    between atoms: N_29  and  C_32
REMARK                            x       y       z     vdW  Elec       q    Type
REMARK                         _______ _______ _______ _____ _____    ______ ____
ROOT
ATOM      1  C   UNL     1      -6.558  -1.382  -2.344  0.00  0.00    +0.142 C 
ENDROOT
BRANCH   1   9
ATOM      2  C   UNL     1      -1.303  -1.332   0.195  0.00  0.00    -0.047 A 
ATOM      3  C   UNL     1      -1.864  -1.429   1.468  0.00  0.00    +0.005 A 
ATOM      4  C   UNL     1      -3.173  -1.734   1.671  0.00  0.00    +0.024 A 
ATOM      5  C   UNL     1      -4.029  -1.968   0.580  0.00  0.00    +0.040 A 
ATOM      6  N   UNL     1      -5.311  -2.267   0.791  0.00  0.00    -0.284 N 
ATOM      7  C   UNL     1      -6.169  -2.498  -0.188  0.00  0.00    +0.226 C 
ATOM      8  O   UNL     1      -7.329  -2.766   0.067  0.00  0.00    -0.275 OA
ATOM      9  C   UNL     1      -5.705  -2.429  -1.625  0.00  0.00    +0.123 C 
ATOM     10  C   UNL     1      -4.248  -2.090  -1.871  0.00  0.00    -0.003 C 
ATOM     11  C   UNL     1      -3.463  -1.872  -0.777  0.00  0.00    -0.007 A 
ATOM     12  C   UNL     1      -2.047  -1.535  -0.923  0.00  0.00    +0.013 A 
ATOM     13  H   UNL     1      -5.629  -2.316   1.706  0.00  0.00    +0.155 HD
BRANCH   2  15
ATOM     14  C   UNL     1       0.331   0.531   0.110  0.00  0.00    +0.009 C 
ATOM     15  C   UNL     1       0.158  -0.988   0.056  0.00  0.00    +0.032 C 
ENDBRANCH   2  15
ENDBRANCH   1   9
BRANCH   1  16
ATOM     16  N   UNL     1      -7.977  -1.738  -2.221  0.00  0.00    -0.289 NA
ATOM     17  C   UNL     1      -8.246  -3.046  -2.834  0.00  0.00    +0.104 C 
ATOM     18  C   UNL     1      -9.689  -3.463  -2.528  0.00  0.00    +0.120 C 
ATOM     19  N   UNL     1     -10.588  -2.379  -2.954  0.00  0.00    -0.327 N 
ATOM     20  C   UNL     1     -10.301  -1.014  -2.490  0.00  0.00    +0.120 C 
ATOM     21  C   UNL     1      -8.834  -0.694  -2.798  0.00  0.00    +0.104 C 
BRANCH  19  22
ATOM     22  C   UNL     1     -11.687  -2.641  -3.779  0.00  0.00    +0.030 A 
ATOM     23  C   UNL     1     -12.016  -3.951  -4.104  0.00  0.00    +0.026 A 
ATOM     24  C   UNL     1     -13.102  -4.207  -4.918  0.00  0.00    +0.040 A 
ATOM     25  C   UNL     1     -13.862  -3.159  -5.410  0.00  0.00    +0.124 A 
ATOM     26  C   UNL     1     -13.536  -1.853  -5.087  0.00  0.00    +0.040 A 
ATOM     27  C   UNL     1     -12.454  -1.592  -4.269  0.00  0.00    +0.026 A 
ATOM     28  F   UNL     1     -14.923  -3.412  -6.207  0.00  0.00    -0.205 F 
ENDBRANCH  19  22
ENDBRANCH   1  16
BRANCH   1  29
ATOM     29  C   UNL     1      -6.175  -1.337  -3.801  0.00  0.00    +0.170 A 
ATOM     30  N   UNL     1      -6.265  -2.319  -4.664  0.00  0.00    -0.112 NA
ATOM     31  N   UNL     1      -5.842  -1.888  -5.802  0.00  0.00    -0.023 NA
ATOM     32  N   UNL     1      -5.485  -0.656  -5.687  0.00  0.00    -0.044 NA
ATOM     33  N   UNL     1      -5.680  -0.279  -4.469  0.00  0.00    -0.225 N 
BRANCH  33  34
ATOM     34  C   UNL     1      -5.410   1.051  -3.917  0.00  0.00    +0.175 C 
BRANCH  34  35
ATOM     35  C   UNL     1      -3.945   1.136  -3.484  0.00  0.00    +0.183 C 
BRANCH  35  36
ATOM     36  O   UNL     1      -3.704   2.399  -2.860  0.00  0.00    -0.381 OA
ATOM     37  C   UNL     1      -2.336   2.628  -2.520  0.00  0.00    +0.194 C 
ENDBRANCH  35  36
ENDBRANCH  34  35
ENDBRANCH  33  34
ENDBRANCH   1  29
TORSDOF 8
