REMARK  Name = ZINC12373191
REMARK  9 active torsions:
REMARK  status: ('A' for Active; 'I' for Inactive)
REMARK    1  A    between atoms: C_4  and  C_7
REMARK    2  A    between atoms: C_8  and  C_9
REMARK    3  A    between atoms: C_9  and  N_58
REMARK    4  A    between atoms: C_15  and  C_17
REMARK    5  A    between atoms: C_17  and  C_18
REMARK    6  A    between atoms: N_20  and  C_21
REMARK    7  A    between atoms: C_21  and  C_22
REMARK    8  A    between atoms: C_22  and  C_23
REMARK    9  A    between atoms: C_28  and  C_29
REMARK                            x       y       z     vdW  Elec       q    Type
REMARK                         _______ _______ _______ _____ _____    ______ ____
ROOT
ATOM      1  C   UNL     1       0.389  -0.475  -1.336  0.00  0.00    -0.058 C 
ATOM      2  C   UNL     1       0.759  -1.952  -1.188  0.00  0.00    +0.085 C 
ATOM      3  N   UNL     1      -0.310  -2.669  -0.499  0.00  0.00    -0.318 N 
ATOM      4  C   UNL     1      -1.250  -2.052   0.224  0.00  0.00    +0.200 C 
ATOM      5  O   UNL     1      -2.085  -2.727   0.789  0.00  0.00    -0.278 OA
ATOM      6  C   UNL     1      -1.316  -0.558   0.368  0.00  0.00    +0.028 C 
ATOM      7  H   UNL     1      -0.340  -3.636  -0.571  0.00  0.00    +0.149 HD
ATOM      8  N   UNL     1      -0.017   0.030  -0.009  0.00  0.00    +0.391 N 
ATOM      9  H   UNL     1       0.689  -0.244   0.685  0.00  0.00    -0.080 HD
ENDROOT
BRANCH   8  10
ATOM     10  C   UNL     1      -0.117   1.507  -0.035  0.00  0.00    -0.050 C 
BRANCH  10  12
ATOM     11  C   UNL     1       1.616   2.946  -1.012  0.00  0.00    +0.002 C 
ATOM     12  C   UNL     1       1.272   2.091  -0.059  0.00  0.00    -0.045 C 
BRANCH  11  16
ATOM     13  C   UNL     1       5.531   4.590  -1.077  0.00  0.00    +0.000 A 
ATOM     14  C   UNL     1       4.617   4.949  -2.051  0.00  0.00    +0.001 A 
ATOM     15  C   UNL     1       3.344   4.418  -2.036  0.00  0.00    +0.008 A 
ATOM     16  C   UNL     1       2.978   3.518  -1.034  0.00  0.00    -0.025 A 
ATOM     17  C   UNL     1       3.903   3.165  -0.051  0.00  0.00    +0.008 A 
ATOM     18  C   UNL     1       5.175   3.698  -0.081  0.00  0.00    +0.001 A 
ENDBRANCH  11  16
ENDBRANCH  10  12
ENDBRANCH   8  10
BRANCH   6  19
ATOM     19  C   UNL     1      -1.621  -0.200   1.824  0.00  0.00    +0.089 C 
BRANCH  19  20
ATOM     20  C   UNL     1      -0.501  -0.688   2.706  0.00  0.00    +0.212 C 
ATOM     21  O   UNL     1       0.492  -1.177   2.210  0.00  0.00    -0.276 OA
ATOM     22  N   UNL     1      -0.602  -0.580   4.045  0.00  0.00    -0.315 N 
ATOM     23  H   UNL     1      -1.396  -0.188   4.442  0.00  0.00    +0.149 HD
BRANCH  22  24
ATOM     24  C   UNL     1       0.487  -1.053   4.903  0.00  0.00    +0.109 C 
BRANCH  24  25
ATOM     25  C   UNL     1       0.122  -0.816   6.370  0.00  0.00    +0.054 C 
BRANCH  25  26
ATOM     26  C   UNL     1       1.242  -1.303   7.252  0.00  0.00    -0.034 A 
ATOM     27  C   UNL     1       1.192  -2.574   7.794  0.00  0.00    +0.004 A 
ATOM     28  C   UNL     1       2.222  -3.022   8.599  0.00  0.00    +0.000 A 
ATOM     29  C   UNL     1       3.297  -2.197   8.871  0.00  0.00    +0.001 A 
ATOM     30  C   UNL     1       3.345  -0.924   8.333  0.00  0.00    +0.012 A 
ATOM     31  C   UNL     1       2.317  -0.477   7.523  0.00  0.00    +0.058 A 
BRANCH  31  32
ATOM     32  C   UNL     1       2.369   0.910   6.937  0.00  0.00    +0.418 C 
ATOM     33  F   UNL     1       3.543   1.548   7.351  0.00  0.00    -0.166 F 
ATOM     34  F   UNL     1       2.350   0.827   5.541  0.00  0.00    -0.166 F 
ATOM     35  F   UNL     1       1.260   1.643   7.376  0.00  0.00    -0.166 F 
ENDBRANCH  31  32
ENDBRANCH  25  26
ENDBRANCH  24  25
ENDBRANCH  22  24
ENDBRANCH  19  20
ENDBRANCH   6  19
TORSDOF 9
