REMARK  Name = ZINC33051170
REMARK  8 active torsions:
REMARK  status: ('A' for Active; 'I' for Inactive)
REMARK    1  A    between atoms: C_1  and  C_2
REMARK    2  A    between atoms: N_5  and  C_7
REMARK    3  A    between atoms: C_18  and  C_28
REMARK    4  A    between atoms: N_24  and  C_25
REMARK    5  A    between atoms: C_25  and  C_26
REMARK    6  A    between atoms: C_25  and  C_27
REMARK    7  A    between atoms: C_31  and  S_34
REMARK    8  A    between atoms: S_34  and  C_35
REMARK                            x       y       z     vdW  Elec       q    Type
REMARK                         _______ _______ _______ _____ _____    ______ ____
ROOT
ATOM      1  C   UNL     1       4.808   0.813  -0.938  0.00  0.00    +0.068 C 
ATOM      2  C   UNL     1       3.571   0.897  -0.083  0.00  0.00    +0.067 A 
ATOM      3  C   UNL     1       2.457   1.691  -0.339  0.00  0.00    +0.035 A 
ATOM      4  C   UNL     1       1.572   1.501   0.685  0.00  0.00    +0.146 A 
ATOM      5  N   UNL     1       2.092   0.587   1.524  0.00  0.00    -0.215 N 
ATOM      6  N   UNL     1       3.360   0.235   1.030  0.00  0.00    -0.169 NA
ATOM      7  N   UNL     1       0.373   2.220   0.732  0.00  0.00    -0.303 N 
ATOM      8  C   UNL     1      -0.888   1.813   1.006  0.00  0.00    +0.093 A 
ATOM      9  C   UNL     1      -1.714   2.870   0.828  0.00  0.00    +0.020 A 
ATOM     10  C   UNL     1      -0.916   3.975   0.457  0.00  0.00    +0.025 A 
ATOM     11  C   UNL     1       0.360   3.559   0.428  0.00  0.00    +0.050 A 
ATOM     12  C   UNL     1       1.604   4.353   0.161  0.00  0.00    +0.155 C 
ATOM     13  N   UNL     1       2.200   4.006  -1.150  0.00  0.00    -0.269 N 
ATOM     14  C   UNL     1       2.173   2.571  -1.521  0.00  0.00    +0.151 C 
ATOM     15  C   UNL     1       2.737   4.941  -1.959  0.00  0.00    +0.303 C 
ATOM     16  O   UNL     1       2.741   6.108  -1.620  0.00  0.00    -0.253 OA
ATOM     17  N   UNL     1       3.269   4.581  -3.144  0.00  0.00    -0.297 N 
ATOM     18  H   UNL     1       3.265   3.525  -3.451  0.00  0.00    +0.150 HD
ENDROOT
BRANCH   5  19
ATOM     19  C   UNL     1       1.481   0.078   2.678  0.00  0.00    +0.068 A 
ATOM     20  C   UNL     1       0.681   0.899   3.461  0.00  0.00    +0.028 A 
ATOM     21  C   UNL     1       0.077   0.394   4.596  0.00  0.00    +0.002 A 
ATOM     22  C   UNL     1       0.276  -0.925   4.958  0.00  0.00    +0.000 A 
ATOM     23  C   UNL     1       1.076  -1.745   4.183  0.00  0.00    +0.002 A 
ATOM     24  C   UNL     1       1.679  -1.247   3.044  0.00  0.00    +0.028 A 
ENDBRANCH   5  19
BRANCH  12  25
ATOM     25  C   UNL     1       2.610   4.075   1.248  0.00  0.00    -0.021 A 
ATOM     26  C   UNL     1       2.188   3.938   2.558  0.00  0.00    +0.007 A 
ATOM     27  C   UNL     1       3.106   3.678   3.557  0.00  0.00    +0.015 A 
ATOM     28  C   UNL     1       4.456   3.564   3.245  0.00  0.00    +0.008 A 
ATOM     29  C   UNL     1       4.876   3.708   1.929  0.00  0.00    +0.015 A 
ATOM     30  C   UNL     1       3.952   3.963   0.934  0.00  0.00    +0.007 A 
BRANCH  28  31
ATOM     31  S   UNL     1       5.631   3.240   4.517  0.00  0.00    -0.129 S 
ATOM     32  C   UNL     1       4.628   3.136   6.025  0.00  0.00    +0.090 C 
ENDBRANCH  28  31
ENDBRANCH  12  25
BRANCH  17  33
ATOM     33  C   UNL     1       3.852   5.597  -4.024  0.00  0.00    +0.068 C 
ATOM     34  C   UNL     1       5.304   5.853  -3.616  0.00  0.00    +0.027 C 
ATOM     35  C   UNL     1       3.808   5.104  -5.472  0.00  0.00    +0.027 C 
ENDBRANCH  17  33
TORSDOF 4
