REMARK  Name = ZINC41549653
REMARK  5 active torsions:
REMARK  status: ('A' for Active; 'I' for Inactive)
REMARK    1  A    between atoms: C_1  and  C_2
REMARK    2  A    between atoms: C_2  and  C_3
REMARK    3  A    between atoms: C_8  and  N_9
REMARK    4  A    between atoms: C_10  and  C_12
REMARK    5  A    between atoms: C_12  and  C_24
REMARK                            x       y       z     vdW  Elec       q    Type
REMARK                         _______ _______ _______ _____ _____    ______ ____
ROOT
ATOM      1  C   UNL     1      -3.478  -0.347   3.694  0.00  0.00    +0.258 C 
ATOM      2  C   UNL     1      -3.897  -0.086   5.119  0.00  0.00    +0.270 C 
ATOM      3  O   UNL     1      -4.271  -1.002   5.821  0.00  0.00    -0.271 OA
ATOM      4  N   UNL     1      -3.854   1.170   5.610  0.00  0.00    -0.279 N 
ATOM      5  C   UNL     1      -3.541   2.231   4.749  0.00  0.00    +0.077 A 
ATOM      6  C   UNL     1      -3.266   3.491   5.255  0.00  0.00    +0.047 A 
ATOM      7  C   UNL     1      -2.946   4.524   4.393  0.00  0.00    +0.043 A 
ATOM      8  C   UNL     1      -2.899   4.302   3.028  0.00  0.00    +0.024 A 
ATOM      9  C   UNL     1      -3.179   3.047   2.517  0.00  0.00    +0.049 A 
ATOM     10  C   UNL     1      -3.505   2.010   3.374  0.00  0.00    +0.144 A 
ATOM     11  O   UNL     1      -3.812   0.780   2.881  0.00  0.00    -0.465 OA
ATOM     12 CL   UNL     1      -2.602   6.104   5.025  0.00  0.00    -0.083 Cl
ATOM     13  C   UNL     1      -4.205  -1.587   3.169  0.00  0.00    +0.076 C 
ATOM     14  H   UNL     1      -4.038   1.337   6.548  0.00  0.00    +0.155 HD
ENDROOT
BRANCH   1  16
ATOM     15  N   UNL     1      -1.309  -0.339   2.505  0.00  0.00    -0.282 N 
ATOM     16  C   UNL     1      -1.990  -0.578   3.643  0.00  0.00    +0.270 C 
ATOM     17  O   UNL     1      -1.405  -0.980   4.627  0.00  0.00    -0.271 OA
ATOM     18  H   UNL     1      -1.764   0.044   1.739  0.00  0.00    +0.155 HD
BRANCH  15  24
ATOM     19  C   UNL     1       0.600  -1.099   1.236  0.00  0.00    -0.026 A 
ATOM     20  C   UNL     1       1.948  -1.393   1.163  0.00  0.00    +0.005 A 
ATOM     21  C   UNL     1       2.753  -1.236   2.276  0.00  0.00    +0.000 A 
ATOM     22  C   UNL     1       2.212  -0.786   3.466  0.00  0.00    +0.002 A 
ATOM     23  C   UNL     1       0.865  -0.490   3.546  0.00  0.00    +0.023 A 
ATOM     24  C   UNL     1       0.055  -0.642   2.429  0.00  0.00    +0.037 A 
BRANCH  19  26
ATOM     25  C   UNL     1      -0.393   0.066  -0.714  0.00  0.00    +0.009 C 
ATOM     26  C   UNL     1      -0.277  -1.270   0.023  0.00  0.00    +0.033 C 
ENDBRANCH  19  26
ENDBRANCH  15  24
ENDBRANCH   1  16
TORSDOF 3
