REMARK  Name = ZINC64713760
REMARK  8 active torsions:
REMARK  status: ('A' for Active; 'I' for Inactive)
REMARK    1  A    between atoms: C_1  and  O_2
REMARK    2  A    between atoms: O_2  and  C_3
REMARK    3  A    between atoms: C_8  and  S_9
REMARK    4  A    between atoms: S_9  and  N_12
REMARK    5  A    between atoms: N_12  and  C_13
REMARK    6  A    between atoms: C_13  and  C_14
REMARK    7  A    between atoms: C_14  and  C_16
REMARK    8  A    between atoms: C_14  and  C_21
REMARK                            x       y       z     vdW  Elec       q    Type
REMARK                         _______ _______ _______ _____ _____    ______ ____
ROOT
ATOM      1  C   UNL     1      -3.729  -1.459  -0.648  0.00  0.00    +0.069 C 
ENDROOT
BRANCH   1   2
ATOM      2  C   UNL     1      -4.298  -0.075  -0.825  0.00  0.00    -0.032 C 
ATOM      3  C   UNL     1      -5.245   0.519  -0.064  0.00  0.00    -0.000 A 
ATOM      4  C   UNL     1      -6.001   0.071   1.112  0.00  0.00    +0.010 A 
ATOM      5  C   UNL     1      -6.904   0.909   1.670  0.00  0.00    +0.001 A 
ATOM      6  C   UNL     1      -7.136   2.191   1.154  0.00  0.00    +0.002 A 
ATOM      7  C   UNL     1      -6.481   2.674   0.077  0.00  0.00    +0.026 A 
ATOM      8  C   UNL     1      -5.509   1.878  -0.589  0.00  0.00    +0.043 A 
ATOM      9  N   UNL     1      -4.754   2.115  -1.634  0.00  0.00    -0.380 N 
ATOM     10  C   UNL     1      -3.921   0.933  -1.887  0.00  0.00    +0.145 C 
ATOM     11  H   UNL     1      -4.745   2.935  -2.152  0.00  0.00    +0.160 HD
ENDBRANCH   1   2
BRANCH   1  12
ATOM     12  C   UNL     1      -3.989  -2.272  -1.890  0.00  0.00    -0.002 A 
ATOM     13  C   UNL     1      -4.692  -3.424  -2.025  0.00  0.00    +0.012 A 
ATOM     14  C   UNL     1      -4.800  -4.000  -3.277  0.00  0.00    +0.008 A 
ATOM     15  C   UNL     1      -4.201  -3.396  -4.332  0.00  0.00    +0.045 A 
ATOM     16  S   UNL     1      -3.458  -1.965  -3.566  0.00  0.00    -0.101 S 
ENDBRANCH   1  12
BRANCH   1  17
ATOM     17  C   UNL     1      -2.222  -1.364  -0.407  0.00  0.00    +0.119 C 
BRANCH  17  18
ATOM     18  N   UNL     1      -1.688  -2.697  -0.116  0.00  0.00    -0.189 NA
ATOM     19  H   UNL     1      -2.292  -3.421   0.114  0.00  0.00    +0.148 HD
BRANCH  18  20
ATOM     20  S   UNL     1      -0.056  -2.968  -0.179  0.00  0.00    +0.062 S 
ATOM     21  O   UNL     1       0.398  -2.426  -1.412  0.00  0.00    -0.153 OA
ATOM     22  O   UNL     1       0.144  -4.330   0.174  0.00  0.00    -0.153 OA
BRANCH  20  28
ATOM     23  C   UNL     1       0.626  -0.618   1.042  0.00  0.00    +0.146 A 
ATOM     24  C   UNL     1       1.202   0.139   2.051  0.00  0.00    +0.049 A 
ATOM     25  C   UNL     1       1.836  -0.488   3.107  0.00  0.00    +0.019 A 
ATOM     26  C   UNL     1       1.896  -1.869   3.158  0.00  0.00    +0.020 A 
ATOM     27  C   UNL     1       1.322  -2.626   2.152  0.00  0.00    +0.047 A 
ATOM     28  C   UNL     1       0.682  -2.003   1.097  0.00  0.00    +0.148 A 
ATOM     29 BR   UNL     1       2.764  -2.724   4.604  0.00  0.00    -0.050 Br
BRANCH  23  31
ATOM     30  C   UNL     1      -0.017   1.425   0.010  0.00  0.00    +0.277 C 
ATOM     31  O   UNL     1       0.002  -0.004   0.002  0.00  0.00    -0.493 OA
ENDBRANCH  23  31
ENDBRANCH  20  28
ENDBRANCH  18  20
ENDBRANCH  17  18
ENDBRANCH   1  17
TORSDOF 7
