REMARK  Name = ZINC30982521
REMARK  8 active torsions:
REMARK  status: ('A' for Active; 'I' for Inactive)
REMARK    1  A    between atoms: C_6  and  C_7
REMARK    2  A    between atoms: C_9  and  C_12
REMARK    3  A    between atoms: C_12  and  N_13
REMARK    4  A    between atoms: C_16  and  C_19
REMARK    5  A    between atoms: N_21  and  C_22
REMARK    6  A    between atoms: C_22  and  C_23
REMARK    7  A    between atoms: C_23  and  S_24
REMARK    8  A    between atoms: S_24  and  C_25
REMARK                            x       y       z     vdW  Elec       q    Type
REMARK                         _______ _______ _______ _____ _____    ______ ____
ROOT
ATOM      1  N   UNL     1       0.235  -0.627   7.351  0.00  0.00    +0.386 N 
ATOM      2  C   UNL     1       0.248   0.841   7.401  0.00  0.00    -0.077 C 
ATOM      3  C   UNL     1      -0.460   1.401   6.165  0.00  0.00    -0.006 C 
ATOM      4  C   UNL     1       0.256   0.907   4.905  0.00  0.00    +0.071 C 
ATOM      5  C   UNL     1       0.270  -0.624   4.902  0.00  0.00    -0.006 C 
ATOM      6  C   UNL     1       0.958  -1.125   6.173  0.00  0.00    -0.077 C 
ATOM      7  H   UNL     1      -0.813  -0.950   7.263  0.00  0.00    -0.081 HD
ENDROOT
BRANCH   4   8
ATOM      8  C   UNL     1      -0.473   1.407   3.684  0.00  0.00    +0.216 C 
ATOM      9  O   UNL     1      -1.468   2.090   3.808  0.00  0.00    -0.276 OA
ATOM     10  N   UNL     1      -0.020   1.094   2.454  0.00  0.00    -0.314 N 
ATOM     11  H   UNL     1       0.881   0.474   2.341  0.00  0.00    +0.149 HD
BRANCH  10  12
ATOM     12  C   UNL     1      -0.729   1.579   1.267  0.00  0.00    +0.115 C 
BRANCH  12  13
ATOM     13  C   UNL     1      -0.013   1.086   0.008  0.00  0.00    +0.088 C 
BRANCH  13  14
ATOM     14  S   UNL     1      -0.890   1.687  -1.462  0.00  0.00    -0.156 S 
BRANCH  14  15
ATOM     15  C   UNL     1       0.072   1.024  -2.849  0.00  0.00    +0.047 C 
ATOM     16  C   UNL     1       1.468   1.651  -2.848  0.00  0.00    +0.014 C 
ATOM     17  C   UNL     1       2.280   1.092  -4.018  0.00  0.00    +0.001 C 
ATOM     18  C   UNL     1       1.573   1.424  -5.333  0.00  0.00    +0.000 C 
ATOM     19  C   UNL     1       0.177   0.796  -5.335  0.00  0.00    +0.001 C 
ATOM     20  C   UNL     1      -0.634   1.355  -4.165  0.00  0.00    +0.014 C 
ENDBRANCH  14  15
ENDBRANCH  13  14
ENDBRANCH  12  13
ENDBRANCH  10  12
ENDBRANCH   4   8
BRANCH   1  21
ATOM     21  C   UNL     1       0.784  -1.201   8.587  0.00  0.00    +0.022 C 
BRANCH  21  24
ATOM     22  C   UNL     1       0.690  -4.787   8.370  0.00  0.00    +0.202 A 
ATOM     23  N   UNL     1       1.323  -3.616   8.132  0.00  0.00    -0.193 NA
ATOM     24  C   UNL     1       0.531  -2.686   8.607  0.00  0.00    +0.211 A 
ATOM     25  O   UNL     1      -0.539  -3.303   9.117  0.00  0.00    -0.340 OA
ATOM     26  N   UNL     1      -0.437  -4.503   8.970  0.00  0.00    -0.056 NA
BRANCH  22  32
ATOM     27  C   UNL     1       2.408  -6.294   7.371  0.00  0.00    +0.014 A 
ATOM     28  C   UNL     1       2.865  -7.555   7.050  0.00  0.00    +0.039 A 
ATOM     29  C   UNL     1       2.102  -8.670   7.359  0.00  0.00    +0.123 A 
ATOM     30  C   UNL     1       0.880  -8.523   7.998  0.00  0.00    +0.039 A 
ATOM     31  C   UNL     1       0.419  -7.266   8.327  0.00  0.00    +0.014 A 
ATOM     32  C   UNL     1       1.183  -6.142   8.018  0.00  0.00    +0.023 A 
ATOM     33  F   UNL     1       2.550  -9.903   7.038  0.00  0.00    -0.205 F 
ENDBRANCH  22  32
ENDBRANCH  21  24
ENDBRANCH   1  21
TORSDOF 8
