REMARK  Name = ZINC58998291
REMARK  12 active torsions:
REMARK  status: ('A' for Active; 'I' for Inactive)
REMARK    1  A    between atoms: C_1  and  C_2
REMARK    2  A    between atoms: C_2  and  O_3
REMARK    3  A    between atoms: O_3  and  C_4
REMARK    4  A    between atoms: C_8  and  N_10
REMARK    5  A    between atoms: C_11  and  C_13
REMARK    6  A    between atoms: C_13  and  S_14
REMARK    7  A    between atoms: S_14  and  C_15
REMARK    8  A    between atoms: N_20  and  N_21
REMARK    9  A    between atoms: C_22  and  C_23
REMARK   10  A    between atoms: C_27  and  C_30
REMARK   11  A    between atoms: C_28  and  O_29
REMARK   12  A    between atoms: C_30  and  C_31
REMARK                            x       y       z     vdW  Elec       q    Type
REMARK                         _______ _______ _______ _____ _____    ______ ____
ROOT
ATOM      1  C   UNL     1       3.472  -8.486   6.591  0.00  0.00    +0.211 A 
ATOM      2  N   UNL     1       3.612  -9.752   7.002  0.00  0.00    -0.186 NA
ATOM      3  C   UNL     1       4.212  -9.774   8.174  0.00  0.00    +0.232 A 
ATOM      4  N   UNL     1       4.468  -8.498   8.535  0.00  0.00    -0.245 N 
ATOM      5  N   UNL     1       3.986  -7.686   7.495  0.00  0.00    -0.144 NA
ATOM      6  N   UNL     1       4.524 -10.904   8.906  0.00  0.00    -0.205 N 
ATOM      7  H   UNL     1       4.969 -10.818   9.764  0.00  0.00    +0.177 HD
ATOM      8  H   UNL     1       4.902  -8.201   9.350  0.00  0.00    +0.192 HD
ENDROOT
BRANCH   6   9
ATOM      9  N   UNL     1       4.199 -12.173   8.409  0.00  0.00    -0.187 NA
ATOM     10  C   UNL     1       4.493 -13.234   9.096  0.00  0.00    +0.142 C 
BRANCH  10  11
ATOM     11  C   UNL     1       4.151 -14.569   8.573  0.00  0.00    +0.036 A 
ATOM     12  C   UNL     1       4.459 -15.713   9.312  0.00  0.00    +0.013 A 
ATOM     13  C   UNL     1       4.136 -16.959   8.817  0.00  0.00    +0.001 A 
ATOM     14  C   UNL     1       3.507 -17.081   7.590  0.00  0.00    +0.007 A 
ATOM     15  C   UNL     1       3.197 -15.956   6.849  0.00  0.00    -0.002 A 
ATOM     16  C   UNL     1       3.509 -14.697   7.334  0.00  0.00    +0.129 A 
BRANCH  16  17
ATOM     17  O   UNL     1       3.199 -13.591   6.609  0.00  0.00    -0.506 OA
ATOM     18  H   UNL     1       3.894 -13.314   5.997  0.00  0.00    +0.292 HD
ENDBRANCH  16  17
BRANCH  15  19
ATOM     19  C   UNL     1       2.513 -16.100   5.514  0.00  0.00    +0.065 C 
BRANCH  19  20
ATOM     20  C   UNL     1       3.546 -16.097   4.417  0.00  0.00    -0.030 C 
ATOM     21  C   UNL     1       3.594 -17.087   3.560  0.00  0.00    +0.004 C 
ENDBRANCH  19  20
ENDBRANCH  15  19
ENDBRANCH  10  11
ENDBRANCH   6   9
BRANCH   1  22
ATOM     22  S   UNL     1       2.725  -7.977   5.079  0.00  0.00    -0.075 S 
BRANCH  22  23
ATOM     23  C   UNL     1       2.853  -6.168   5.114  0.00  0.00    +0.173 C 
BRANCH  23  25
ATOM     24  N   UNL     1       2.223  -4.264   3.666  0.00  0.00    -0.285 N 
ATOM     25  C   UNL     1       2.242  -5.598   3.860  0.00  0.00    +0.227 C 
ATOM     26  O   UNL     1       1.767  -6.338   3.025  0.00  0.00    -0.275 OA
ATOM     27  H   UNL     1       2.670  -3.676   4.295  0.00  0.00    +0.155 HD
BRANCH  24  32
ATOM     28  C   UNL     1       1.385  -2.051   0.848  0.00  0.00    +0.122 A 
ATOM     29  C   UNL     1       0.241  -2.670   0.362  0.00  0.00    +0.046 A 
ATOM     30  C   UNL     1      -0.240  -3.812   0.972  0.00  0.00    +0.005 A 
ATOM     31  C   UNL     1       0.415  -4.342   2.067  0.00  0.00    +0.023 A 
ATOM     32  C   UNL     1       1.560  -3.727   2.557  0.00  0.00    +0.037 A 
ATOM     33  C   UNL     1       2.048  -2.582   1.942  0.00  0.00    +0.069 A 
BRANCH  28  34
ATOM     34  O   UNL     1       1.857  -0.927   0.247  0.00  0.00    -0.492 OA
BRANCH  34  36
ATOM     35  C   UNL     1       1.801   0.826  -1.415  0.00  0.00    +0.048 C 
ATOM     36  C   UNL     1       1.123  -0.435  -0.876  0.00  0.00    +0.225 C 
ENDBRANCH  34  36
ENDBRANCH  28  34
ENDBRANCH  24  32
ENDBRANCH  23  25
ENDBRANCH  22  23
ENDBRANCH   1  22
TORSDOF 11
