REMARK  Name = ZINC16249858
REMARK  8 active torsions:
REMARK  status: ('A' for Active; 'I' for Inactive)
REMARK    1  A    between atoms: C_1  and  N_2
REMARK    2  A    between atoms: N_9  and  C_34
REMARK    3  A    between atoms: C_11  and  C_12
REMARK    4  A    between atoms: C_11  and  C_14
REMARK    5  A    between atoms: C_14  and  C_16
REMARK    6  A    between atoms: C_16  and  O_17
REMARK    7  A    between atoms: O_17  and  C_18
REMARK    8  A    between atoms: C_18  and  C_20
REMARK                            x       y       z     vdW  Elec       q    Type
REMARK                         _______ _______ _______ _____ _____    ______ ____
ROOT
ATOM      1  C   UNL     1      -2.595   2.013  -0.322  0.00  0.00    +0.312 C 
ENDROOT
BRANCH   1   2
ATOM      2  C   UNL     1      -3.976   2.614  -0.262  0.00  0.00    +0.214 C 
ATOM      3  O   UNL     1      -4.117   3.820  -0.324  0.00  0.00    -0.288 OA
BRANCH   2  14
ATOM      4  C   UNL     1      -4.226   3.136   2.431  0.00  0.00    +0.137 C 
ATOM      5  N   UNL     1      -5.456   2.368   2.224  0.00  0.00    -0.289 N 
ATOM      6  C   UNL     1      -6.439   2.132   3.178  0.00  0.00    +0.056 A 
ATOM      7  C   UNL     1      -6.578   2.503   4.508  0.00  0.00    +0.025 A 
ATOM      8  C   UNL     1      -7.691   2.104   5.221  0.00  0.00    +0.002 A 
ATOM      9  C   UNL     1      -8.670   1.335   4.614  0.00  0.00    +0.002 A 
ATOM     10  C   UNL     1      -8.542   0.961   3.292  0.00  0.00    +0.025 A 
ATOM     11  C   UNL     1      -7.427   1.356   2.566  0.00  0.00    +0.056 A 
ATOM     12  N   UNL     1      -7.024   1.143   1.252  0.00  0.00    -0.289 N 
ATOM     13  C   UNL     1      -5.832   1.766   1.066  0.00  0.00    +0.118 C 
ATOM     14  C   UNL     1      -5.100   1.781  -0.135  0.00  0.00    +0.134 C 
ATOM     15  C   UNL     1      -7.760   0.378   0.243  0.00  0.00    +0.137 C 
BRANCH  14  16
ATOM     16  C   UNL     1      -5.500   0.947  -1.228  0.00  0.00    +0.106 C 
ATOM     17  N   UNL     1      -5.818   0.285  -2.095  0.00  0.00    -0.191 NA
ENDBRANCH  14  16
ENDBRANCH   2  14
ENDBRANCH   1   2
BRANCH   1  18
ATOM     18  O   UNL     1      -1.611   3.072  -0.453  0.00  0.00    -0.453 OA
BRANCH  18  19
ATOM     19  C   UNL     1      -0.318   2.701  -0.521  0.00  0.00    +0.340 C 
ATOM     20  O   UNL     1      -0.020   1.524  -0.471  0.00  0.00    -0.245 OA
BRANCH  19  21
ATOM     21  C   UNL     1       0.737   3.723  -0.660  0.00  0.00    +0.060 A 
ATOM     22  C   UNL     1       0.393   5.081  -0.723  0.00  0.00    +0.017 A 
ATOM     23  C   UNL     1       1.356   6.037  -0.847  0.00  0.00    +0.027 A 
ATOM     24  C   UNL     1       2.700   5.675  -0.923  0.00  0.00    +0.047 A 
ATOM     25  C   UNL     1       3.059   4.312  -0.868  0.00  0.00    +0.004 A 
ATOM     26  C   UNL     1       2.072   3.338  -0.736  0.00  0.00    +0.025 A 
ATOM     27  C   UNL     1       4.515   4.280  -0.975  0.00  0.00    -0.019 A 
ATOM     28  C   UNL     1       4.938   5.554  -1.080  0.00  0.00    +0.020 A 
ATOM     29  N   UNL     1       3.862   6.397  -1.051  0.00  0.00    -0.358 N 
ATOM     30  H   UNL     1       3.913   7.364  -1.111  0.00  0.00    +0.166 HD
ATOM     31  C   UNL     1       6.392   5.946  -1.209  0.00  0.00    +0.053 C 
ATOM     32  C   UNL     1       7.257   4.756  -0.781  0.00  0.00    +0.006 C 
ATOM     33  C   UNL     1       6.791   3.494  -1.513  0.00  0.00    +0.005 C 
ATOM     34  C   UNL     1       5.418   3.073  -0.974  0.00  0.00    +0.037 C 
ENDBRANCH  19  21
ENDBRANCH  18  19
ENDBRANCH   1  18
TORSDOF 6
