REMARK  Name = ZINC09065755
REMARK  4 active torsions:
REMARK  status: ('A' for Active; 'I' for Inactive)
REMARK    1  A    between atoms: C_15  and  C_17
REMARK    2  A    between atoms: N_19  and  C_20
REMARK    3  A    between atoms: N_29  and  C_32
REMARK    4  A    between atoms: C_35  and  N_38
REMARK                            x       y       z     vdW  Elec       q    Type
REMARK                         _______ _______ _______ _____ _____    ______ ____
ROOT
ATOM      1  C   UNL     1       2.493  -5.244   1.453  0.00  0.00    +0.001 A 
ATOM      2  C   UNL     1       1.304  -4.536   1.461  0.00  0.00    +0.000 A 
ATOM      3  C   UNL     1       1.231  -3.286   0.876  0.00  0.00    +0.006 A 
ATOM      4  C   UNL     1       2.338  -2.722   0.275  0.00  0.00    -0.021 A 
ATOM      5  C   UNL     1       3.554  -3.437   0.275  0.00  0.00    -0.019 A 
ATOM      6  C   UNL     1       3.614  -4.699   0.863  0.00  0.00    +0.008 A 
ATOM      7  C   UNL     1       4.757  -2.849  -0.345  0.00  0.00    +0.022 C 
ATOM      8  C   UNL     1       4.787  -1.563  -0.738  0.00  0.00    +0.054 C 
ATOM      9  C   UNL     1       2.311  -1.416  -0.369  0.00  0.00    +0.100 C 
ATOM     10  C   UNL     1       1.361  -0.359  -0.359  0.00  0.00    +0.113 C 
ATOM     11  C   UNL     1       2.152   0.802   0.382  0.00  0.00    +0.118 C 
ATOM     12  C   UNL     1       3.501   0.648  -0.329  0.00  0.00    +0.156 C 
ATOM     13  C   UNL     1       1.223   1.912  -0.018  0.00  0.00    +0.232 C 
ATOM     14  O   UNL     1       1.521   3.056  -0.285  0.00  0.00    -0.274 OA
ATOM     15  N   UNL     1      -0.028   1.363  -0.018  0.00  0.00    -0.210 N 
ATOM     16  C   UNL     1      -0.007  -0.008  -0.023  0.00  0.00    +0.232 C 
ATOM     17  O   UNL     1      -0.929  -0.762   0.203  0.00  0.00    -0.274 OA
ATOM     18  N   UNL     1       3.491  -0.765  -0.844  0.00  0.00    -0.383 NA
ATOM     19  H   UNL     1       3.347  -0.674  -1.856  0.00  0.00    +0.127 HD
ENDROOT
BRANCH  15  20
ATOM     20  C   UNL     1      -1.207   2.121  -0.018  0.00  0.00    +0.044 A 
ATOM     21  C   UNL     1      -2.442   1.486  -0.030  0.00  0.00    +0.026 A 
ATOM     22  C   UNL     1      -3.602   2.235  -0.024  0.00  0.00    +0.034 A 
ATOM     23  C   UNL     1      -3.535   3.616  -0.019  0.00  0.00    +0.126 A 
ATOM     24  C   UNL     1      -2.307   4.252  -0.013  0.00  0.00    +0.034 A 
ATOM     25  C   UNL     1      -1.143   3.508  -0.012  0.00  0.00    +0.026 A 
BRANCH  23  26
ATOM     26  N   UNL     1      -4.780   4.417  -0.019  0.00  0.00    +0.056 N 
ATOM     27  O   UNL     1      -4.723   5.633  -0.014  0.00  0.00    -0.126 OA
ATOM     28  O   UNL     1      -5.863   3.858  -0.024  0.00  0.00    -0.126 OA
ENDBRANCH  23  26
ENDBRANCH  15  20
BRANCH  12  29
ATOM     29  C   UNL     1       3.477   1.355  -1.660  0.00  0.00    +0.237 C 
ATOM     30  O   UNL     1       3.239   0.732  -2.673  0.00  0.00    -0.273 OA
ATOM     31  N   UNL     1       3.721   2.679  -1.725  0.00  0.00    -0.284 N 
ATOM     32  H   UNL     1       3.846   3.189  -0.910  0.00  0.00    +0.155 HD
BRANCH  31  33
ATOM     33  C   UNL     1       3.795   3.317  -2.969  0.00  0.00    +0.034 A 
ATOM     34  C   UNL     1       4.682   4.368  -3.160  0.00  0.00    +0.025 A 
ATOM     35  C   UNL     1       4.755   4.993  -4.390  0.00  0.00    +0.022 A 
ATOM     36  C   UNL     1       3.939   4.579  -5.427  0.00  0.00    +0.041 A 
ATOM     37  C   UNL     1       3.050   3.535  -5.238  0.00  0.00    +0.022 A 
ATOM     38  C   UNL     1       2.976   2.904  -4.012  0.00  0.00    +0.025 A 
ATOM     39 CL   UNL     1       4.029   5.370  -6.970  0.00  0.00    -0.084 Cl
ENDBRANCH  31  33
ENDBRANCH  12  29
TORSDOF 4
