REMARK  Name = ZINC38783237
REMARK  8 active torsions:
REMARK  status: ('A' for Active; 'I' for Inactive)
REMARK    1  A    between atoms: C_1  and  N_2
REMARK    2  A    between atoms: N_2  and  C_3
REMARK    3  A    between atoms: N_2  and  C_21
REMARK    4  A    between atoms: C_3  and  C_4
REMARK    5  A    between atoms: C_5  and  C_15
REMARK    6  A    between atoms: N_7  and  C_9
REMARK    7  A    between atoms: C_21  and  N_22
REMARK    8  A    between atoms: C_26  and  C_29
REMARK                            x       y       z     vdW  Elec       q    Type
REMARK                         _______ _______ _______ _____ _____    ______ ____
ROOT
ATOM      1  C   UNL     1       2.148  -0.041   1.062  0.00  0.00    -0.044 C 
ATOM      2  C   UNL     1       2.677   1.054   1.602  0.00  0.00    +0.051 C 
ATOM      3  N   UNL     1       4.054   1.094   1.427  0.00  0.00    -0.263 N 
ATOM      4  N   UNL     1       4.488  -0.040   0.728  0.00  0.00    -0.249 N 
ATOM      5  C   UNL     1       3.282  -0.839   0.458  0.00  0.00    +0.158 C 
ATOM      6  H   UNL     1       4.632   1.805   1.744  0.00  0.00    +0.170 HD
ENDROOT
BRANCH   4   7
ATOM      7  C   UNL     1       5.801  -0.351   0.365  0.00  0.00    +0.048 A 
ATOM      8  C   UNL     1       6.070  -1.519  -0.338  0.00  0.00    +0.025 A 
ATOM      9  C   UNL     1       7.369  -1.824  -0.695  0.00  0.00    +0.002 A 
ATOM     10  C   UNL     1       8.400  -0.968  -0.354  0.00  0.00    +0.000 A 
ATOM     11  C   UNL     1       8.136   0.195   0.345  0.00  0.00    +0.002 A 
ATOM     12  C   UNL     1       6.838   0.509   0.700  0.00  0.00    +0.025 A 
ENDBRANCH   4   7
BRANCH   2  13
ATOM     13  C   UNL     1       1.895   2.100   2.301  0.00  0.00    -0.003 A 
ATOM     14  C   UNL     1       0.970   1.744   3.281  0.00  0.00    +0.010 A 
ATOM     15  C   UNL     1       0.244   2.722   3.929  0.00  0.00    +0.001 A 
ATOM     16  C   UNL     1       0.433   4.054   3.608  0.00  0.00    +0.000 A 
ATOM     17  C   UNL     1       1.350   4.414   2.636  0.00  0.00    +0.001 A 
ATOM     18  C   UNL     1       2.086   3.445   1.986  0.00  0.00    +0.010 A 
ENDBRANCH   2  13
BRANCH   1  19
ATOM     19  C   UNL     1       0.690  -0.419   1.059  0.00  0.00    -0.042 C 
BRANCH  19  21
ATOM     20  C   UNL     1       0.101   1.462  -0.310  0.00  0.00    -0.093 C 
ATOM     21  N   UNL     1       0.079  -0.004  -0.211  0.00  0.00    +0.393 N 
ATOM     22  H   UNL     1       0.599  -0.400  -0.980  0.00  0.00    -0.079 HD
BRANCH  21  23
ATOM     23  C   UNL     1      -1.310  -0.477  -0.265  0.00  0.00    +0.072 C 
BRANCH  23  24
ATOM     24  N   UNL     1      -1.882  -0.168  -1.578  0.00  0.00    -0.258 N 
ATOM     25  C   UNL     1      -2.763   0.815  -1.855  0.00  0.00    +0.174 A 
ATOM     26  S   UNL     1      -3.420   1.932  -0.737  0.00  0.00    -0.012 S 
ATOM     27  N   UNL     1      -3.031   0.756  -3.175  0.00  0.00    -0.321 N 
ATOM     28  C   UNL     1      -2.306  -0.277  -3.717  0.00  0.00    +0.133 A 
ATOM     29  N   UNL     1      -1.609  -0.835  -2.780  0.00  0.00    -0.158 NA
ATOM     30  H   UNL     1      -3.633   1.342  -3.659  0.00  0.00    +0.169 HD
BRANCH  28  31
ATOM     31  C   UNL     1      -2.314  -0.688  -5.167  0.00  0.00    +0.057 C 
ATOM     32  C   UNL     1      -2.385  -2.184  -5.477  0.00  0.00    +0.012 C 
ATOM     33  C   UNL     1      -1.080  -1.417  -5.702  0.00  0.00    +0.012 C 
ENDBRANCH  28  31
ENDBRANCH  23  24
ENDBRANCH  21  23
ENDBRANCH  19  21
ENDBRANCH   1  19
TORSDOF 7
