REMARK  Name = ZINC41349354
REMARK  7 active torsions:
REMARK  status: ('A' for Active; 'I' for Inactive)
REMARK    1  A    between atoms: C_1  and  O_2
REMARK    2  A    between atoms: O_2  and  C_3
REMARK    3  A    between atoms: C_6  and  C_9
REMARK    4  A    between atoms: C_11  and  O_12
REMARK    5  A    between atoms: C_21  and  C_23
REMARK    6  A    between atoms: C_23  and  O_24
REMARK    7  A    between atoms: O_24  and  C_25
REMARK                            x       y       z     vdW  Elec       q    Type
REMARK                         _______ _______ _______ _____ _____    ______ ____
ROOT
ATOM      1  C   UNL     1      -4.989  -2.692  -0.424  0.00  0.00    +0.139 A 
ATOM      2  C   UNL     1      -5.029  -4.066  -0.274  0.00  0.00    +0.093 A 
ATOM      3  C   UNL     1      -6.252  -4.705  -0.079  0.00  0.00    +0.131 A 
ATOM      4  C   UNL     1      -7.428  -3.912  -0.039  0.00  0.00    +0.059 A 
ATOM      5  C   UNL     1      -8.686  -4.503   0.155  0.00  0.00    +0.017 A 
ATOM      6  C   UNL     1      -9.802  -3.727   0.191  0.00  0.00    +0.024 A 
ATOM      7  C   UNL     1      -9.704  -2.334   0.033  0.00  0.00    +0.037 A 
ATOM      8  C   UNL     1      -8.459  -1.733  -0.162  0.00  0.00    +0.070 A 
ATOM      9  C   UNL     1      -7.318  -2.515  -0.199  0.00  0.00    +0.141 A 
ATOM     10  O   UNL     1      -6.106  -1.950  -0.381  0.00  0.00    -0.455 OA
ATOM     11  N   UNL     1     -10.829  -1.567   0.069  0.00  0.00    -0.283 N 
ATOM     12  C   UNL     1     -11.948  -2.061   0.560  0.00  0.00    +0.255 C 
ATOM     13  O   UNL     1     -11.948  -3.157   1.092  0.00  0.00    -0.272 OA
ATOM     14  H   UNL     1     -10.806  -0.657  -0.266  0.00  0.00    +0.155 HD
ENDROOT
BRANCH   1  18
ATOM     15  C   UNL     1      -1.247  -0.778  -1.016  0.00  0.00    +0.120 A 
ATOM     16  C   UNL     1      -2.413  -0.022  -0.969  0.00  0.00    +0.046 A 
ATOM     17  C   UNL     1      -3.629  -0.638  -0.778  0.00  0.00    +0.015 A 
ATOM     18  C   UNL     1      -3.690  -2.028  -0.630  0.00  0.00    +0.018 A 
ATOM     19  C   UNL     1      -2.515  -2.785  -0.677  0.00  0.00    +0.015 A 
ATOM     20  C   UNL     1      -1.304  -2.160  -0.874  0.00  0.00    +0.046 A 
BRANCH  15  22
ATOM     21  C   UNL     1      -0.064   1.256  -1.342  0.00  0.00    +0.277 C 
ATOM     22  O   UNL     1      -0.051  -0.166  -1.205  0.00  0.00    -0.495 OA
ENDBRANCH  15  22
ENDBRANCH   1  18
BRANCH   3  23
ATOM     23  O   UNL     1      -6.316  -6.046   0.071  0.00  0.00    -0.506 OA
ATOM     24  H   UNL     1      -5.457  -6.488   0.028  0.00  0.00    +0.292 HD
ENDBRANCH   3  23
BRANCH  12  25
ATOM     25  C   UNL     1     -13.227  -1.270   0.465  0.00  0.00    +0.325 C 
BRANCH  25  26
ATOM     26  O   UNL     1     -14.292  -2.011   1.063  0.00  0.00    -0.477 OA
BRANCH  26  27
ATOM     27  C   UNL     1     -15.524  -1.434   1.061  0.00  0.00    +0.197 A 
ATOM     28  C   UNL     1     -15.912  -0.621   2.116  0.00  0.00    +0.206 A 
ATOM     29  C   UNL     1     -17.167  -0.034   2.112  0.00  0.00    +0.200 A 
ATOM     30  C   UNL     1     -18.034  -0.257   1.055  0.00  0.00    +0.199 A 
ATOM     31  C   UNL     1     -17.647  -1.069   0.000  0.00  0.00    +0.200 A 
ATOM     32  C   UNL     1     -16.391  -1.653  -0.001  0.00  0.00    +0.206 A 
ATOM     33  F   UNL     1     -16.012  -2.440  -1.032  0.00  0.00    -0.198 F 
ATOM     34  F   UNL     1     -18.494  -1.287  -1.030  0.00  0.00    -0.199 F 
ATOM     35  F   UNL     1     -19.257   0.316   1.052  0.00  0.00    -0.199 F 
ATOM     36  F   UNL     1     -17.545   0.757   3.140  0.00  0.00    -0.199 F 
ATOM     37  F   UNL     1     -15.067  -0.403   3.148  0.00  0.00    -0.198 F 
ENDBRANCH  26  27
ENDBRANCH  25  26
ENDBRANCH  12  25
TORSDOF 6
