REMARK  Name = ZINC65036172
REMARK  9 active torsions:
REMARK  status: ('A' for Active; 'I' for Inactive)
REMARK    1  A    between atoms: C_1  and  C_2
REMARK    2  A    between atoms: C_3  and  C_24
REMARK    3  A    between atoms: C_5  and  C_7
REMARK    4  A    between atoms: C_9  and  S_14
REMARK    5  A    between atoms: C_10  and  C_13
REMARK    6  A    between atoms: N_11  and  C_12
REMARK    7  A    between atoms: S_14  and  N_17
REMARK    8  A    between atoms: N_17  and  C_18
REMARK    9  A    between atoms: C_29  and  C_32
REMARK                            x       y       z     vdW  Elec       q    Type
REMARK                         _______ _______ _______ _____ _____    ______ ____
ROOT
ATOM      1  C   UNL     1       0.955  -1.740   4.680  0.00  0.00    +0.076 A 
ATOM      2  C   UNL     1       1.073  -2.939   4.033  0.00  0.00    +0.058 A 
ATOM      3  C   UNL     1       1.157  -3.935   5.015  0.00  0.00    +0.126 A 
ATOM      4  C   UNL     1       1.089  -3.330   6.223  0.00  0.00    +0.042 A 
ATOM      5  N   UNL     1       0.971  -1.989   6.031  0.00  0.00    -0.344 N 
ATOM      6  C   UNL     1       0.873  -0.979   7.088  0.00  0.00    +0.149 C 
ATOM      7  C   UNL     1       1.143  -4.026   7.559  0.00  0.00    +0.065 C 
ENDROOT
BRANCH   1  12
ATOM      8  C   UNL     1       0.505   3.210   4.562  0.00  0.00    +0.067 C 
ATOM      9  C   UNL     1       0.630   1.865   3.894  0.00  0.00    +0.058 A 
ATOM     10  C   UNL     1       0.646   1.767   2.508  0.00  0.00    +0.097 A 
ATOM     11  S   UNL     1       0.808  -0.003   2.306  0.00  0.00    -0.061 S 
ATOM     12  C   UNL     1       0.838  -0.421   4.044  0.00  0.00    +0.126 A 
ATOM     13  N   UNL     1       0.731   0.781   4.609  0.00  0.00    -0.242 NA
BRANCH  10  14
ATOM     14  C   UNL     1       0.554   2.820   1.495  0.00  0.00    +0.255 C 
ATOM     15  O   UNL     1       0.639   3.989   1.822  0.00  0.00    -0.269 OA
ATOM     16  N   UNL     1       0.376   2.495   0.199  0.00  0.00    -0.297 N 
ATOM     17  C   UNL     1       0.460   3.521  -0.849  0.00  0.00    +0.108 C 
ATOM     18  C   UNL     1      -0.818   3.470  -1.692  0.00  0.00    +0.022 C 
ATOM     19  C   UNL     1      -1.020   2.048  -2.220  0.00  0.00    -0.011 C 
ATOM     20  C   UNL     1      -1.179   1.083  -1.043  0.00  0.00    +0.022 C 
ATOM     21  C   UNL     1       0.101   1.106  -0.193  0.00  0.00    +0.108 C 
ATOM     22  C   UNL     1      -2.276   2.001  -3.092  0.00  0.00    +0.007 C 
ENDBRANCH  10  14
ENDBRANCH   1  12
BRANCH   3  23
ATOM     23  S   UNL     1       1.322  -5.665   4.727  0.00  0.00    +0.060 S 
ATOM     24  O   UNL     1       0.346  -6.306   5.537  0.00  0.00    -0.153 OA
ATOM     25  O   UNL     1       1.375  -5.839   3.317  0.00  0.00    -0.153 OA
BRANCH  23  26
ATOM     26  N   UNL     1       2.801  -6.121   5.317  0.00  0.00    -0.187 NA
ATOM     27  H   UNL     1       2.856  -6.746   6.056  0.00  0.00    +0.148 HD
BRANCH  26  28
ATOM     28  C   UNL     1       4.025  -5.580   4.721  0.00  0.00    +0.077 C 
ATOM     29  C   UNL     1       4.882  -6.729   4.185  0.00  0.00    +0.020 C 
ATOM     30  C   UNL     1       6.160  -6.164   3.563  0.00  0.00    +0.002 C 
ATOM     31  C   UNL     1       6.947  -5.394   4.626  0.00  0.00    +0.000 C 
ATOM     32  C   UNL     1       6.091  -4.246   5.162  0.00  0.00    +0.002 C 
ATOM     33  C   UNL     1       4.812  -4.811   5.784  0.00  0.00    +0.020 C 
ENDBRANCH  26  28
ENDBRANCH  23  26
ENDBRANCH   3  23
TORSDOF 5
