REMARK  Name = ZINC10555554
REMARK  15 active torsions:
REMARK  status: ('A' for Active; 'I' for Inactive)
REMARK    1  A    between atoms: C_1  and  C_2
REMARK    2  A    between atoms: C_2  and  O_3
REMARK    3  A    between atoms: O_3  and  C_4
REMARK    4  A    between atoms: C_4  and  C_6
REMARK    5  A    between atoms: C_7  and  C_20
REMARK    6  A    between atoms: C_12  and  C_14
REMARK    7  A    between atoms: C_20  and  O_21
REMARK    8  A    between atoms: O_21  and  C_22
REMARK    9  A    between atoms: C_22  and  C_24
REMARK   10  A    between atoms: C_24  and  N_25
REMARK   11  A    between atoms: C_26  and  C_28
REMARK   12  A    between atoms: C_31  and  C_34
REMARK   13  A    between atoms: C_34  and  C_35
REMARK   14  A    between atoms: C_34  and  C_36
REMARK   15  A    between atoms: C_34  and  C_37
REMARK                            x       y       z     vdW  Elec       q    Type
REMARK                         _______ _______ _______ _____ _____    ______ ____
ROOT
ATOM      1  C   UNL     1       1.210   1.929  -0.109  0.00  0.00    +0.081 C 
ATOM      2  C   UNL     1       2.391   1.304   0.093  0.00  0.00    +0.061 C 
ATOM      3  N   UNL     1       3.554   2.012   0.192  0.00  0.00    -0.269 N 
ATOM      4  C   UNL     1       3.621   3.347   0.110  0.00  0.00    +0.304 C 
ATOM      5  O   UNL     1       4.704   3.889   0.215  0.00  0.00    -0.252 OA
ATOM      6  N   UNL     1       2.526   4.109  -0.084  0.00  0.00    -0.288 N 
ATOM      7  C   UNL     1       1.220   3.440  -0.210  0.00  0.00    +0.144 C 
ATOM      8  H   UNL     1       4.379   1.520   0.333  0.00  0.00    +0.156 HD
ATOM      9  H   UNL     1       2.597   5.075  -0.141  0.00  0.00    +0.151 HD
ENDROOT
BRANCH   7  10
ATOM     10  C   UNL     1       0.316   3.984   0.866  0.00  0.00    -0.022 A 
ATOM     11  C   UNL     1       0.770   4.077   2.169  0.00  0.00    +0.006 A 
ATOM     12  C   UNL     1      -0.058   4.580   3.155  0.00  0.00    +0.000 A 
ATOM     13  C   UNL     1      -1.343   4.980   2.841  0.00  0.00    +0.000 A 
ATOM     14  C   UNL     1      -1.799   4.881   1.540  0.00  0.00    +0.000 A 
ATOM     15  C   UNL     1      -0.970   4.383   0.552  0.00  0.00    +0.006 A 
ENDBRANCH   7  10
BRANCH   1  16
ATOM     16  C   UNL     1       0.005   1.196  -0.216  0.00  0.00    +0.339 C 
ATOM     17  O   UNL     1      -0.481   0.982  -1.311  0.00  0.00    -0.245 OA
BRANCH  16  18
ATOM     18  O   UNL     1      -0.609   0.741   0.895  0.00  0.00    -0.462 OA
BRANCH  18  20
ATOM     19  C   UNL     1      -2.371  -0.418   2.076  0.00  0.00    +0.048 C 
ATOM     20  C   UNL     1      -1.826   0.014   0.713  0.00  0.00    +0.229 C 
ENDBRANCH  18  20
ENDBRANCH  16  18
ENDBRANCH   1  16
BRANCH   2  21
ATOM     21  C   UNL     1       2.425  -0.198   0.205  0.00  0.00    +0.283 C 
BRANCH  21  22
ATOM     22  O   UNL     1       3.165  -0.750  -0.916  0.00  0.00    -0.458 OA
BRANCH  22  23
ATOM     23  C   UNL     1       3.289  -2.086  -0.966  0.00  0.00    +0.325 C 
ATOM     24  O   UNL     1       2.796  -2.771  -0.102  0.00  0.00    -0.249 OA
BRANCH  23  25
ATOM     25  C   UNL     1       4.043  -2.731  -2.100  0.00  0.00    +0.225 C 
BRANCH  25  26
ATOM     26  N   UNL     1       4.036  -4.186  -1.927  0.00  0.00    -0.301 N 
ATOM     27  C   UNL     1       4.654  -4.975  -2.827  0.00  0.00    +0.245 C 
ATOM     28  O   UNL     1       5.218  -4.480  -3.784  0.00  0.00    -0.270 OA
ATOM     29  H   UNL     1       3.586  -4.581  -1.163  0.00  0.00    +0.150 HD
BRANCH  27  30
ATOM     30  C   UNL     1       4.646  -6.443  -2.652  0.00  0.00    +0.037 A 
ATOM     31  C   UNL     1       4.005  -7.014  -1.552  0.00  0.00    +0.013 A 
ATOM     32  C   UNL     1       3.997  -8.385  -1.397  0.00  0.00    +0.005 A 
ATOM     33  C   UNL     1       4.633  -9.192  -2.324  0.00  0.00    -0.042 A 
ATOM     34  C   UNL     1       5.276  -8.632  -3.413  0.00  0.00    +0.005 A 
ATOM     35  C   UNL     1       5.286  -7.263  -3.583  0.00  0.00    +0.013 A 
BRANCH  33  36
ATOM     36  C   UNL     1       4.625 -10.689  -2.146  0.00  0.00    -0.013 C 
ATOM     37  C   UNL     1       6.064 -11.196  -2.030  0.00  0.00    +0.015 C 
ATOM     38  C   UNL     1       3.854 -11.047  -0.874  0.00  0.00    +0.015 C 
ATOM     39  C   UNL     1       3.949 -11.343  -3.353  0.00  0.00    +0.015 C 
ENDBRANCH  33  36
ENDBRANCH  27  30
ENDBRANCH  25  26
ENDBRANCH  23  25
ENDBRANCH  22  23
ENDBRANCH  21  22
ENDBRANCH   2  21
TORSDOF 11
