REMARK  Name = ZINC08923496
REMARK  7 active torsions:
REMARK  status: ('A' for Active; 'I' for Inactive)
REMARK    1  A    between atoms: C_4  and  N_30
REMARK    2  A    between atoms: C_5  and  C_7
REMARK    3  A    between atoms: C_7  and  C_9
REMARK    4  A    between atoms: C_9  and  C_10
REMARK    5  A    between atoms: C_10  and  O_29
REMARK    6  A    between atoms: N_17  and  C_20
REMARK    7  A    between atoms: C_20  and  C_21
REMARK                            x       y       z     vdW  Elec       q    Type
REMARK                         _______ _______ _______ _____ _____    ______ ____
ROOT
ATOM      1  C   UNL     1      -1.990   1.133   0.542  0.00  0.00    +0.176 C 
ATOM      2  C   UNL     1      -0.495   1.324   0.654  0.00  0.00    +0.016 A 
ATOM      3  C   UNL     1       0.567   0.449   0.599  0.00  0.00    +0.028 A 
ATOM      4  C   UNL     1       1.861   0.925   0.731  0.00  0.00    +0.041 A 
ATOM      5  C   UNL     1       2.080   2.277   0.924  0.00  0.00    +0.022 A 
ATOM      6  C   UNL     1       1.017   3.154   0.985  0.00  0.00    +0.025 A 
ATOM      7  C   UNL     1      -0.287   2.683   0.853  0.00  0.00    +0.043 A 
ATOM      8  N   UNL     1      -1.509   3.358   0.879  0.00  0.00    -0.264 N 
ATOM      9  C   UNL     1      -2.551   2.531   0.696  0.00  0.00    +0.257 C 
ATOM     10  O   UNL     1      -3.723   2.843   0.670  0.00  0.00    -0.272 OA
ATOM     11 CL   UNL     1       3.204  -0.173   0.654  0.00  0.00    -0.084 Cl
ENDROOT
BRANCH   1  12
ATOM     12  O   UNL     1      -2.332   0.594  -0.736  0.00  0.00    -0.374 OA
ATOM     13  H   UNL     1      -3.280   0.452  -0.862  0.00  0.00    +0.211 HD
ENDBRANCH   1  12
BRANCH   1  14
ATOM     14  C   UNL     1      -2.500   0.224   1.663  0.00  0.00    +0.129 C 
BRANCH  14  15
ATOM     15  C   UNL     1      -3.990   0.051   1.529  0.00  0.00    +0.169 C 
ATOM     16  O   UNL     1      -4.587   0.600   0.627  0.00  0.00    -0.292 OA
BRANCH  15  21
ATOM     17  C   UNL     1      -6.171  -0.979   4.402  0.00  0.00    +0.001 A 
ATOM     18  C   UNL     1      -6.101  -2.359   4.310  0.00  0.00    +0.002 A 
ATOM     19  C   UNL     1      -5.346  -2.956   3.316  0.00  0.00    +0.033 A 
ATOM     20  C   UNL     1      -4.657  -2.179   2.408  0.00  0.00    +0.137 A 
ATOM     21  C   UNL     1      -4.723  -0.785   2.494  0.00  0.00    +0.048 A 
ATOM     22  C   UNL     1      -5.485  -0.189   3.504  0.00  0.00    +0.013 A 
BRANCH  20  23
ATOM     23  N   UNL     1      -3.850  -2.820   1.346  0.00  0.00    +0.057 N 
ATOM     24  O   UNL     1      -3.703  -4.029   1.338  0.00  0.00    -0.126 OA
ATOM     25  O   UNL     1      -3.333  -2.138   0.479  0.00  0.00    -0.126 OA
ENDBRANCH  20  23
ENDBRANCH  15  21
ENDBRANCH  14  15
ENDBRANCH   1  14
BRANCH   8  26
ATOM     26  C   UNL     1      -1.637   4.806   1.066  0.00  0.00    +0.148 C 
BRANCH  26  27
ATOM     27  C   UNL     1      -1.607   5.490  -0.276  0.00  0.00    -0.030 A 
ATOM     28  C   UNL     1      -0.403   5.905  -0.813  0.00  0.00    +0.006 A 
ATOM     29  C   UNL     1      -0.374   6.529  -2.046  0.00  0.00    +0.020 A 
ATOM     30  C   UNL     1      -1.552   6.747  -2.739  0.00  0.00    +0.041 A 
ATOM     31  C   UNL     1      -2.757   6.336  -2.198  0.00  0.00    +0.020 A 
ATOM     32  C   UNL     1      -2.784   5.708  -0.967  0.00  0.00    +0.006 A 
ATOM     33 CL   UNL     1      -1.517   7.536  -4.284  0.00  0.00    -0.084 Cl
ENDBRANCH  26  27
ENDBRANCH   8  26
TORSDOF 7
