REMARK  Name = ZINC39468231
REMARK  6 active torsions:
REMARK  status: ('A' for Active; 'I' for Inactive)
REMARK    1  A    between atoms: C_1  and  S_2
REMARK    2  A    between atoms: S_2  and  P_3
REMARK    3  A    between atoms: C_11  and  C_28
REMARK    4  A    between atoms: C_12  and  C_21
REMARK    5  A    between atoms: C_21  and  C_22
REMARK    6  A    between atoms: C_33  and  O_34
REMARK                            x       y       z     vdW  Elec       q    Type
REMARK                         _______ _______ _______ _____ _____    ______ ____
ROOT
ATOM      1  P   UNL     1      -2.048  -0.545   0.019  0.00  0.00    +0.314 P 
ATOM      2  O   UNL     1      -2.697  -0.053   1.254  0.00  0.00    -0.262 OA
ATOM      3  N   UNL     1      -2.208  -2.183  -0.103  0.00  0.00    -0.283 NA
ATOM      4  N   UNL     1      -2.055  -2.753  -1.349  0.00  0.00    +0.398 N 
ATOM      5  C   UNL     1      -2.362  -4.183  -1.183  0.00  0.00    -0.046 C 
ATOM      6  C   UNL     1      -2.208  -4.931  -2.501  0.00  0.00    +0.005 C 
ATOM      7  C   UNL     1      -0.795  -4.818  -3.009  0.00  0.00    -0.016 C 
ATOM      8  C   UNL     1      -0.551  -4.996  -4.319  0.00  0.00    -0.015 C 
ATOM      9  C   UNL     1      -1.676  -5.312  -5.226  0.00  0.00    -0.039 C 
ATOM     10  C   UNL     1      -2.917  -5.003  -4.870  0.00  0.00    -0.019 C 
ATOM     11  C   UNL     1      -3.160  -4.331  -3.541  0.00  0.00    +0.016 C 
ATOM     12  C   UNL     1      -2.859  -2.837  -3.672  0.00  0.00    -0.003 C 
ATOM     13  C   UNL     1      -2.977  -2.143  -2.311  0.00  0.00    -0.020 C 
ATOM     14  C   UNL     1      -2.655  -0.659  -2.533  0.00  0.00    +0.157 C 
ATOM     15  O   UNL     1      -2.801   0.056  -1.293  0.00  0.00    -0.312 OA
ATOM     16  H   UNL     1      -2.404  -2.727   0.676  0.00  0.00    +0.112 HD
ATOM     17  H   UNL     1      -1.105  -2.631  -1.665  0.00  0.00    -0.055 HD
ENDROOT
BRANCH   8  18
ATOM     18  C   UNL     1       0.829  -4.878  -4.848  0.00  0.00    +0.024 A 
ATOM     19  C   UNL     1       1.543  -6.020  -5.203  0.00  0.00    +0.012 A 
ATOM     20  C   UNL     1       2.827  -5.904  -5.695  0.00  0.00    +0.001 A 
ATOM     21  C   UNL     1       3.409  -4.657  -5.836  0.00  0.00    +0.004 A 
ATOM     22  C   UNL     1       2.710  -3.517  -5.487  0.00  0.00    +0.046 A 
ATOM     23  C   UNL     1       1.418  -3.618  -4.997  0.00  0.00    +0.125 A 
BRANCH  23  24
ATOM     24  O   UNL     1       0.727  -2.498  -4.659  0.00  0.00    -0.506 OA
ATOM     25  H   UNL     1       0.847  -2.226  -3.739  0.00  0.00    +0.292 HD
ENDBRANCH  23  24
ENDBRANCH   8  18
BRANCH   1  27
ATOM     26  C   UNL     1      -0.022   1.810   0.012  0.00  0.00    +0.096 C 
ATOM     27  S   UNL     1       0.002  -0.004   0.002  0.00  0.00    -0.059 S 
ENDBRANCH   1  27
BRANCH   9  28
ATOM     28  C   UNL     1      -1.414  -5.983  -6.550  0.00  0.00    +0.070 C 
BRANCH  28  29
ATOM     29  C   UNL     1      -1.065  -4.941  -7.581  0.00  0.00    -0.043 A 
ATOM     30  C   UNL     1      -2.064  -4.352  -8.333  0.00  0.00    +0.004 A 
ATOM     31  C   UNL     1      -1.745  -3.396  -9.279  0.00  0.00    +0.000 A 
ATOM     32  C   UNL     1      -0.426  -3.028  -9.472  0.00  0.00    +0.000 A 
ATOM     33  C   UNL     1       0.573  -3.616  -8.719  0.00  0.00    +0.000 A 
ATOM     34  C   UNL     1       0.253  -4.569  -7.771  0.00  0.00    +0.004 A 
ENDBRANCH  28  29
ENDBRANCH   9  28
TORSDOF 5
