REMARK  Name = ZINC33813993
REMARK  8 active torsions:
REMARK  status: ('A' for Active; 'I' for Inactive)
REMARK    1  A    between atoms: C_1  and  C_2
REMARK    2  A    between atoms: C_3  and  C_11
REMARK    3  A    between atoms: C_11  and  C_12
REMARK    4  A    between atoms: C_13  and  C_26
REMARK    5  A    between atoms: C_23  and  C_25
REMARK    6  A    between atoms: C_29  and  O_32
REMARK    7  A    between atoms: O_32  and  C_33
REMARK    8  A    between atoms: C_33  and  C_34
REMARK                            x       y       z     vdW  Elec       q    Type
REMARK                         _______ _______ _______ _____ _____    ______ ____
ROOT
ATOM      1  C   UNL     1      -4.317   3.619   6.125  0.00  0.00    +0.078 C 
ATOM      2  C   UNL     1      -2.982   3.222   5.537  0.00  0.00    +0.152 C 
ATOM      3  N   UNL     1      -3.235   2.848   4.143  0.00  0.00    -0.230 N 
ATOM      4  C   UNL     1      -4.548   2.982   3.890  0.00  0.00    +0.293 C 
ATOM      5  O   UNL     1      -5.080   2.745   2.824  0.00  0.00    -0.266 OA
ATOM      6  C   UNL     1      -5.254   3.461   5.104  0.00  0.00    +0.250 C 
ATOM      7  O   UNL     1      -6.451   3.680   5.194  0.00  0.00    -0.282 OA
ATOM      8  C   UNL     1      -2.276   2.420   3.233  0.00  0.00    +0.191 A 
ATOM      9  N   UNL     1      -0.969   2.257   3.385  0.00  0.00    -0.125 NA
ATOM     10  N   UNL     1      -0.235   1.855   2.442  0.00  0.00    -0.145 NA
ATOM     11  C   UNL     1      -0.718   1.572   1.248  0.00  0.00    +0.101 A 
ATOM     12  S   UNL     1      -2.450   1.937   1.518  0.00  0.00    -0.035 S 
ATOM     13  C   UNL     1      -0.013   1.086   0.008  0.00  0.00    +0.075 C 
ENDROOT
BRANCH   2  14
ATOM     14  C   UNL     1      -2.029   4.388   5.595  0.00  0.00    -0.022 A 
ATOM     15  C   UNL     1      -2.122   5.402   4.659  0.00  0.00    +0.009 A 
ATOM     16  C   UNL     1      -1.252   6.475   4.713  0.00  0.00    +0.046 A 
ATOM     17  C   UNL     1      -0.279   6.528   5.699  0.00  0.00    +0.121 A 
ATOM     18  C   UNL     1      -0.184   5.507   6.633  0.00  0.00    +0.046 A 
ATOM     19  C   UNL     1      -1.059   4.439   6.579  0.00  0.00    +0.009 A 
BRANCH  17  20
ATOM     20  O   UNL     1       0.581   7.580   5.751  0.00  0.00    -0.488 OA
BRANCH  20  21
ATOM     21  C   UNL     1       0.424   8.595   4.757  0.00  0.00    +0.256 C 
BRANCH  21  22
ATOM     22  C   UNL     1       1.457   9.671   4.972  0.00  0.00    +0.006 C 
ATOM     23  C   UNL     1       2.127  10.149   3.953  0.00  0.00    +0.007 C 
ENDBRANCH  21  22
ENDBRANCH  20  21
ENDBRANCH  17  20
ENDBRANCH   2  14
BRANCH   1  24
ATOM     24  C   UNL     1      -4.562   4.050   7.425  0.00  0.00    +0.213 C 
ATOM     25  O   UNL     1      -3.542   4.153   8.307  0.00  0.00    -0.285 OA
BRANCH  24  28
ATOM     26  C   UNL     1      -6.156   6.555   6.458  0.00  0.00    +0.068 C 
ATOM     27  C   UNL     1      -6.616   5.485   7.415  0.00  0.00    +0.068 A 
ATOM     28  C   UNL     1      -5.873   4.380   7.823  0.00  0.00    +0.116 A 
ATOM     29  N   UNL     1      -6.677   3.674   8.701  0.00  0.00    -0.296 N 
ATOM     30  C   UNL     1      -6.478   2.528   9.405  0.00  0.00    +0.093 A 
ATOM     31  C   UNL     1      -7.449   2.038  10.212  0.00  0.00    +0.018 A 
ATOM     32  C   UNL     1      -8.672   2.710  10.328  0.00  0.00    +0.005 A 
ATOM     33  C   UNL     1      -8.878   3.861   9.624  0.00  0.00    +0.047 A 
ATOM     34  C   UNL     1      -7.859   4.353   8.793  0.00  0.00    +0.138 A 
ATOM     35  N   UNL     1      -7.794   5.431   8.009  0.00  0.00    -0.232 NA
ENDBRANCH  24  28
ENDBRANCH   1  24
TORSDOF 6
