REMARK  Name = ZINC06144611
REMARK  14 active torsions:
REMARK  status: ('A' for Active; 'I' for Inactive)
REMARK    1  A    between atoms: C_1  and  C_2
REMARK    2  A    between atoms: C_2  and  O_3
REMARK    3  A    between atoms: O_3  and  C_4
REMARK    4  A    between atoms: C_4  and  C_6
REMARK    5  A    between atoms: C_7  and  C_34
REMARK    6  A    between atoms: N_8  and  C_27
REMARK    7  A    between atoms: C_12  and  O_15
REMARK    8  A    between atoms: O_15  and  C_16
REMARK    9  A    between atoms: C_16  and  C_17
REMARK   10  A    between atoms: C_17  and  C_19
REMARK   11  A    between atoms: C_17  and  O_26
REMARK   12  A    between atoms: C_19  and  N_70
REMARK   13  A    between atoms: C_22  and  C_25
REMARK   14  A    between atoms: C_30  and  C_33
REMARK                            x       y       z     vdW  Elec       q    Type
REMARK                         _______ _______ _______ _____ _____    ______ ____
ROOT
ATOM      1  C   UNL     1       0.446  11.390  -7.791  0.00  0.00    +0.088 A 
ATOM      2  C   UNL     1       0.837  12.675  -7.544  0.00  0.00    +0.036 A 
ATOM      3  N   UNL     1       1.209  12.798  -6.246  0.00  0.00    -0.312 N 
ATOM      4  C   UNL     1       1.074  11.588  -5.589  0.00  0.00    +0.055 A 
ATOM      5  C   UNL     1       0.593  10.655  -6.521  0.00  0.00    +0.018 A 
ATOM      6  C   UNL     1       0.359   9.338  -6.135  0.00  0.00    +0.056 A 
ATOM      7  C   UNL     1       0.605   8.955  -4.830  0.00  0.00    +0.121 A 
ATOM      8  C   UNL     1       1.076   9.882  -3.905  0.00  0.00    +0.048 A 
ATOM      9  C   UNL     1       1.316  11.186  -4.280  0.00  0.00    +0.030 A 
ATOM     10  C   UNL     1       0.853  13.787  -8.560  0.00  0.00    +0.065 C 
ENDROOT
BRANCH   3  11
ATOM     11  C   UNL     1       1.665  13.983  -5.654  0.00  0.00    +0.047 A 
ATOM     12  C   UNL     1       2.968  14.067  -5.181  0.00  0.00    +0.026 A 
ATOM     13  C   UNL     1       3.417  15.238  -4.603  0.00  0.00    +0.005 A 
ATOM     14  C   UNL     1       2.567  16.323  -4.485  0.00  0.00    -0.050 A 
ATOM     15  C   UNL     1       1.267  16.240  -4.950  0.00  0.00    +0.005 A 
ATOM     16  C   UNL     1       0.814  15.074  -5.535  0.00  0.00    +0.026 A 
ATOM     17  C   UNL     1       3.058  17.597  -3.848  0.00  0.00    +0.044 C 
ENDBRANCH   3  11
BRANCH   1  18
ATOM     18  C   UNL     1      -0.027  10.848  -9.070  0.00  0.00    +0.342 C 
ATOM     19  O   UNL     1      -1.212  10.874  -9.341  0.00  0.00    -0.245 OA
BRANCH  18  20
ATOM     20  O   UNL     1       0.853  10.320  -9.945  0.00  0.00    -0.461 OA
BRANCH  20  22
ATOM     21  C   UNL     1       1.455   9.249 -12.047  0.00  0.00    +0.048 C 
ATOM     22  C   UNL     1       0.315   9.802 -11.190  0.00  0.00    +0.229 C 
ENDBRANCH  20  22
ENDBRANCH  18  20
ENDBRANCH   1  18
BRANCH   7  23
ATOM     23  O   UNL     1       0.379   7.670  -4.446  0.00  0.00    -0.489 OA
BRANCH  23  24
ATOM     24  C   UNL     1       0.653   7.342  -3.083  0.00  0.00    +0.258 C 
BRANCH  24  25
ATOM     25  C   UNL     1       0.342   5.863  -2.841  0.00  0.00    +0.135 C 
BRANCH  25  26
ATOM     26  O   UNL     1      -1.060   5.638  -3.010  0.00  0.00    -0.390 OA
ATOM     27  H   UNL     1      -1.615   6.150  -2.406  0.00  0.00    +0.210 HD
ENDBRANCH  25  26
BRANCH  25  28
ATOM     28  C   UNL     1       0.752   5.481  -1.418  0.00  0.00    -0.044 C 
BRANCH  28  35
ATOM     29  C   UNL     1       1.540   3.238  -1.873  0.00  0.00    -0.078 C 
ATOM     30  C   UNL     1       1.179   1.756  -1.756  0.00  0.00    -0.016 C 
ATOM     31  C   UNL     1       1.082   1.374  -0.276  0.00  0.00    -0.018 C 
ATOM     32  C   UNL     1       0.039   2.265   0.405  0.00  0.00    -0.016 C 
ATOM     33  C   UNL     1       0.433   3.732   0.225  0.00  0.00    -0.078 C 
ATOM     34  C   UNL     1       0.662  -0.092  -0.153  0.00  0.00    +0.007 C 
ATOM     35  N   UNL     1       0.485   4.042  -1.220  0.00  0.00    +0.381 N 
ATOM     36  H   UNL     1      -0.421   3.809  -1.643  0.00  0.00    -0.082 HD
ENDBRANCH  28  35
ENDBRANCH  25  28
ENDBRANCH  24  25
ENDBRANCH  23  24
ENDBRANCH   7  23
TORSDOF 10
