REMARK  Name = ZINC01105502
REMARK  7 active torsions:
REMARK  status: ('A' for Active; 'I' for Inactive)
REMARK    1  A    between atoms: C_1  and  C_2
REMARK    2  A    between atoms: C_3  and  C_19
REMARK    3  A    between atoms: C_4  and  C_10
REMARK    4  A    between atoms: C_13  and  O_18
REMARK    5  A    between atoms: C_14  and  O_16
REMARK    6  A    between atoms: O_16  and  C_17
REMARK    7  A    between atoms: N_21  and  C_22
REMARK                            x       y       z     vdW  Elec       q    Type
REMARK                         _______ _______ _______ _____ _____    ______ ____
ROOT
ATOM      1  C   UNL     1      -1.443  -0.678  -1.569  0.00  0.00    +0.061 C 
ATOM      2  C   UNL     1      -0.343  -0.223  -0.645  0.00  0.00    +0.017 C 
ATOM      3  C   UNL     1      -0.398   1.012  -0.105  0.00  0.00    +0.056 C 
ATOM      4  C   UNL     1       0.729   1.430   0.818  0.00  0.00    +0.139 C 
ATOM      5  N   UNL     1       1.799   0.446   1.051  0.00  0.00    -0.315 N 
ATOM      6  C   UNL     1       1.714  -0.752   0.438  0.00  0.00    +0.135 C 
ATOM      7  S   UNL     1       2.952  -1.905   0.700  0.00  0.00    -0.019 S 
ATOM      8  N   UNL     1       0.694  -1.068  -0.369  0.00  0.00    -0.300 N 
ATOM      9  H   UNL     1       2.548   0.654   1.632  0.00  0.00    +0.149 HD
ATOM     10  H   UNL     1       0.691  -1.946  -0.780  0.00  0.00    +0.154 HD
ENDROOT
BRANCH   4  11
ATOM     11  C   UNL     1       1.359   2.675   0.249  0.00  0.00    -0.019 A 
ATOM     12  C   UNL     1       2.224   2.581  -0.825  0.00  0.00    +0.009 A 
ATOM     13  C   UNL     1       2.800   3.721  -1.354  0.00  0.00    +0.049 A 
ATOM     14  C   UNL     1       2.520   4.960  -0.801  0.00  0.00    +0.158 A 
ATOM     15  C   UNL     1       1.653   5.054   0.284  0.00  0.00    +0.162 A 
ATOM     16  C   UNL     1       1.075   3.908   0.806  0.00  0.00    +0.055 A 
BRANCH  15  17
ATOM     17  O   UNL     1       1.375   6.267   0.831  0.00  0.00    -0.491 OA
ATOM     18  C   UNL     1       0.596   6.276   2.029  0.00  0.00    +0.277 C 
ENDBRANCH  15  17
BRANCH  14  19
ATOM     19  O   UNL     1       3.090   6.082  -1.316  0.00  0.00    -0.503 OA
ATOM     20  H   UNL     1       3.938   6.313  -0.912  0.00  0.00    +0.292 HD
ENDBRANCH  14  19
ENDBRANCH   4  11
BRANCH   3  21
ATOM     21  C   UNL     1      -1.470   1.892  -0.396  0.00  0.00    +0.248 C 
ATOM     22  O   UNL     1      -2.345   2.078   0.429  0.00  0.00    -0.270 OA
ATOM     23  N   UNL     1      -1.520   2.522  -1.586  0.00  0.00    -0.282 N 
ATOM     24  H   UNL     1      -0.882   2.297  -2.281  0.00  0.00    +0.155 HD
BRANCH  23  25
ATOM     25  C   UNL     1      -2.493   3.500  -1.819  0.00  0.00    +0.034 A 
ATOM     26  C   UNL     1      -2.930   4.308  -0.777  0.00  0.00    +0.024 A 
ATOM     27  C   UNL     1      -3.887   5.276  -1.011  0.00  0.00    +0.017 A 
ATOM     28  C   UNL     1      -4.418   5.434  -2.279  0.00  0.00    +0.018 A 
ATOM     29  C   UNL     1      -3.989   4.626  -3.317  0.00  0.00    +0.017 A 
ATOM     30  C   UNL     1      -3.028   3.660  -3.091  0.00  0.00    +0.024 A 
ATOM     31 BR   UNL     1      -5.734   6.755  -2.594  0.00  0.00    -0.050 Br
ENDBRANCH  23  25
ENDBRANCH   3  21
TORSDOF 5
