REMARK  Name = ZINC65462738
REMARK  5 active torsions:
REMARK  status: ('A' for Active; 'I' for Inactive)
REMARK    1  A    between atoms: C_1  and  C_2
REMARK    2  A    between atoms: C_8  and  C_12
REMARK    3  A    between atoms: N_17  and  C_18
REMARK    4  A    between atoms: C_18  and  C_19
REMARK    5  A    between atoms: C_20  and  C_25
REMARK                            x       y       z     vdW  Elec       q    Type
REMARK                         _______ _______ _______ _____ _____    ______ ____
ROOT
ATOM      1  C   UNL     1       1.058  -1.496   4.325  0.00  0.00    -0.025 C 
ATOM      2  C   UNL     1       2.158  -1.568   3.245  0.00  0.00    -0.013 C 
ATOM      3  C   UNL     1       3.125  -2.645   3.802  0.00  0.00    -0.020 C 
ATOM      4  C   UNL     1       2.140  -3.630   4.479  0.00  0.00    -0.078 C 
ATOM      5  N   UNL     1       1.089  -2.768   5.070  0.00  0.00    +0.388 N 
ATOM      6  H   UNL     1       0.193  -3.226   4.997  0.00  0.00    -0.081 HD
ENDROOT
BRANCH   1  14
ATOM      7  C   UNL     1      -0.561   1.903   0.461  0.00  0.00    +0.046 C 
ATOM      8  C   UNL     1      -0.697   0.403   0.414  0.00  0.00    -0.025 A 
ATOM      9  C   UNL     1      -0.943  -0.220  -0.756  0.00  0.00    +0.005 A 
ATOM     10  C   UNL     1      -1.079  -1.616  -0.858  0.00  0.00    +0.002 A 
ATOM     11  C   UNL     1      -0.974  -2.436   0.206  0.00  0.00    +0.027 A 
ATOM     12  C   UNL     1      -0.707  -1.869   1.535  0.00  0.00    +0.060 A 
ATOM     13  N   UNL     1      -0.560  -2.404   2.713  0.00  0.00    -0.365 N 
ATOM     14  C   UNL     1      -0.310  -1.313   3.664  0.00  0.00    +0.160 C 
ATOM     15  N   UNL     1      -0.332  -0.070   2.884  0.00  0.00    -0.364 N 
ATOM     16  C   UNL     1      -0.557  -0.392   1.642  0.00  0.00    +0.063 A 
ATOM     17  H   UNL     1      -0.199   0.827   3.229  0.00  0.00    +0.162 HD
ATOM     18  H   UNL     1      -0.607  -3.349   2.923  0.00  0.00    +0.162 HD
ENDBRANCH   1  14
BRANCH   5  19
ATOM     19  C   UNL     1       1.396  -2.507   6.482  0.00  0.00    -0.021 C 
BRANCH  19  20
ATOM     20  C   UNL     1       1.306  -3.793   7.263  0.00  0.00    +0.039 A 
ATOM     21  C   UNL     1       0.063  -4.242   7.716  0.00  0.00    +0.083 A 
ATOM     22  C   UNL     1       0.001  -5.441   8.440  0.00  0.00    +0.018 A 
ATOM     23  C   UNL     1       1.179  -6.128   8.673  0.00  0.00    +0.020 A 
ATOM     24  C   UNL     1       2.369  -5.615   8.190  0.00  0.00    +0.111 A 
ATOM     25  N   UNL     1       2.398  -4.486   7.506  0.00  0.00    -0.261 NA
BRANCH  21  26
ATOM     26  C   UNL     1      -1.162  -3.469   7.439  0.00  0.00    +0.388 C 
ATOM     27  O   UNL     1      -2.225  -3.807   7.939  0.00  0.00    -0.241 OA
ATOM     28  O   UNL     1      -1.114  -2.489   6.709  0.00  0.00    -0.241 OA
ENDBRANCH  21  26
ENDBRANCH  19  20
ENDBRANCH   5  19
TORSDOF 4
