REMARK  Name = ZINC40014579
REMARK  13 active torsions:
REMARK  status: ('A' for Active; 'I' for Inactive)
REMARK    1  A    between atoms: C_1  and  C_2
REMARK    2  A    between atoms: C_2  and  C_3
REMARK    3  A    between atoms: C_3  and  C_4
REMARK    4  A    between atoms: C_4  and  N_5
REMARK    5  A    between atoms: N_5  and  C_6
REMARK    6  A    between atoms: N_5  and  C_10
REMARK    7  A    between atoms: C_6  and  C_7
REMARK    8  A    between atoms: C_7  and  C_8
REMARK    9  A    between atoms: C_8  and  C_9
REMARK   10  A    between atoms: C_10  and  C_11
REMARK   11  A    between atoms: C_11  and  C_12
REMARK   12  A    between atoms: C_12  and  N_13
REMARK   13  A    between atoms: C_14  and  C_30
REMARK                            x       y       z     vdW  Elec       q    Type
REMARK                         _______ _______ _______ _____ _____    ______ ____
ROOT
ATOM      1  N   UNL     1      -2.042  -5.995  -3.176  0.00  0.00    -0.284 N 
ATOM      2  C   UNL     1      -2.938  -6.324  -2.055  0.00  0.00    +0.144 C 
ATOM      3  C   UNL     1      -4.290  -6.518  -2.658  0.00  0.00    +0.072 A 
ATOM      4  C   UNL     1      -5.578  -6.869  -2.050  0.00  0.00    +0.199 A 
ATOM      5  O   UNL     1      -5.763  -6.894  -0.846  0.00  0.00    -0.287 OA
ATOM      6  C   UNL     1      -6.636  -7.191  -3.041  0.00  0.00    +0.066 A 
ATOM      7  C   UNL     1      -7.851  -7.733  -2.625  0.00  0.00    +0.035 A 
ATOM      8  C   UNL     1      -8.819  -8.031  -3.560  0.00  0.00    +0.042 A 
ATOM      9  C   UNL     1      -8.582  -7.792  -4.907  0.00  0.00    +0.023 A 
ATOM     10  C   UNL     1      -7.387  -7.255  -5.329  0.00  0.00    +0.048 A 
ATOM     11  C   UNL     1      -6.392  -6.942  -4.402  0.00  0.00    +0.140 A 
ATOM     12  O   UNL     1      -5.231  -6.407  -4.842  0.00  0.00    -0.450 OA
ATOM     13  C   UNL     1      -4.180  -6.313  -4.004  0.00  0.00    +0.199 A 
ATOM     14  C   UNL     1      -2.776  -5.986  -4.308  0.00  0.00    +0.283 C 
ATOM     15  O   UNL     1      -2.341  -5.747  -5.417  0.00  0.00    -0.267 OA
ATOM     16 CL   UNL     1     -10.336  -8.706  -3.053  0.00  0.00    -0.084 Cl
ENDROOT
BRANCH   2  17
ATOM     17  C   UNL     1      -2.968  -5.190  -1.063  0.00  0.00    -0.022 A 
ATOM     18  C   UNL     1      -2.989  -3.881  -1.509  0.00  0.00    +0.007 A 
ATOM     19  C   UNL     1      -3.017  -2.841  -0.600  0.00  0.00    +0.020 A 
ATOM     20  C   UNL     1      -3.022  -3.109   0.758  0.00  0.00    +0.041 A 
ATOM     21  C   UNL     1      -3.000  -4.418   1.204  0.00  0.00    +0.020 A 
ATOM     22  C   UNL     1      -2.979  -5.458   0.293  0.00  0.00    +0.007 A 
ATOM     23 CL   UNL     1      -3.055  -1.803   1.901  0.00  0.00    -0.084 Cl
ENDBRANCH   2  17
BRANCH   1  24
ATOM     24  C   UNL     1      -0.607  -5.718  -3.078  0.00  0.00    +0.107 C 
BRANCH  24  25
ATOM     25  C   UNL     1      -0.390  -4.221  -2.851  0.00  0.00    +0.000 C 
BRANCH  25  26
ATOM     26  C   UNL     1       1.109  -3.932  -2.749  0.00  0.00    -0.077 C 
BRANCH  26  27
ATOM     27  N   UNL     1       1.317  -2.494  -2.531  0.00  0.00    +0.380 N 
ATOM     28  H   UNL     1       0.856  -1.973  -3.261  0.00  0.00    -0.082 HD
BRANCH  27  29
ATOM     29  C   UNL     1       0.758  -2.111  -1.228  0.00  0.00    -0.079 C 
BRANCH  29  30
ATOM     30  C   UNL     1       0.847  -0.592  -1.062  0.00  0.00    -0.019 C 
BRANCH  30  32
ATOM     31  C   UNL     1       0.235   1.339   0.400  0.00  0.00    +0.004 C 
ATOM     32  C   UNL     1       0.146  -0.179   0.234  0.00  0.00    -0.005 C 
ENDBRANCH  30  32
ENDBRANCH  29  30
ENDBRANCH  27  29
BRANCH  27  33
ATOM     33  C   UNL     1       2.756  -2.199  -2.552  0.00  0.00    -0.079 C 
BRANCH  33  34
ATOM     34  C   UNL     1       3.310  -2.463  -3.954  0.00  0.00    -0.019 C 
BRANCH  34  35
ATOM     35  C   UNL     1       4.776  -2.030  -4.013  0.00  0.00    -0.005 C 
ATOM     36  C   UNL     1       5.330  -2.294  -5.414  0.00  0.00    +0.004 C 
ENDBRANCH  34  35
ENDBRANCH  33  34
ENDBRANCH  27  33
ENDBRANCH  26  27
ENDBRANCH  25  26
ENDBRANCH  24  25
ENDBRANCH   1  24
TORSDOF 11
