REMARK  Name = ZINC01441218
REMARK  8 active torsions:
REMARK  status: ('A' for Active; 'I' for Inactive)
REMARK    1  A    between atoms: C_1  and  C_2
REMARK    2  A    between atoms: C_2  and  C_31
REMARK    3  A    between atoms: C_6  and  C_21
REMARK    4  A    between atoms: C_11  and  O_15
REMARK    5  A    between atoms: O_15  and  C_16
REMARK    6  A    between atoms: C_16  and  C_17
REMARK    7  A    between atoms: C_17  and  O_19
REMARK    8  A    between atoms: O_19  and  C_20
REMARK                            x       y       z     vdW  Elec       q    Type
REMARK                         _______ _______ _______ _____ _____    ______ ____
ROOT
ATOM      1  C   UNL     1      -3.399   2.252   9.451  0.00  0.00    +0.031 C 
ATOM      2  C   UNL     1      -2.564   1.789   8.256  0.00  0.00    +0.036 C 
ATOM      3  C   UNL     1      -1.085   2.097   8.514  0.00  0.00    +0.094 C 
ATOM      4  C   UNL     1      -0.258   1.519   7.364  0.00  0.00    +0.182 C 
ATOM      5  C   UNL     1       1.233   1.713   7.660  0.00  0.00    +0.081 C 
ATOM      6  C   UNL     1       2.038   1.036   6.548  0.00  0.00    +0.058 C 
ATOM      7  C   UNL     1       1.493   1.447   5.204  0.00  0.00    +0.002 A 
ATOM      8  C   UNL     1       2.285   1.267   4.082  0.00  0.00    +0.011 A 
ATOM      9  C   UNL     1       1.817   1.621   2.833  0.00  0.00    +0.046 A 
ATOM     10  C   UNL     1       0.550   2.172   2.699  0.00  0.00    +0.125 A 
ATOM     11  C   UNL     1      -0.243   2.356   3.818  0.00  0.00    +0.091 A 
ATOM     12  C   UNL     1       0.229   1.995   5.076  0.00  0.00    +0.131 A 
ATOM     13  O   UNL     1      -0.575   2.201   6.152  0.00  0.00    -0.468 OA
ATOM     14  N   UNL     1      -0.549   0.093   7.225  0.00  0.00    -0.262 N 
ATOM     15  C   UNL     1      -1.743  -0.412   7.572  0.00  0.00    +0.303 C 
ATOM     16  O   UNL     1      -1.937  -1.604   7.428  0.00  0.00    -0.253 OA
ATOM     17  N   UNL     1      -2.729   0.346   8.073  0.00  0.00    -0.294 N 
ATOM     18  C   UNL     1      -3.026   2.521   6.995  0.00  0.00    +0.031 C 
ATOM     19  H   UNL     1       0.134  -0.500   6.873  0.00  0.00    +0.154 HD
ATOM     20  H   UNL     1      -3.570  -0.071   8.319  0.00  0.00    +0.151 HD
ENDROOT
BRANCH   6  21
ATOM     21  C   UNL     1       3.483   1.451   6.652  0.00  0.00    -0.040 A 
ATOM     22  C   UNL     1       3.829   2.785   6.540  0.00  0.00    +0.004 A 
ATOM     23  C   UNL     1       5.154   3.166   6.640  0.00  0.00    +0.000 A 
ATOM     24  C   UNL     1       6.134   2.213   6.842  0.00  0.00    +0.000 A 
ATOM     25  C   UNL     1       5.789   0.879   6.949  0.00  0.00    +0.000 A 
ATOM     26  C   UNL     1       4.464   0.498   6.854  0.00  0.00    +0.004 A 
ENDBRANCH   6  21
BRANCH  10  27
ATOM     27  O   UNL     1       0.088   2.526   1.471  0.00  0.00    -0.481 OA
BRANCH  27  28
ATOM     28  C   UNL     1       0.961   2.308   0.361  0.00  0.00    +0.349 C 
BRANCH  28  29
ATOM     29  C   UNL     1       0.283   2.757  -0.908  0.00  0.00    +0.345 C 
ATOM     30  O   UNL     1      -0.833   3.216  -0.866  0.00  0.00    -0.247 OA
BRANCH  29  31
ATOM     31  O   UNL     1       0.920   2.646  -2.085  0.00  0.00    -0.466 OA
ATOM     32  C   UNL     1       0.206   3.098  -3.265  0.00  0.00    +0.280 C 
ENDBRANCH  29  31
ENDBRANCH  28  29
ENDBRANCH  27  28
ENDBRANCH  10  27
TORSDOF 5
