REMARK  Name = ZINC08088005
REMARK  9 active torsions:
REMARK  status: ('A' for Active; 'I' for Inactive)
REMARK    1  A    between atoms: C_1  and  C_2
REMARK    2  A    between atoms: C_6  and  C_12
REMARK    3  A    between atoms: C_10  and  C_11
REMARK    4  A    between atoms: C_12  and  C_13
REMARK    5  A    between atoms: N_15  and  N_16
REMARK    6  A    between atoms: C_17  and  C_19
REMARK    7  A    between atoms: C_22  and  C_24
REMARK    8  A    between atoms: C_24  and  O_25
REMARK    9  A    between atoms: O_25  and  C_26
REMARK                            x       y       z     vdW  Elec       q    Type
REMARK                         _______ _______ _______ _____ _____    ______ ____
ROOT
ATOM      1  N   UNL     1      -0.897   1.698   3.618  0.00  0.00    -0.228 N 
ATOM      2  C   UNL     1      -0.421   1.372   4.836  0.00  0.00    +0.295 C 
ATOM      3  O   UNL     1       0.579   0.685   4.935  0.00  0.00    -0.265 OA
ATOM      4  H   UNL     1      -1.694   2.245   3.540  0.00  0.00    +0.173 HD
ENDROOT
BRANCH   2   5
ATOM      5  C   UNL     1      -1.107   1.845   6.043  0.00  0.00    +0.191 A 
ATOM      6  C   UNL     1      -0.733   1.589   7.331  0.00  0.00    +0.055 A 
ATOM      7  C   UNL     1      -1.667   2.233   8.158  0.00  0.00    +0.049 A 
ATOM      8  C   UNL     1      -2.559   2.845   7.348  0.00  0.00    +0.143 A 
ATOM      9  O   UNL     1      -2.216   2.613   6.075  0.00  0.00    -0.452 OA
BRANCH   8  10
ATOM     10  C   UNL     1      -3.743   3.660   7.803  0.00  0.00    +0.303 C 
BRANCH  10  11
ATOM     11  O   UNL     1      -3.353   5.028   7.946  0.00  0.00    -0.484 OA
BRANCH  11  12
ATOM     12  C   UNL     1      -4.310   5.902   8.352  0.00  0.00    +0.121 A 
ATOM     13  C   UNL     1      -5.599   5.455   8.604  0.00  0.00    +0.045 A 
ATOM     14  C   UNL     1      -6.569   6.345   9.023  0.00  0.00    +0.004 A 
ATOM     15  C   UNL     1      -6.258   7.684   9.180  0.00  0.00    +0.000 A 
ATOM     16  C   UNL     1      -4.976   8.133   8.925  0.00  0.00    +0.004 A 
ATOM     17  C   UNL     1      -4.002   7.246   8.511  0.00  0.00    +0.045 A 
ENDBRANCH  11  12
ENDBRANCH  10  11
ENDBRANCH   8  10
ENDBRANCH   2   5
BRANCH   1  20
ATOM     18  C   UNL     1      -0.718   1.572   1.248  0.00  0.00    +0.234 C 
ATOM     19  O   UNL     1      -1.714   2.256   1.150  0.00  0.00    -0.274 OA
ATOM     20  N   UNL     1      -0.242   1.246   2.466  0.00  0.00    -0.234 N 
ATOM     21  H   UNL     1       0.555   0.699   2.544  0.00  0.00    +0.173 HD
BRANCH  18  22
ATOM     22  C   UNL     1      -0.013   1.086   0.008  0.00  0.00    +0.136 C 
BRANCH  22  28
ATOM     23  C   UNL     1      -0.826   6.296  -4.424  0.00  0.00    +0.044 C 
ATOM     24  C   UNL     1      -0.742   5.089  -3.526  0.00  0.00    -0.044 A 
ATOM     25  C   UNL     1       0.137   5.091  -2.453  0.00  0.00    +0.004 A 
ATOM     26  C   UNL     1       0.225   4.004  -1.628  0.00  0.00    +0.012 A 
ATOM     27  C   UNL     1      -0.578   2.890  -1.865  0.00  0.00    +0.024 A 
ATOM     28  C   UNL     1      -0.742   1.585  -1.213  0.00  0.00    +0.007 A 
ATOM     29  C   UNL     1      -1.673   0.929  -1.918  0.00  0.00    +0.200 A 
ATOM     30  O   UNL     1      -2.100   1.689  -2.942  0.00  0.00    -0.462 OA
ATOM     31  C   UNL     1      -1.467   2.879  -2.953  0.00  0.00    +0.138 A 
ATOM     32  C   UNL     1      -1.541   3.994  -3.779  0.00  0.00    -0.005 A 
ATOM     33  C   UNL     1      -2.491   4.006  -4.949  0.00  0.00    +0.048 C 
ENDBRANCH  22  28
ENDBRANCH  18  22
ENDBRANCH   1  20
TORSDOF 7
