REMARK  Name = ZINC35754423
REMARK  7 active torsions:
REMARK  status: ('A' for Active; 'I' for Inactive)
REMARK    1  A    between atoms: C_4  and  C_7
REMARK    2  A    between atoms: C_7  and  N_8
REMARK    3  A    between atoms: C_9  and  C_30
REMARK    4  A    between atoms: C_11  and  C_16
REMARK    5  A    between atoms: C_20  and  N_22
REMARK    6  A    between atoms: C_23  and  C_25
REMARK    7  A    between atoms: N_32  and  C_33
REMARK                            x       y       z     vdW  Elec       q    Type
REMARK                         _______ _______ _______ _____ _____    ______ ____
ROOT
ATOM      1  N   UNL     1       5.459  -1.388   1.052  0.00  0.00    -0.248 N 
ATOM      2  C   UNL     1       5.672  -0.280   2.004  0.00  0.00    +0.211 C 
ATOM      3  C   UNL     1       5.756  -1.023   3.358  0.00  0.00    +0.238 C 
ATOM      4  O   UNL     1       5.027  -2.235   3.081  0.00  0.00    -0.440 OA
ATOM      5  C   UNL     1       5.104  -2.475   1.761  0.00  0.00    +0.405 C 
ATOM      6  O   UNL     1       4.879  -3.560   1.262  0.00  0.00    -0.226 OA
ENDROOT
BRANCH   3   7
ATOM      7  C   UNL     1       5.088  -0.229   4.450  0.00  0.00    -0.003 A 
ATOM      8  C   UNL     1       3.724  -0.342   4.650  0.00  0.00    +0.007 A 
ATOM      9  C   UNL     1       3.106   0.385   5.651  0.00  0.00    +0.002 A 
ATOM     10  C   UNL     1       3.850   1.225   6.456  0.00  0.00    +0.023 A 
ATOM     11  C   UNL     1       5.220   1.340   6.258  0.00  0.00    +0.034 A 
ATOM     12  C   UNL     1       5.838   0.605   5.255  0.00  0.00    +0.030 A 
BRANCH  11  13
ATOM     13  N   UNL     1       5.976   2.191   7.071  0.00  0.00    -0.281 N 
ATOM     14  C   UNL     1       5.632   2.371   8.362  0.00  0.00    +0.255 C 
ATOM     15  O   UNL     1       4.721   1.725   8.845  0.00  0.00    -0.269 OA
ATOM     16  H   UNL     1       6.748   2.650   6.706  0.00  0.00    +0.155 HD
BRANCH  14  17
ATOM     17  C   UNL     1       6.354   3.347   9.183  0.00  0.00    +0.074 A 
ATOM     18  C   UNL     1       6.165   3.678  10.516  0.00  0.00    +0.021 A 
ATOM     19  C   UNL     1       7.007   4.642  11.017  0.00  0.00    +0.008 A 
ATOM     20  C   UNL     1       7.940   5.191  10.201  0.00  0.00    +0.046 A 
ATOM     21  S   UNL     1       7.710   4.412   8.730  0.00  0.00    -0.092 S 
ENDBRANCH  14  17
ENDBRANCH  11  13
ENDBRANCH   3   7
BRANCH   2  22
ATOM     22  C   UNL     1       4.508   0.677   1.984  0.00  0.00    +0.242 C 
ATOM     23  O   UNL     1       3.442   0.326   1.523  0.00  0.00    -0.273 OA
ATOM     24  N   UNL     1       4.651   1.923   2.477  0.00  0.00    -0.284 N 
ATOM     25  H   UNL     1       5.521   2.229   2.778  0.00  0.00    +0.155 HD
BRANCH  24  26
ATOM     26  C   UNL     1       3.544   2.776   2.556  0.00  0.00    +0.033 A 
ATOM     27  C   UNL     1       3.707   4.144   2.389  0.00  0.00    +0.023 A 
ATOM     28  C   UNL     1       2.612   4.983   2.467  0.00  0.00    +0.002 A 
ATOM     29  C   UNL     1       1.355   4.461   2.711  0.00  0.00    +0.000 A 
ATOM     30  C   UNL     1       1.190   3.099   2.878  0.00  0.00    +0.002 A 
ATOM     31  C   UNL     1       2.280   2.254   2.795  0.00  0.00    +0.023 A 
ENDBRANCH  24  26
ENDBRANCH   2  22
BRANCH   1  32
ATOM     32  C   UNL     1       5.602  -1.315  -0.404  0.00  0.00    +0.147 C 
BRANCH  32  36
ATOM     33  C   UNL     1       1.868  -0.194  -2.150  0.00  0.00    +0.000 A 
ATOM     34  C   UNL     1       2.777   0.779  -1.779  0.00  0.00    +0.000 A 
ATOM     35  C   UNL     1       3.986   0.416  -1.214  0.00  0.00    +0.005 A 
ATOM     36  C   UNL     1       4.285  -0.920  -1.020  0.00  0.00    -0.030 A 
ATOM     37  C   UNL     1       3.375  -1.893  -1.390  0.00  0.00    +0.005 A 
ATOM     38  C   UNL     1       2.167  -1.530  -1.956  0.00  0.00    +0.000 A 
ENDBRANCH  32  36
ENDBRANCH   1  32
TORSDOF 7
