REMARK  Name = ZINC59851097
REMARK  7 active torsions:
REMARK  status: ('A' for Active; 'I' for Inactive)
REMARK    1  A    between atoms: C_1  and  C_2
REMARK    2  A    between atoms: C_5  and  C_9
REMARK    3  A    between atoms: C_11  and  C_14
REMARK    4  A    between atoms: C_14  and  C_15
REMARK    5  A    between atoms: C_15  and  C_16
REMARK    6  A    between atoms: N_18  and  C_19
REMARK    7  A    between atoms: C_19  and  C_20
REMARK                            x       y       z     vdW  Elec       q    Type
REMARK                         _______ _______ _______ _____ _____    ______ ____
ROOT
ATOM      1  C   UNL     1      -1.314  -9.091   2.883  0.00  0.00    +0.213 C 
ATOM      2  O   UNL     1      -0.257  -9.553   3.257  0.00  0.00    -0.276 OA
ATOM      3  N   UNL     1      -2.474  -9.636   3.300  0.00  0.00    -0.315 N 
ATOM      4  H   UNL     1      -3.319  -9.267   3.001  0.00  0.00    +0.149 HD
ENDROOT
BRANCH   1   5
ATOM      5  C   UNL     1      -1.331  -7.906   1.951  0.00  0.00    +0.105 C 
BRANCH   5   6
ATOM      6  C   UNL     1       0.105  -7.486   1.635  0.00  0.00    +0.108 C 
BRANCH   6   9
ATOM      7  C   UNL     1       0.061  -4.258  -0.024  0.00  0.00    +0.202 A 
ATOM      8  N   UNL     1       0.071  -5.050   1.063  0.00  0.00    -0.191 NA
ATOM      9  C   UNL     1       0.088  -6.301   0.703  0.00  0.00    +0.228 A 
ATOM     10  O   UNL     1       0.089  -6.358  -0.635  0.00  0.00    -0.338 OA
ATOM     11  N   UNL     1       0.065  -5.015  -1.093  0.00  0.00    -0.056 NA
BRANCH   7  16
ATOM     12  C   UNL     1      -0.018   1.503   0.010  0.00  0.00    +0.047 C 
ATOM     13  C   UNL     1       0.002  -0.004   0.002  0.00  0.00    -0.015 A 
ATOM     14  C   UNL     1       0.006  -0.687  -1.201  0.00  0.00    +0.007 A 
ATOM     15  C   UNL     1       0.025  -2.067  -1.215  0.00  0.00    +0.012 A 
ATOM     16  C   UNL     1       0.041  -2.774  -0.014  0.00  0.00    +0.025 A 
ATOM     17  C   UNL     1       0.037  -2.083   1.196  0.00  0.00    +0.050 A 
ATOM     18  C   UNL     1       0.023  -0.701   1.199  0.00  0.00    +0.127 A 
ATOM     19  F   UNL     1       0.025  -0.029   2.371  0.00  0.00    -0.205 F 
ENDBRANCH   7  16
ENDBRANCH   6   9
ENDBRANCH   5   6
ENDBRANCH   1   5
BRANCH   3  20
ATOM     20  C   UNL     1      -2.457 -10.788   4.206  0.00  0.00    +0.108 C 
BRANCH  20  21
ATOM     21  C   UNL     1      -3.894 -11.208   4.522  0.00  0.00    +0.019 C 
ATOM     22  C   UNL     1      -4.590 -10.079   5.279  0.00  0.00    +0.018 C 
ATOM     23  C   UNL     1      -5.078 -10.550   6.666  0.00  0.00    +0.050 C 
ATOM     24  C   UNL     1      -5.956 -11.761   6.395  0.00  0.00    -0.036 A 
ATOM     25  C   UNL     1      -7.263 -11.877   6.774  0.00  0.00    +0.004 A 
ATOM     26  C   UNL     1      -7.950 -13.042   6.460  0.00  0.00    +0.000 A 
ATOM     27  C   UNL     1      -7.319 -14.065   5.776  0.00  0.00    +0.000 A 
ATOM     28  C   UNL     1      -5.990 -13.940   5.394  0.00  0.00    +0.004 A 
ATOM     29  C   UNL     1      -5.321 -12.791   5.706  0.00  0.00    -0.036 A 
ATOM     30  C   UNL     1      -3.868 -12.508   5.355  0.00  0.00    +0.054 C 
ATOM     31  C   UNL     1      -3.208 -12.131   6.672  0.00  0.00    -0.036 A 
ATOM     32  C   UNL     1      -3.843 -11.103   7.361  0.00  0.00    -0.036 A 
ATOM     33  C   UNL     1      -3.359 -10.663   8.559  0.00  0.00    +0.004 A 
ATOM     34  C   UNL     1      -2.218 -11.260   9.080  0.00  0.00    +0.000 A 
ATOM     35  C   UNL     1      -1.587 -12.281   8.395  0.00  0.00    +0.000 A 
ATOM     36  C   UNL     1      -2.086 -12.721   7.178  0.00  0.00    +0.004 A 
ENDBRANCH  20  21
ENDBRANCH   3  20
TORSDOF 6
