REMARK  Name = ZINC26677015
REMARK  12 active torsions:
REMARK  status: ('A' for Active; 'I' for Inactive)
REMARK    1  A    between atoms: C_1  and  C_2
REMARK    2  A    between atoms: C_2  and  N_3
REMARK    3  A    between atoms: N_3  and  C_4
REMARK    4  A    between atoms: N_3  and  C_6
REMARK    5  A    between atoms: C_4  and  C_5
REMARK    6  A    between atoms: C_6  and  C_8
REMARK    7  A    between atoms: C_6  and  C_31
REMARK    8  A    between atoms: C_8  and  N_9
REMARK    9  A    between atoms: C_10  and  C_12
REMARK   10  A    between atoms: C_12  and  S_13
REMARK   11  A    between atoms: S_13  and  C_14
REMARK   12  A    between atoms: N_18  and  C_19
REMARK                            x       y       z     vdW  Elec       q    Type
REMARK                         _______ _______ _______ _____ _____    ______ ____
ROOT
ATOM      1  C   UNL     1       6.926   3.862   1.319  0.00  0.00    +0.173 C 
ENDROOT
BRANCH   1   3
ATOM      2  N   UNL     1       9.249   4.689   1.129  0.00  0.00    -0.316 N 
ATOM      3  C   UNL     1       7.931   4.970   1.136  0.00  0.00    +0.223 C 
ATOM      4  O   UNL     1       7.554   6.114   0.995  0.00  0.00    -0.275 OA
ATOM      5  H   UNL     1       9.592   3.652   1.256  0.00  0.00    +0.149 HD
BRANCH   2   6
ATOM      6  C   UNL     1      10.226   5.767   0.951  0.00  0.00    +0.096 C 
BRANCH   6   7
ATOM      7  C   UNL     1      11.640   5.183   0.981  0.00  0.00    +0.016 C 
BRANCH   7   8
ATOM      8  C   UNL     1      12.647   6.302   0.922  0.00  0.00    +0.093 A 
ATOM      9  C   UNL     1      13.318   6.700  -0.174  0.00  0.00    +0.043 A 
ATOM     10  C   UNL     1      14.148   7.774   0.221  0.00  0.00    +0.041 A 
ATOM     11  C   UNL     1      13.942   7.962   1.536  0.00  0.00    +0.195 A 
ATOM     12  O   UNL     1      13.032   7.068   1.956  0.00  0.00    -0.469 OA
ENDBRANCH   7   8
BRANCH   7  13
ATOM     13  N   UNL     1      11.829   4.420   2.222  0.00  0.00    +0.387 N 
ATOM     14  H   UNL     1      11.048   3.646   2.265  0.00  0.00    -0.081 HD
BRANCH  13  16
ATOM     15  C   UNL     1      13.157   2.662   1.154  0.00  0.00    -0.017 C 
ATOM     16  C   UNL     1      13.134   3.746   2.233  0.00  0.00    -0.081 C 
ENDBRANCH  13  16
BRANCH  13  17
ATOM     17  C   UNL     1      11.673   5.284   3.400  0.00  0.00    -0.081 C 
ATOM     18  C   UNL     1      11.476   4.418   4.646  0.00  0.00    -0.017 C 
ENDBRANCH  13  17
ENDBRANCH   7  13
ENDBRANCH   6   7
ENDBRANCH   2   6
ENDBRANCH   1   3
BRANCH   1  19
ATOM     19  S   UNL     1       5.250   4.554   1.283  0.00  0.00    -0.076 S 
BRANCH  19  20
ATOM     20  C   UNL     1       4.205   3.152   1.506  0.00  0.00    +0.198 A 
ATOM     21  N   UNL     1       4.601   1.912   1.659  0.00  0.00    -0.120 NA
ATOM     22  N   UNL     1       3.464   1.109   1.811  0.00  0.00    -0.112 NA
ATOM     23  C   UNL     1       2.408   1.881   1.738  0.00  0.00    +0.225 A 
ATOM     24  N   UNL     1       2.837   3.167   1.551  0.00  0.00    -0.259 N 
ATOM     25  N   UNL     1       1.086   1.468   1.838  0.00  0.00    -0.299 N 
ATOM     26  C   UNL     1       0.692   0.673   0.668  0.00  0.00    +0.108 C 
ATOM     27  C   UNL     1      -0.804   0.359   0.742  0.00  0.00    +0.019 C 
ATOM     28  C   UNL     1      -1.095  -0.416   2.030  0.00  0.00    +0.003 C 
ATOM     29  C   UNL     1      -0.632   0.413   3.231  0.00  0.00    +0.019 C 
ATOM     30  C   UNL     1       0.859   0.725   3.084  0.00  0.00    +0.108 C 
BRANCH  24  31
ATOM     31  C   UNL     1       2.019   4.300   1.427  0.00  0.00    +0.052 A 
ATOM     32  C   UNL     1       1.179   4.435   0.330  0.00  0.00    +0.026 A 
ATOM     33  C   UNL     1       0.371   5.549   0.214  0.00  0.00    +0.002 A 
ATOM     34  C   UNL     1       0.406   6.535   1.183  0.00  0.00    +0.000 A 
ATOM     35  C   UNL     1       1.246   6.406   2.274  0.00  0.00    +0.002 A 
ATOM     36  C   UNL     1       2.053   5.291   2.398  0.00  0.00    +0.026 A 
ENDBRANCH  24  31
ENDBRANCH  19  20
ENDBRANCH   1  19
TORSDOF 10
