REMARK  Name = ZINC39662706
REMARK  9 active torsions:
REMARK  status: ('A' for Active; 'I' for Inactive)
REMARK    1  A    between atoms: C_1  and  O_2
REMARK    2  A    between atoms: O_2  and  C_3
REMARK    3  A    between atoms: C_6  and  C_11
REMARK    4  A    between atoms: C_7  and  O_9
REMARK    5  A    between atoms: O_9  and  C_10
REMARK    6  A    between atoms: C_15  and  C_24
REMARK    7  A    between atoms: N_26  and  C_27
REMARK    8  A    between atoms: C_27  and  C_28
REMARK    9  A    between atoms: C_31  and  C_34
REMARK                            x       y       z     vdW  Elec       q    Type
REMARK                         _______ _______ _______ _____ _____    ______ ____
ROOT
ATOM      1  C   UNL     1       2.435  -2.389   4.205  0.00  0.00    +0.250 C 
ATOM      2  O   UNL     1       2.448  -3.605   4.231  0.00  0.00    -0.270 OA
ATOM      3  N   UNL     1       3.135  -1.688   5.120  0.00  0.00    -0.296 N 
ATOM      4  C   UNL     1       3.157  -0.220   5.315  0.00  0.00    +0.121 C 
ATOM      5  C   UNL     1       3.186  -0.030   6.848  0.00  0.00    +0.100 C 
ATOM      6  C   UNL     1       3.777  -1.340   7.395  0.00  0.00    -0.004 C 
ATOM      7  C   UNL     1       4.050  -2.213   6.161  0.00  0.00    +0.115 C 
ATOM      8  C   UNL     1       2.773  -2.032   8.311  0.00  0.00    -0.010 C 
ATOM      9  C   UNL     1       3.405  -3.303   8.887  0.00  0.00    -0.082 C 
ATOM     10  N   UNL     1       4.619  -2.952   9.634  0.00  0.00    +0.379 N 
ATOM     11  C   UNL     1       5.616  -2.371   8.726  0.00  0.00    -0.082 C 
ATOM     12  C   UNL     1       5.077  -1.062   8.144  0.00  0.00    -0.010 C 
ATOM     13  H   UNL     1       4.388  -2.281  10.352  0.00  0.00    -0.086 HD
ATOM     14  H   UNL     1       5.000  -3.782  10.063  0.00  0.00    -0.086 HD
ENDROOT
BRANCH   1  18
ATOM     15  C   UNL     1       0.186  -0.352   1.233  0.00  0.00    +0.124 A 
ATOM     16  C   UNL     1       1.387   0.184   1.688  0.00  0.00    +0.046 A 
ATOM     17  C   UNL     1       2.119  -0.472   2.650  0.00  0.00    +0.020 A 
ATOM     18  C   UNL     1       1.655  -1.683   3.175  0.00  0.00    +0.079 A 
ATOM     19  C   UNL     1       0.444  -2.222   2.716  0.00  0.00    +0.136 A 
ATOM     20  C   UNL     1      -0.286  -1.548   1.751  0.00  0.00    +0.092 A 
BRANCH  15  22
ATOM     21  C   UNL     1       0.014   1.530  -0.207  0.00  0.00    +0.277 C 
ATOM     22  O   UNL     1      -0.529   0.302   0.283  0.00  0.00    -0.495 OA
ENDBRANCH  15  22
BRANCH  19  23
ATOM     23  O   UNL     1      -0.014  -3.395   3.220  0.00  0.00    -0.494 OA
ATOM     24  C   UNL     1      -1.254  -3.883   2.705  0.00  0.00    +0.277 C 
ENDBRANCH  19  23
ENDBRANCH   1  18
BRANCH   5  25
ATOM     25  C   UNL     1       4.063   1.138   7.217  0.00  0.00    +0.218 C 
ATOM     26  O   UNL     1       5.017   1.422   6.524  0.00  0.00    -0.275 OA
ATOM     27  N   UNL     1       3.787   1.868   8.316  0.00  0.00    -0.315 N 
ATOM     28  H   UNL     1       3.024   1.641   8.870  0.00  0.00    +0.149 HD
BRANCH  27  29
ATOM     29  C   UNL     1       4.640   3.004   8.674  0.00  0.00    +0.107 C 
BRANCH  29  30
ATOM     30  C   UNL     1       4.111   3.656   9.953  0.00  0.00    +0.006 C 
ATOM     31  C   UNL     1       2.729   4.256   9.686  0.00  0.00    +0.006 C 
ATOM     32  C   UNL     1       2.200   4.907  10.966  0.00  0.00    +0.015 C 
ATOM     33  C   UNL     1       3.160   6.014  11.408  0.00  0.00    +0.102 C 
ATOM     34  C   UNL     1       4.542   5.414  11.675  0.00  0.00    +0.015 C 
ATOM     35  C   UNL     1       5.071   4.762  10.396  0.00  0.00    +0.006 C 
BRANCH  33  36
ATOM     36  C   UNL     1       2.639   6.656  12.668  0.00  0.00    +0.359 C 
ATOM     37  O   UNL     1       3.418   7.129  13.478  0.00  0.00    -0.246 OA
ATOM     38  O   UNL     1       1.439   6.701  12.878  0.00  0.00    -0.246 OA
ENDBRANCH  33  36
ENDBRANCH  29  30
ENDBRANCH  27  29
ENDBRANCH   5  25
TORSDOF 7
