REMARK  Name = ZINC16384270
REMARK  3 active torsions:
REMARK  status: ('A' for Active; 'I' for Inactive)
REMARK    1  A    between atoms: C_3  and  O_27
REMARK    2  A    between atoms: C_6  and  C_7
REMARK    3  A    between atoms: N_8  and  N_9
REMARK                            x       y       z     vdW  Elec       q    Type
REMARK                         _______ _______ _______ _____ _____    ______ ____
ROOT
ATOM      1  N   UNL     1       1.188   2.010   0.002  0.00  0.00    -0.205 N 
ATOM      2  C   UNL     1       1.169   3.391   0.009  0.00  0.00    +0.241 A 
ATOM      3  N   UNL     1       0.009   4.040   0.018  0.00  0.00    -0.180 NA
ATOM      4  C   UNL     1      -0.009   5.370   0.031  0.00  0.00    +0.224 A 
ATOM      5  N   UNL     1       1.133   6.050   0.023  0.00  0.00    -0.181 NA
ATOM      6  C   UNL     1       2.294   5.401   0.009  0.00  0.00    +0.224 A 
ATOM      7  N   UNL     1       2.312   4.072   0.002  0.00  0.00    -0.180 NA
ATOM      8  N   UNL     1       3.479   6.107   0.002  0.00  0.00    -0.299 N 
ATOM      9  C   UNL     1       3.622   6.921   1.236  0.00  0.00    +0.108 C 
ATOM     10  C   UNL     1       5.145   7.194   1.307  0.00  0.00    +0.020 C 
ATOM     11  C   UNL     1       5.758   5.866   0.805  0.00  0.00    +0.020 C 
ATOM     12  C   UNL     1       4.641   5.192  -0.014  0.00  0.00    +0.108 C 
ATOM     13  N   UNL     1      -1.213   6.043   0.045  0.00  0.00    -0.299 N 
ATOM     14  C   UNL     1      -1.378   6.866  -1.180  0.00  0.00    +0.108 C 
ATOM     15  C   UNL     1      -2.908   7.098  -1.249  0.00  0.00    +0.020 C 
ATOM     16  C   UNL     1      -3.484   5.749  -0.761  0.00  0.00    +0.020 C 
ATOM     17  C   UNL     1      -2.350   5.097   0.051  0.00  0.00    +0.108 C 
ATOM     18  H   UNL     1       2.035   1.537  -0.009  0.00  0.00    +0.177 HD
ENDROOT
BRANCH   1  20
ATOM     19  C   UNL     1       0.002  -0.004   0.002  0.00  0.00    +0.138 C 
ATOM     20  N   UNL     1      -0.015   1.294   0.009  0.00  0.00    -0.188 NA
BRANCH  19  26
ATOM     21  C   UNL     1      -2.485  -0.079   0.031  0.00  0.00    +0.013 A 
ATOM     22  C   UNL     1      -3.667  -0.788   0.034  0.00  0.00    +0.047 A 
ATOM     23  C   UNL     1      -3.647  -2.176   0.026  0.00  0.00    +0.131 A 
ATOM     24  C   UNL     1      -2.435  -2.857   0.010  0.00  0.00    +0.060 A 
ATOM     25  C   UNL     1      -1.248  -2.156   0.002  0.00  0.00    +0.028 A 
ATOM     26  C   UNL     1      -1.265  -0.759   0.010  0.00  0.00    -0.004 A 
ATOM     27 BR   UNL     1      -2.415  -4.748   0.001  0.00  0.00    -0.047 Br
BRANCH  23  28
ATOM     28  O   UNL     1      -4.814  -2.871   0.034  0.00  0.00    -0.506 OA
ATOM     29  H   UNL     1      -5.143  -3.077   0.920  0.00  0.00    +0.292 HD
ENDBRANCH  23  28
ENDBRANCH  19  26
ENDBRANCH   1  20
TORSDOF 3
