REMARK  Name = ZINC59106008
REMARK  5 active torsions:
REMARK  status: ('A' for Active; 'I' for Inactive)
REMARK    1  A    between atoms: C_7  and  C_20
REMARK    2  A    between atoms: N_9  and  C_10
REMARK    3  A    between atoms: C_10  and  C_11
REMARK    4  A    between atoms: C_14  and  N_17
REMARK    5  A    between atoms: N_26  and  C_27
REMARK                            x       y       z     vdW  Elec       q    Type
REMARK                         _______ _______ _______ _____ _____    ______ ____
ROOT
ATOM      1  C   UNL     1       0.064   1.185   1.327  0.00  0.00    +0.001 A 
ATOM      2  C   UNL     1       1.245   1.913   1.312  0.00  0.00    +0.002 A 
ATOM      3  C   UNL     1       2.429   1.322   0.931  0.00  0.00    +0.026 A 
ATOM      4  C   UNL     1       2.448  -0.017   0.556  0.00  0.00    +0.050 A 
ATOM      5  C   UNL     1       1.252  -0.752   0.571  0.00  0.00    +0.007 A 
ATOM      6  C   UNL     1       0.061  -0.142   0.958  0.00  0.00    +0.010 A 
ATOM      7  C   UNL     1       1.607  -2.114   0.128  0.00  0.00    +0.001 A 
ATOM      8  C   UNL     1       2.952  -2.103  -0.115  0.00  0.00    +0.095 A 
ATOM      9  N   UNL     1       3.452  -0.865   0.137  0.00  0.00    -0.342 N 
ENDROOT
BRANCH   7  10
ATOM     10  C   UNL     1       0.699  -3.252  -0.021  0.00  0.00    +0.030 C 
ATOM     11  C   UNL     1       1.200  -4.512  -0.135  0.00  0.00    +0.078 C 
ATOM     12  C   UNL     1       0.506  -5.753  -0.256  0.00  0.00    +0.256 C 
ATOM     13  O   UNL     1      -0.711  -5.788  -0.269  0.00  0.00    -0.269 OA
ATOM     14  N   UNL     1       1.217  -6.863  -0.354  0.00  0.00    -0.260 N 
ATOM     15  C   UNL     1       2.597  -6.806  -0.337  0.00  0.00    +0.166 C 
ATOM     16  N   UNL     1       3.464  -7.790  -0.422  0.00  0.00    -0.226 NA
ATOM     17  S   UNL     1       2.903  -5.053  -0.179  0.00  0.00    -0.049 S 
ATOM     18  H   UNL     1       0.769  -7.719  -0.437  0.00  0.00    +0.157 HD
BRANCH  16  19
ATOM     19  C   UNL     1       3.024  -9.081  -0.546  0.00  0.00    +0.067 A 
ATOM     20  C   UNL     1       1.980  -9.545   0.256  0.00  0.00    +0.030 A 
ATOM     21  C   UNL     1       1.541 -10.847   0.126  0.00  0.00    +0.040 A 
ATOM     22  C   UNL     1       2.135 -11.692  -0.797  0.00  0.00    +0.124 A 
ATOM     23  C   UNL     1       3.171 -11.237  -1.595  0.00  0.00    +0.040 A 
ATOM     24  C   UNL     1       3.615  -9.936  -1.479  0.00  0.00    +0.030 A 
ATOM     25  F   UNL     1       1.701 -12.966  -0.919  0.00  0.00    -0.205 F 
ENDBRANCH  16  19
ENDBRANCH   7  10
BRANCH   9  26
ATOM     26  C   UNL     1       4.858  -0.485  -0.016  0.00  0.00    +0.157 C 
BRANCH  26  27
ATOM     27  C   UNL     1       5.560  -0.611   1.311  0.00  0.00    -0.028 A 
ATOM     28  C   UNL     1       5.597   0.465   2.178  0.00  0.00    +0.007 A 
ATOM     29  C   UNL     1       6.241   0.349   3.396  0.00  0.00    +0.033 A 
ATOM     30  C   UNL     1       6.847  -0.843   3.747  0.00  0.00    +0.126 A 
ATOM     31  C   UNL     1       6.809  -1.919   2.880  0.00  0.00    +0.033 A 
ATOM     32  C   UNL     1       6.161  -1.804   1.664  0.00  0.00    +0.007 A 
BRANCH  30  33
ATOM     33  N   UNL     1       7.537  -0.966   5.051  0.00  0.00    +0.056 N 
ATOM     34  O   UNL     1       7.571  -0.025   5.808  0.00  0.00    -0.126 OA
ATOM     35  O   UNL     1       8.067  -2.009   5.358  0.00  0.00    -0.126 OA
ENDBRANCH  30  33
ENDBRANCH  26  27
ENDBRANCH   9  26
TORSDOF 5
