REMARK  Name = ZINC10014461
REMARK  12 active torsions:
REMARK  status: ('A' for Active; 'I' for Inactive)
REMARK    1  A    between atoms: C_1  and  C_2
REMARK    2  A    between atoms: C_2  and  O_3
REMARK    3  A    between atoms: O_3  and  C_4
REMARK    4  A    between atoms: C_4  and  C_6
REMARK    5  A    between atoms: C_7  and  C_33
REMARK    6  A    between atoms: C_8  and  C_27
REMARK    7  A    between atoms: C_10  and  N_11
REMARK    8  A    between atoms: C_12  and  C_14
REMARK    9  A    between atoms: C_14  and  S_15
REMARK   10  A    between atoms: S_15  and  C_16
REMARK   11  A    between atoms: C_19  and  C_22
REMARK   12  A    between atoms: N_20  and  C_21
REMARK                            x       y       z     vdW  Elec       q    Type
REMARK                         _______ _______ _______ _____ _____    ______ ____
ROOT
ATOM      1  C   UNL     1       4.663   6.149  -0.071  0.00  0.00    +0.091 A 
ATOM      2  C   UNL     1       4.599   7.537   0.051  0.00  0.00    -0.020 A 
ATOM      3  C   UNL     1       3.367   8.110   0.117  0.00  0.00    +0.025 A 
ATOM      4  S   UNL     1       2.274   6.707   0.003  0.00  0.00    -0.072 S 
ATOM      5  C   UNL     1       3.458   5.449  -0.126  0.00  0.00    +0.087 A 
ATOM      6  C   UNL     1       5.852   8.373   0.112  0.00  0.00    +0.046 C 
ENDROOT
BRANCH   3   7
ATOM      7  C   UNL     1       3.021   9.541   0.252  0.00  0.00    -0.011 A 
ATOM      8  C   UNL     1       3.660  10.329   1.210  0.00  0.00    +0.009 A 
ATOM      9  C   UNL     1       3.337  11.665   1.327  0.00  0.00    +0.001 A 
ATOM     10  C   UNL     1       2.373  12.221   0.505  0.00  0.00    +0.000 A 
ATOM     11  C   UNL     1       1.732  11.444  -0.443  0.00  0.00    +0.001 A 
ATOM     12  C   UNL     1       2.050  10.108  -0.575  0.00  0.00    +0.009 A 
ENDBRANCH   3   7
BRANCH   5  13
ATOM     13  N   UNL     1       3.258   4.084  -0.247  0.00  0.00    -0.279 N 
ATOM     14  C   UNL     1       2.006   3.587  -0.278  0.00  0.00    +0.228 C 
ATOM     15  O   UNL     1       1.054   4.335  -0.199  0.00  0.00    -0.275 OA
ATOM     16  H   UNL     1       4.019   3.486  -0.310  0.00  0.00    +0.155 HD
BRANCH  14  17
ATOM     17  C   UNL     1       1.787   2.102  -0.410  0.00  0.00    +0.173 C 
BRANCH  17  18
ATOM     18  S   UNL     1       0.011   1.752  -0.421  0.00  0.00    -0.077 S 
BRANCH  18  19
ATOM     19  C   UNL     1       0.047  -0.003  -0.581  0.00  0.00    +0.192 A 
ATOM     20  N   UNL     1       1.120  -0.756  -0.661  0.00  0.00    -0.122 NA
ATOM     21  N   UNL     1       0.786  -1.992  -0.769  0.00  0.00    -0.125 NA
ATOM     22  C   UNL     1      -0.524  -2.105  -0.764  0.00  0.00    +0.200 A 
ATOM     23  N   UNL     1      -1.037  -0.833  -0.638  0.00  0.00    -0.303 N 
ATOM     24  C   UNL     1      -2.450  -0.450  -0.580  0.00  0.00    +0.153 C 
BRANCH  22  25
ATOM     25  C   UNL     1      -1.295  -3.354  -0.868  0.00  0.00    +0.172 A 
ATOM     26  C   UNL     1      -0.803  -4.614  -0.707  0.00  0.00    +0.053 A 
ATOM     27  C   UNL     1      -1.884  -5.498  -0.890  0.00  0.00    +0.042 A 
ATOM     28  C   UNL     1      -2.969  -4.745  -1.159  0.00  0.00    +0.196 A 
ATOM     29  O   UNL     1      -2.610  -3.451  -1.145  0.00  0.00    -0.460 OA
ENDBRANCH  22  25
ENDBRANCH  18  19
ENDBRANCH  17  18
ENDBRANCH  14  17
ENDBRANCH   5  13
BRANCH   1  30
ATOM     30  C   UNL     1       5.949   5.451  -0.142  0.00  0.00    +0.342 C 
ATOM     31  O   UNL     1       6.477   5.256  -1.220  0.00  0.00    -0.245 OA
BRANCH  30  32
ATOM     32  O   UNL     1       6.549   5.025   0.989  0.00  0.00    -0.461 OA
BRANCH  32  34
ATOM     33  C   UNL     1       8.344   3.936   2.223  0.00  0.00    +0.048 C 
ATOM     34  C   UNL     1       7.822   4.342   0.843  0.00  0.00    +0.229 C 
ENDBRANCH  32  34
ENDBRANCH  30  32
ENDBRANCH   1  30
TORSDOF 9
