REMARK  Name = ZINC12498286
REMARK  11 active torsions:
REMARK  status: ('A' for Active; 'I' for Inactive)
REMARK    1  A    between atoms: C_1  and  C_2
REMARK    2  A    between atoms: C_2  and  C_4
REMARK    3  A    between atoms: C_8  and  N_10
REMARK    4  A    between atoms: C_15  and  C_32
REMARK    5  A    between atoms: C_17  and  C_22
REMARK    6  A    between atoms: C_17  and  C_28
REMARK    7  A    between atoms: C_28  and  O_30
REMARK    8  A    between atoms: O_30  and  C_31
REMARK    9  A    between atoms: C_35  and  N_38
REMARK   10  A    between atoms: N_38  and  C_39
REMARK   11  A    between atoms: N_38  and  C_40
REMARK                            x       y       z     vdW  Elec       q    Type
REMARK                         _______ _______ _______ _____ _____    ______ ____
ROOT
ATOM      1  N   UNL     1       4.898   1.338  -0.069  0.00  0.00    -0.210 N 
ATOM      2  C   UNL     1       5.006  -0.028  -0.069  0.00  0.00    +0.229 C 
ATOM      3  O   UNL     1       4.140  -0.834   0.193  0.00  0.00    -0.275 OA
ATOM      4  C   UNL     1       6.408  -0.307  -0.461  0.00  0.00    +0.078 C 
ATOM      5  C   UNL     1       7.292  -1.397   0.096  0.00  0.00    -0.026 C 
ATOM      6  C   UNL     1       8.510   0.690  -0.027  0.00  0.00    +0.070 C 
ATOM      7  C   UNL     1       7.076   0.915   0.285  0.00  0.00    +0.090 C 
ATOM      8  C   UNL     1       6.120   1.963  -0.065  0.00  0.00    +0.229 C 
ATOM      9  O   UNL     1       6.355   3.129  -0.301  0.00  0.00    -0.275 OA
ATOM     10  N   UNL     1       8.652  -0.794  -0.040  0.00  0.00    +0.398 N 
ATOM     11  H   UNL     1       9.078  -1.094  -0.925  0.00  0.00    -0.083 HD
ATOM     12  H   UNL     1       9.244  -1.093   0.744  0.00  0.00    -0.083 HD
ENDROOT
BRANCH   1  17
ATOM     13  C   UNL     1       1.267   1.999  -0.069  0.00  0.00    +0.019 A 
ATOM     14  C   UNL     1       1.260   3.397  -0.069  0.00  0.00    +0.011 A 
ATOM     15  C   UNL     1       2.451   4.092  -0.060  0.00  0.00    +0.003 A 
ATOM     16  C   UNL     1       3.655   3.411  -0.061  0.00  0.00    +0.024 A 
ATOM     17  C   UNL     1       3.674   2.022  -0.067  0.00  0.00    +0.045 A 
ATOM     18  C   UNL     1       2.485   1.312  -0.070  0.00  0.00    +0.035 A 
BRANCH  13  20
ATOM     19  C   UNL     1      -1.312   1.996  -0.077  0.00  0.00    +0.091 C 
ATOM     20  C   UNL     1      -0.002   1.253  -0.073  0.00  0.00    +0.160 C 
ATOM     21  O   UNL     1       0.008   0.041  -0.078  0.00  0.00    -0.292 OA
ENDBRANCH  13  20
ENDBRANCH   1  17
BRANCH   6  22
ATOM     22  C   UNL     1       9.383   1.299   1.041  0.00  0.00    -0.047 A 
ATOM     23  C   UNL     1       8.954   2.419   1.728  0.00  0.00    +0.003 A 
ATOM     24  C   UNL     1       9.752   2.974   2.710  0.00  0.00    +0.000 A 
ATOM     25  C   UNL     1      10.983   2.415   2.999  0.00  0.00    +0.000 A 
ATOM     26  C   UNL     1      11.413   1.297   2.309  0.00  0.00    +0.000 A 
ATOM     27  C   UNL     1      10.613   0.739   1.329  0.00  0.00    +0.003 A 
ENDBRANCH   6  22
BRANCH   5  28
ATOM     28  C   UNL     1       7.170  -2.656  -0.724  0.00  0.00    -0.060 A 
ATOM     29  C   UNL     1       7.858  -2.771  -1.918  0.00  0.00    +0.004 A 
ATOM     30  C   UNL     1       7.753  -3.925  -2.669  0.00  0.00    +0.023 A 
ATOM     31  C   UNL     1       6.947  -4.967  -2.229  0.00  0.00    +0.029 A 
ATOM     32  C   UNL     1       6.253  -4.846  -1.031  0.00  0.00    +0.023 A 
ATOM     33  C   UNL     1       6.367  -3.692  -0.283  0.00  0.00    +0.004 A 
BRANCH  31  34
ATOM     34  N   UNL     1       6.834  -6.134  -2.989  0.00  0.00    -0.336 N 
ATOM     35  C   UNL     1       6.085  -7.279  -2.465  0.00  0.00    +0.129 C 
ATOM     36  C   UNL     1       7.465  -6.212  -4.309  0.00  0.00    +0.129 C 
ENDBRANCH  31  34
ENDBRANCH   5  28
BRANCH   6  37
ATOM     37  C   UNL     1       8.851   1.267  -1.377  0.00  0.00    +0.301 C 
ATOM     38  O   UNL     1       8.192   2.172  -1.831  0.00  0.00    -0.252 OA
BRANCH  37  39
ATOM     39  O   UNL     1       9.887   0.774  -2.075  0.00  0.00    -0.469 OA
ATOM     40  C   UNL     1      10.157   1.378  -3.368  0.00  0.00    +0.280 C 
ENDBRANCH  37  39
ENDBRANCH   6  37
TORSDOF 7
