REMARK  Name = ZINC15947086
REMARK  6 active torsions:
REMARK  status: ('A' for Active; 'I' for Inactive)
REMARK    1  A    between atoms: C_1  and  C_2
REMARK    2  A    between atoms: C_2  and  C_3
REMARK    3  A    between atoms: C_2  and  N_4
REMARK    4  A    between atoms: C_12  and  O_30
REMARK    5  A    between atoms: C_14  and  C_17
REMARK    6  A    between atoms: C_20  and  C_22
REMARK                            x       y       z     vdW  Elec       q    Type
REMARK                         _______ _______ _______ _____ _____    ______ ____
ROOT
ATOM      1  N   UNL     1      -1.442  -0.249   0.106  0.00  0.00    +0.384 N 
ATOM      2  C   UNL     1      -1.680  -1.680   0.337  0.00  0.00    -0.073 C 
ATOM      3  C   UNL     1      -3.135  -1.914   0.758  0.00  0.00    +0.018 C 
ATOM      4  C   UNL     1      -4.034  -1.238  -0.269  0.00  0.00    -0.027 A 
ATOM      5  C   UNL     1      -3.521  -0.306  -1.108  0.00  0.00    -0.021 A 
ATOM      6  S   UNL     1      -4.891   0.200  -2.109  0.00  0.00    -0.080 S 
ATOM      7  C   UNL     1      -6.075  -0.765  -1.461  0.00  0.00    +0.080 A 
ATOM      8  C   UNL     1      -5.447  -1.501  -0.448  0.00  0.00    +0.067 A 
ATOM      9  C   UNL     1      -6.285  -2.453   0.325  0.00  0.00    +0.220 C 
ATOM     10  N   UNL     1      -7.474  -2.730  -0.139  0.00  0.00    -0.220 NA
ATOM     11  C   UNL     1      -8.010  -2.219  -1.394  0.00  0.00    +0.260 C 
ATOM     12  N   UNL     1      -7.411  -0.921  -1.753  0.00  0.00    -0.311 N 
ATOM     13  C   UNL     1      -2.103   0.167  -1.145  0.00  0.00    -0.035 C 
ATOM     14  H   UNL     1      -7.929  -0.216  -2.171  0.00  0.00    +0.149 HD
ATOM     15  H   UNL     1      -1.819   0.281   0.878  0.00  0.00    -0.081 HD
ENDROOT
BRANCH  11  16
ATOM     16  C   UNL     1      -7.724  -3.212  -2.491  0.00  0.00    +0.148 A 
ATOM     17  C   UNL     1      -7.624  -4.546  -2.337  0.00  0.00    +0.049 A 
ATOM     18  C   UNL     1      -7.350  -5.090  -3.608  0.00  0.00    +0.050 A 
ATOM     19  C   UNL     1      -7.297  -4.046  -4.477  0.00  0.00    +0.135 A 
ATOM     20  O   UNL     1      -7.531  -2.913  -3.786  0.00  0.00    -0.456 OA
BRANCH  19  21
ATOM     21  C   UNL     1      -7.034  -4.138  -5.928  0.00  0.00    +0.020 A 
ATOM     22  C   UNL     1      -6.817  -5.381  -6.524  0.00  0.00    +0.031 A 
ATOM     23  C   UNL     1      -6.572  -5.461  -7.880  0.00  0.00    +0.043 A 
ATOM     24  C   UNL     1      -6.541  -4.310  -8.650  0.00  0.00    +0.040 A 
ATOM     25  C   UNL     1      -6.755  -3.074  -8.065  0.00  0.00    +0.043 A 
ATOM     26  C   UNL     1      -7.006  -2.982  -6.710  0.00  0.00    +0.031 A 
ATOM     27 CL   UNL     1      -6.713  -1.636  -9.037  0.00  0.00    -0.083 Cl
ATOM     28 CL   UNL     1      -6.302  -7.007  -8.623  0.00  0.00    -0.083 Cl
ENDBRANCH  19  21
ENDBRANCH  11  16
BRANCH   1  30
ATOM     29  C   UNL     1       0.246   1.468  -0.337  0.00  0.00    -0.014 C 
ATOM     30  C   UNL     1       0.002  -0.004   0.002  0.00  0.00    -0.074 C 
ATOM     31  C   UNL     1       0.674  -0.339   1.335  0.00  0.00    -0.014 C 
ENDBRANCH   1  30
BRANCH   9  32
ATOM     32  O   UNL     1      -5.832  -3.014   1.470  0.00  0.00    -0.492 OA
ATOM     33  H   UNL     1      -6.462  -3.617   1.888  0.00  0.00    +0.294 HD
ENDBRANCH   9  32
TORSDOF 4
