REMARK  Name = ZINC09446725
REMARK  3 active torsions:
REMARK  status: ('A' for Active; 'I' for Inactive)
REMARK    1  A    between atoms: C_10  and  C_32
REMARK    2  A    between atoms: C_11  and  C_27
REMARK    3  A    between atoms: C_17  and  C_22
REMARK                            x       y       z     vdW  Elec       q    Type
REMARK                         _______ _______ _______ _____ _____    ______ ____
ROOT
ATOM      1  C   UNL     1       3.232   4.115  -6.070  0.00  0.00    +0.001 A 
ATOM      2  C   UNL     1       3.356   3.398  -4.890  0.00  0.00    +0.002 A 
ATOM      3  C   UNL     1       3.554   4.050  -3.689  0.00  0.00    +0.024 A 
ATOM      4  C   UNL     1       3.585   5.433  -3.638  0.00  0.00    +0.050 A 
ATOM      5  C   UNL     1       3.543   6.154  -4.848  0.00  0.00    +0.036 A 
ATOM      6  C   UNL     1       3.334   5.490  -6.056  0.00  0.00    +0.013 A 
ATOM      7  C   UNL     1       3.765   7.607  -4.806  0.00  0.00    +0.127 C 
ATOM      8  N   UNL     1       4.050   8.168  -3.647  0.00  0.00    -0.215 NA
ATOM      9  C   UNL     1       4.091   7.464  -2.508  0.00  0.00    +0.146 C 
ATOM     10  C   UNL     1       4.592   8.101  -1.377  0.00  0.00    +0.082 C 
ATOM     11  C   UNL     1       4.679   7.279  -0.106  0.00  0.00    +0.104 C 
ATOM     12  C   UNL     1       3.796   6.047  -0.071  0.00  0.00    +0.026 C 
ATOM     13  C   UNL     1       3.362   5.547  -1.253  0.00  0.00    +0.025 C 
ATOM     14  N   UNL     1       3.677   6.143  -2.445  0.00  0.00    -0.256 N 
ATOM     15  C   UNL     1       2.464   4.332  -1.242  0.00  0.00    +0.063 C 
ATOM     16  C   UNL     1       1.580   4.361   0.009  0.00  0.00    +0.068 C 
ATOM     17  C   UNL     1       2.494   4.320   1.240  0.00  0.00    +0.091 C 
ATOM     18  C   UNL     1       3.451   5.482   1.161  0.00  0.00    +0.162 C 
ATOM     19  O   UNL     1       3.919   5.932   2.189  0.00  0.00    -0.292 OA
ATOM     20  N   UNL     1       3.679   8.370  -5.943  0.00  0.00    -0.343 N 
ATOM     21  H   UNL     1       3.469   7.951  -6.792  0.00  0.00    +0.144 HD
ATOM     22  H   UNL     1       3.829   9.327  -5.898  0.00  0.00    +0.144 HD
ENDROOT
BRANCH  16  23
ATOM     23  C   UNL     1       0.671   3.160   0.012  0.00  0.00    +0.109 A 
ATOM     24  C   UNL     1      -0.673   3.191   0.025  0.00  0.00    +0.045 A 
ATOM     25  C   UNL     1      -1.114   1.848   0.017  0.00  0.00    +0.041 A 
ATOM     26  C   UNL     1      -0.013   1.076   0.008  0.00  0.00    +0.195 A 
ATOM     27  O   UNL     1       1.066   1.876   0.002  0.00  0.00    -0.468 OA
ENDBRANCH  16  23
BRANCH  11  28
ATOM     28  C   UNL     1       6.111   6.839   0.061  0.00  0.00    +0.002 A 
ATOM     29  C   UNL     1       7.000   7.174   1.028  0.00  0.00    +0.012 A 
ATOM     30  C   UNL     1       8.275   6.642   0.980  0.00  0.00    +0.008 A 
ATOM     31  C   UNL     1       8.598   5.801  -0.033  0.00  0.00    +0.045 A 
ATOM     32  S   UNL     1       7.074   5.734  -0.959  0.00  0.00    -0.101 S 
ENDBRANCH  11  28
BRANCH  10  33
ATOM     33  C   UNL     1       5.011   9.467  -1.409  0.00  0.00    +0.099 C 
ATOM     34  N   UNL     1       5.345  10.553  -1.435  0.00  0.00    -0.191 NA
ENDBRANCH  10  33
TORSDOF 3
