REMARK  Name = ZINC40567365
REMARK  6 active torsions:
REMARK  status: ('A' for Active; 'I' for Inactive)
REMARK    1  A    between atoms: C_4  and  C_7
REMARK    2  A    between atoms: C_7  and  C_9
REMARK    3  A    between atoms: C_7  and  N_12
REMARK    4  A    between atoms: C_16  and  C_17
REMARK    5  A    between atoms: C_20  and  C_22
REMARK    6  A    between atoms: C_27  and  N_28
REMARK                            x       y       z     vdW  Elec       q    Type
REMARK                         _______ _______ _______ _____ _____    ______ ____
ROOT
ATOM      1  N   UNL     1       3.647  -1.792  -1.020  0.00  0.00    -0.237 N 
ATOM      2  C   UNL     1       4.511  -1.846  -2.022  0.00  0.00    +0.259 C 
ATOM      3  O   UNL     1       5.381  -1.011  -2.167  0.00  0.00    -0.269 OA
ATOM      4  C   UNL     1       4.355  -2.992  -2.962  0.00  0.00    +0.080 C 
ATOM      5  C   UNL     1       5.114  -3.306  -4.101  0.00  0.00    +0.066 C 
ATOM      6  S   UNL     1       3.038  -3.814  -2.313  0.00  0.00    -0.061 S 
ATOM      7  C   UNL     1       2.711  -2.756  -0.916  0.00  0.00    +0.122 C 
ATOM      8  S   UNL     1       1.492  -2.925   0.275  0.00  0.00    -0.027 S 
ENDROOT
BRANCH   5   9
ATOM      9  C   UNL     1       4.805  -4.429  -4.852  0.00  0.00    +0.130 A 
ATOM     10  C   UNL     1       5.504  -4.890  -6.056  0.00  0.00    +0.050 A 
ATOM     11  C   UNL     1       4.866  -6.023  -6.457  0.00  0.00    +0.050 A 
ATOM     12  C   UNL     1       3.815  -6.265  -5.549  0.00  0.00    +0.138 A 
ATOM     13  O   UNL     1       3.807  -5.308  -4.606  0.00  0.00    -0.455 OA
BRANCH  12  14
ATOM     14  C   UNL     1       2.881  -7.387  -5.619  0.00  0.00    +0.048 A 
ATOM     15  C   UNL     1       2.220  -7.684  -6.825  0.00  0.00    +0.015 A 
ATOM     16  C   UNL     1       1.349  -8.735  -6.880  0.00  0.00    +0.021 A 
ATOM     17  C   UNL     1       1.115  -9.509  -5.751  0.00  0.00    +0.043 A 
ATOM     18  C   UNL     1       1.762  -9.224  -4.556  0.00  0.00    +0.053 A 
ATOM     19  C   UNL     1       2.641  -8.181  -4.482  0.00  0.00    +0.138 A 
ATOM     20 CL   UNL     1       0.005 -10.842  -5.834  0.00  0.00    -0.083 Cl
BRANCH  19  21
ATOM     21  N   UNL     1       3.335  -7.883  -3.209  0.00  0.00    +0.057 N 
ATOM     22  O   UNL     1       3.109  -8.628  -2.146  0.00  0.00    -0.126 OA
ATOM     23  O   UNL     1       4.178  -6.874  -3.139  0.00  0.00    -0.126 OA
ENDBRANCH  19  21
ENDBRANCH  12  14
ENDBRANCH   5   9
BRANCH   1  24
ATOM     24  C   UNL     1       3.711  -0.707  -0.038  0.00  0.00    +0.226 C 
BRANCH  24  28
ATOM     25  C   UNL     1       7.652  -0.497   1.598  0.00  0.00    +0.000 A 
ATOM     26  C   UNL     1       6.962   0.665   1.307  0.00  0.00    +0.000 A 
ATOM     27  C   UNL     1       5.686   0.597   0.777  0.00  0.00    +0.006 A 
ATOM     28  C   UNL     1       5.102  -0.633   0.539  0.00  0.00    -0.016 A 
ATOM     29  C   UNL     1       5.792  -1.795   0.830  0.00  0.00    +0.006 A 
ATOM     30  C   UNL     1       7.067  -1.727   1.361  0.00  0.00    +0.000 A 
ENDBRANCH  24  28
BRANCH  24  31
ATOM     31  C   UNL     1       3.376   0.599  -0.710  0.00  0.00    +0.381 C 
ATOM     32  O   UNL     1       3.636   0.762  -1.889  0.00  0.00    -0.244 OA
ATOM     33  O   UNL     1       2.844   1.493  -0.073  0.00  0.00    -0.244 OA
ENDBRANCH  24  31
ENDBRANCH   1  24
TORSDOF 6
