REMARK  Name = ZINC45682135
REMARK  9 active torsions:
REMARK  status: ('A' for Active; 'I' for Inactive)
REMARK    1  A    between atoms: C_1  and  C_2
REMARK    2  A    between atoms: C_4  and  C_16
REMARK    3  A    between atoms: C_6  and  C_11
REMARK    4  A    between atoms: C_16  and  O_18
REMARK    5  A    between atoms: O_18  and  C_19
REMARK    6  A    between atoms: C_19  and  C_20
REMARK    7  A    between atoms: C_20  and  C_22
REMARK    8  A    between atoms: C_27  and  O_28
REMARK    9  A    between atoms: O_28  and  C_29
REMARK                            x       y       z     vdW  Elec       q    Type
REMARK                         _______ _______ _______ _____ _____    ______ ____
ROOT
ATOM      1  C   UNL     1      -1.622   1.325  -0.388  0.00  0.00    +0.070 C 
ATOM      2  C   UNL     1      -1.326  -0.151  -0.328  0.00  0.00    +0.091 A 
ATOM      3  C   UNL     1      -0.695  -0.951  -1.376  0.00  0.00    +0.077 A 
ATOM      4  C   UNL     1      -0.200  -0.657  -2.665  0.00  0.00    +0.075 A 
ATOM      5  C   UNL     1       0.349  -1.699  -3.405  0.00  0.00    +0.047 A 
ATOM      6  C   UNL     1       0.387  -2.984  -2.847  0.00  0.00    +0.111 A 
ATOM      7  N   UNL     1      -0.088  -3.223  -1.632  0.00  0.00    -0.207 NA
ATOM      8  C   UNL     1      -0.620  -2.267  -0.888  0.00  0.00    +0.260 A 
ATOM      9  O   UNL     1      -1.159  -2.258   0.348  0.00  0.00    -0.334 OA
ATOM     10  N   UNL     1      -1.578  -0.947   0.668  0.00  0.00    -0.080 NA
ENDROOT
BRANCH   6  11
ATOM     11  C   UNL     1       0.968  -4.093  -3.627  0.00  0.00    +0.153 A 
ATOM     12  C   UNL     1       1.069  -5.388  -3.221  0.00  0.00    +0.051 A 
ATOM     13  C   UNL     1       1.682  -6.096  -4.272  0.00  0.00    +0.042 A 
ATOM     14  C   UNL     1       1.924  -5.208  -5.258  0.00  0.00    +0.196 A 
ATOM     15  O   UNL     1       1.486  -4.001  -4.868  0.00  0.00    -0.461 OA
ENDBRANCH   6  11
BRANCH   4  16
ATOM     16  C   UNL     1      -0.263   0.715  -3.212  0.00  0.00    +0.340 C 
ATOM     17  O   UNL     1      -0.113   1.669  -2.476  0.00  0.00    -0.245 OA
BRANCH  16  18
ATOM     18  O   UNL     1      -0.486   0.907  -4.526  0.00  0.00    -0.453 OA
BRANCH  18  19
ATOM     19  C   UNL     1      -0.534   2.259  -4.986  0.00  0.00    +0.312 C 
BRANCH  19  20
ATOM     20  C   UNL     1      -0.791   2.276  -6.471  0.00  0.00    +0.204 C 
ATOM     21  O   UNL     1      -0.920   1.233  -7.076  0.00  0.00    -0.288 OA
BRANCH  20  22
ATOM     22  C   UNL     1      -0.885   3.555  -7.185  0.00  0.00    +0.062 A 
ATOM     23  C   UNL     1      -0.731   4.762  -6.492  0.00  0.00    +0.015 A 
ATOM     24  C   UNL     1      -0.820   5.958  -7.168  0.00  0.00    +0.001 A 
ATOM     25  C   UNL     1      -1.062   5.974  -8.533  0.00  0.00    +0.004 A 
ATOM     26  C   UNL     1      -1.216   4.792  -9.230  0.00  0.00    +0.046 A 
ATOM     27  C   UNL     1      -1.124   3.577  -8.568  0.00  0.00    +0.131 A 
BRANCH  27  28
ATOM     28  O   UNL     1      -1.269   2.415  -9.253  0.00  0.00    -0.494 OA
ATOM     29  C   UNL     1      -1.510   2.516 -10.658  0.00  0.00    +0.277 C 
ENDBRANCH  27  28
ENDBRANCH  20  22
ENDBRANCH  19  20
ENDBRANCH  18  19
ENDBRANCH  16  18
ENDBRANCH   4  16
TORSDOF 7
