REMARK  Name = ZINC29592713
REMARK  7 active torsions:
REMARK  status: ('A' for Active; 'I' for Inactive)
REMARK    1  A    between atoms: C_6  and  O_7
REMARK    2  A    between atoms: O_7  and  C_8
REMARK    3  A    between atoms: C_8  and  C_9
REMARK    4  A    between atoms: C_12  and  S_15
REMARK    5  A    between atoms: N_13  and  N_14
REMARK    6  A    between atoms: S_15  and  C_16
REMARK    7  A    between atoms: C_16  and  C_17
REMARK                            x       y       z     vdW  Elec       q    Type
REMARK                         _______ _______ _______ _____ _____    ______ ____
ROOT
ATOM      1  S   UNL     1      -5.721  -4.276  -2.080  0.00  0.00    -0.077 S 
ENDROOT
BRANCH   1   5
ATOM      2  C   UNL     1      -2.247  -2.832  -1.049  0.00  0.00    +0.189 A 
ATOM      3  N   UNL     1      -2.840  -2.987   0.101  0.00  0.00    -0.128 NA
ATOM      4  N   UNL     1      -4.020  -3.465  -0.073  0.00  0.00    -0.121 NA
ATOM      5  C   UNL     1      -4.245  -3.643  -1.354  0.00  0.00    +0.209 A 
ATOM      6  N   UNL     1      -3.122  -3.239  -2.017  0.00  0.00    -0.225 N 
BRANCH   6   7
ATOM      7  N   UNL     1      -2.915  -3.244  -3.367  0.00  0.00    -0.295 N 
ATOM      8  H   UNL     1      -2.515  -4.120  -3.669  0.00  0.00    +0.163 HD
ATOM      9  H   UNL     1      -3.771  -3.046  -3.865  0.00  0.00    +0.163 HD
ENDBRANCH   6   7
BRANCH   2  10
ATOM     10  C   UNL     1      -0.856  -2.296  -1.271  0.00  0.00    +0.306 C 
BRANCH  10  11
ATOM     11  O   UNL     1      -0.910  -0.876  -1.420  0.00  0.00    -0.484 OA
BRANCH  11  17
ATOM     12  C   UNL     1       0.289   1.146  -1.782  0.00  0.00    +0.048 A 
ATOM     13  C   UNL     1       1.488   1.799  -1.994  0.00  0.00    +0.042 A 
ATOM     14  C   UNL     1       2.669   1.079  -2.053  0.00  0.00    +0.124 A 
ATOM     15  C   UNL     1       2.650  -0.297  -1.901  0.00  0.00    +0.042 A 
ATOM     16  C   UNL     1       1.453  -0.953  -1.689  0.00  0.00    +0.048 A 
ATOM     17  C   UNL     1       0.269  -0.232  -1.629  0.00  0.00    +0.121 A 
ATOM     18  F   UNL     1       3.840   1.719  -2.261  0.00  0.00    -0.205 F 
ENDBRANCH  11  17
ENDBRANCH  10  11
ENDBRANCH   2  10
ENDBRANCH   1   5
BRANCH   1  19
ATOM     19  C   UNL     1      -6.802  -4.604  -0.662  0.00  0.00    +0.153 C 
BRANCH  19  20
ATOM     20  C   UNL     1      -8.117  -5.157  -1.150  0.00  0.00    +0.143 A 
ATOM     21  N   UNL     1      -9.101  -4.324  -1.438  0.00  0.00    -0.216 NA
ATOM     22  C   UNL     1     -10.278  -4.747  -1.870  0.00  0.00    +0.128 A 
ATOM     23  C   UNL     1     -10.496  -6.144  -2.031  0.00  0.00    +0.051 A 
ATOM     24  C   UNL     1     -11.702  -6.837  -2.488  0.00  0.00    -0.025 A 
ATOM     25  C   UNL     1     -11.646  -8.182  -2.552  0.00  0.00    -0.004 A 
ATOM     26  S   UNL     1     -10.010  -8.604  -2.017  0.00  0.00    -0.073 S 
ATOM     27  C   UNL     1      -9.401  -6.968  -1.705  0.00  0.00    +0.114 A 
ATOM     28  N   UNL     1      -8.257  -6.462  -1.285  0.00  0.00    -0.224 NA
ATOM     29  C   UNL     1     -12.736  -9.116  -2.983  0.00  0.00    +0.043 C 
ATOM     30  C   UNL     1     -14.062  -8.342  -2.991  0.00  0.00    +0.005 C 
ATOM     31  C   UNL     1     -13.851  -7.014  -3.723  0.00  0.00    +0.005 C 
ATOM     32  C   UNL     1     -12.974  -6.089  -2.878  0.00  0.00    +0.037 C 
ATOM     33  N   UNL     1     -11.283  -3.842  -2.162  0.00  0.00    -0.343 N 
ATOM     34  H   UNL     1     -11.072  -2.902  -2.274  0.00  0.00    +0.144 HD
ATOM     35  H   UNL     1     -12.199  -4.149  -2.253  0.00  0.00    +0.144 HD
ENDBRANCH  19  20
ENDBRANCH   1  19
TORSDOF 7
