REMARK  Name = ZINC13410683
REMARK  11 active torsions:
REMARK  status: ('A' for Active; 'I' for Inactive)
REMARK    1  A    between atoms: C_1  and  O_2
REMARK    2  A    between atoms: O_2  and  C_3
REMARK    3  A    between atoms: C_3  and  C_4
REMARK    4  A    between atoms: C_4  and  C_5
REMARK    5  A    between atoms: C_5  and  N_6
REMARK    6  A    between atoms: C_16  and  S_17
REMARK    7  A    between atoms: S_17  and  C_18
REMARK    8  A    between atoms: C_18  and  C_19
REMARK    9  A    between atoms: N_21  and  C_22
REMARK   10  A    between atoms: C_25  and  C_28
REMARK   11  A    between atoms: C_29  and  C_30
REMARK                            x       y       z     vdW  Elec       q    Type
REMARK                         _______ _______ _______ _____ _____    ______ ____
ROOT
ATOM      1  S   UNL     1      -2.682  -2.910   0.430  0.00  0.00    -0.078 S 
ENDROOT
BRANCH   1  12
ATOM      2  N   UNL     1       0.010  -2.803   0.514  0.00  0.00    -0.287 N 
ATOM      3  C   UNL     1       1.220  -2.199   0.474  0.00  0.00    +0.262 A 
ATOM      4  O   UNL     1       2.249  -2.837   0.600  0.00  0.00    -0.267 OA
ATOM      5  C   UNL     1       1.246  -0.744   0.274  0.00  0.00    +0.065 A 
ATOM      6  C   UNL     1       2.442  -0.029   0.219  0.00  0.00    +0.015 A 
ATOM      7  C   UNL     1       2.409   1.326   0.031  0.00  0.00    +0.001 A 
ATOM      8  C   UNL     1       1.199   1.994  -0.105  0.00  0.00    +0.002 A 
ATOM      9  C   UNL     1       0.013   1.318  -0.055  0.00  0.00    +0.028 A 
ATOM     10  C   UNL     1       0.013  -0.067   0.136  0.00  0.00    +0.079 A 
ATOM     11  N   UNL     1      -1.135  -0.773   0.192  0.00  0.00    -0.223 NA
ATOM     12  C   UNL     1      -1.134  -2.071   0.371  0.00  0.00    +0.173 A 
BRANCH   2  13
ATOM     13  C   UNL     1      -0.074  -4.252   0.711  0.00  0.00    +0.129 C 
BRANCH  13  14
ATOM     14  C   UNL     1      -0.155  -4.559   2.208  0.00  0.00    +0.050 C 
BRANCH  14  15
ATOM     15  C   UNL     1      -0.242  -6.073   2.413  0.00  0.00    +0.161 C 
BRANCH  15  17
ATOM     16  C   UNL     1      -0.403  -7.754   4.115  0.00  0.00    +0.193 C 
ATOM     17  O   UNL     1      -0.318  -6.360   3.811  0.00  0.00    -0.383 OA
ENDBRANCH  15  17
ENDBRANCH  14  15
ENDBRANCH  13  14
ENDBRANCH   2  13
ENDBRANCH   1  12
BRANCH   1  18
ATOM     18  C   UNL     1      -3.807  -1.512   0.196  0.00  0.00    +0.173 C 
BRANCH  18  19
ATOM     19  C   UNL     1      -5.231  -2.006   0.212  0.00  0.00    +0.227 C 
ATOM     20  O   UNL     1      -5.462  -3.186   0.367  0.00  0.00    -0.275 OA
ATOM     21  N   UNL     1      -6.248  -1.135   0.055  0.00  0.00    -0.285 N 
ATOM     22  H   UNL     1      -6.068  -0.183   0.008  0.00  0.00    +0.155 HD
BRANCH  21  23
ATOM     23  C   UNL     1      -7.558  -1.603  -0.041  0.00  0.00    +0.033 A 
ATOM     24  C   UNL     1      -7.816  -2.824  -0.657  0.00  0.00    +0.024 A 
ATOM     25  C   UNL     1      -9.107  -3.291  -0.750  0.00  0.00    +0.010 A 
ATOM     26  C   UNL     1     -10.163  -2.533  -0.231  0.00  0.00    -0.025 A 
ATOM     27  C   UNL     1      -9.899  -1.303   0.384  0.00  0.00    +0.010 A 
ATOM     28  C   UNL     1      -8.605  -0.845   0.476  0.00  0.00    +0.024 A 
BRANCH  26  29
ATOM     29  C   UNL     1     -11.544  -3.025  -0.332  0.00  0.00    +0.015 C 
ATOM     30  C   UNL     1     -11.796  -4.212  -0.925  0.00  0.00    +0.096 C 
BRANCH  30  31
ATOM     31  C   UNL     1     -13.128  -4.688  -1.023  0.00  0.00    +0.380 C 
ATOM     32  O   UNL     1     -14.044  -4.027  -0.572  0.00  0.00    -0.241 OA
ATOM     33  O   UNL     1     -13.379  -5.873  -1.616  0.00  0.00    -0.241 OA
ENDBRANCH  30  31
ENDBRANCH  26  29
ENDBRANCH  21  23
ENDBRANCH  18  19
ENDBRANCH   1  18
TORSDOF 10
