REMARK  Name = ZINC63386509
REMARK  10 active torsions:
REMARK  status: ('A' for Active; 'I' for Inactive)
REMARK    1  A    between atoms: C_1  and  O_2
REMARK    2  A    between atoms: O_2  and  C_3
REMARK    3  A    between atoms: C_9  and  C_12
REMARK    4  A    between atoms: C_12  and  C_13
REMARK    5  A    between atoms: C_13  and  N_14
REMARK    6  A    between atoms: C_15  and  C_17
REMARK    7  A    between atoms: C_21  and  O_29
REMARK    8  A    between atoms: C_24  and  O_27
REMARK    9  A    between atoms: O_27  and  C_28
REMARK   10  A    between atoms: O_29  and  C_30
REMARK                            x       y       z     vdW  Elec       q    Type
REMARK                         _______ _______ _______ _____ _____    ______ ____
ROOT
ATOM      1  N   UNL     1      -0.759  -6.798   1.434  0.00  0.00    -0.313 N 
ATOM      2  C   UNL     1      -0.408  -7.389   2.593  0.00  0.00    +0.234 C 
ATOM      3  O   UNL     1      -0.851  -6.975   3.644  0.00  0.00    -0.274 OA
ATOM      4  H   UNL     1      -0.405  -7.128   0.594  0.00  0.00    +0.149 HD
ENDROOT
BRANCH   2   5
ATOM      5  C   UNL     1       0.535  -8.564   2.584  0.00  0.00    +0.161 C 
ATOM      6  C   UNL     1      -0.227  -9.857   2.248  0.00  0.00    +0.072 C 
ATOM      7  C   UNL     1      -0.040 -10.736   3.464  0.00  0.00    +0.021 A 
ATOM      8  C   UNL     1      -0.497 -12.017   3.739  0.00  0.00    +0.125 A 
ATOM      9  C   UNL     1      -0.187 -12.622   4.947  0.00  0.00    +0.049 A 
ATOM     10  C   UNL     1       0.581 -11.946   5.878  0.00  0.00    +0.051 A 
ATOM     11  C   UNL     1       1.039 -10.671   5.607  0.00  0.00    +0.141 A 
ATOM     12  C   UNL     1       0.729 -10.052   4.389  0.00  0.00    +0.077 A 
ATOM     13  N   UNL     1       1.090  -8.781   3.923  0.00  0.00    -0.330 N 
ATOM     14  H   UNL     1       1.628  -8.139   4.413  0.00  0.00    +0.147 HD
BRANCH  11  15
ATOM     15  O   UNL     1       1.794 -10.012   6.528  0.00  0.00    -0.493 OA
ATOM     16  C   UNL     1       2.072 -10.700   7.750  0.00  0.00    +0.277 C 
ENDBRANCH  11  15
BRANCH   8  17
ATOM     17  O   UNL     1      -1.251 -12.679   2.822  0.00  0.00    -0.495 OA
ATOM     18  C   UNL     1      -1.689 -13.994   3.170  0.00  0.00    +0.277 C 
ENDBRANCH   8  17
ENDBRANCH   2   5
BRANCH   1  19
ATOM     19  C   UNL     1      -1.676  -5.655   1.443  0.00  0.00    +0.108 C 
BRANCH  19  20
ATOM     20  C   UNL     1      -1.908  -5.176   0.009  0.00  0.00    +0.052 C 
BRANCH  20  27
ATOM     21  C   UNL     1      -1.200  -0.637   0.010  0.00  0.00    +0.121 A 
ATOM     22  C   UNL     1      -2.375   0.135   0.020  0.00  0.00    +0.047 A 
ATOM     23  C   UNL     1      -3.607  -0.415   0.028  0.00  0.00    +0.029 A 
ATOM     24  C   UNL     1      -3.753  -1.875   0.027  0.00  0.00    +0.043 A 
ATOM     25  N   UNL     1      -4.809  -2.650   0.034  0.00  0.00    -0.380 N 
ATOM     26  C   UNL     1      -4.362  -4.047   0.029  0.00  0.00    +0.144 C 
ATOM     27  C   UNL     1      -2.851  -4.000   0.018  0.00  0.00    -0.040 C 
ATOM     28  C   UNL     1      -2.516  -2.690   0.016  0.00  0.00    +0.002 A 
ATOM     29  C   UNL     1      -1.226  -1.992   0.003  0.00  0.00    +0.055 A 
ATOM     30  H   UNL     1      -5.731  -2.350   0.042  0.00  0.00    +0.160 HD
BRANCH  21  32
ATOM     31  C   UNL     1      -0.017   1.425   0.010  0.00  0.00    +0.277 C 
ATOM     32  O   UNL     1       0.002  -0.004   0.002  0.00  0.00    -0.495 OA
ENDBRANCH  21  32
ENDBRANCH  20  27
ENDBRANCH  19  20
ENDBRANCH   1  19
TORSDOF 7
