REMARK  Name = ZINC06195248
REMARK  11 active torsions:
REMARK  status: ('A' for Active; 'I' for Inactive)
REMARK    1  A    between atoms: C_1  and  C_2
REMARK    2  A    between atoms: C_5  and  N_9
REMARK    3  A    between atoms: C_6  and  C_8
REMARK    4  A    between atoms: N_9  and  C_10
REMARK    5  A    between atoms: C_10  and  C_12
REMARK    6  A    between atoms: C_10  and  C_18
REMARK    7  A    between atoms: N_20  and  C_21
REMARK    8  A    between atoms: C_21  and  C_22
REMARK    9  A    between atoms: C_28  and  C_30
REMARK   10  A    between atoms: C_31  and  N_38
REMARK   11  A    between atoms: C_32  and  C_35
REMARK                            x       y       z     vdW  Elec       q    Type
REMARK                         _______ _______ _______ _____ _____    ______ ____
ROOT
ATOM      1  N   UNL     1      -0.539  -3.691  -0.002  0.00  0.00    -0.251 N 
ATOM      2  C   UNL     1      -1.725  -4.300   0.195  0.00  0.00    +0.262 C 
ATOM      3  O   UNL     1      -1.808  -5.512   0.114  0.00  0.00    -0.269 OA
ENDROOT
BRANCH   1   8
ATOM      4  C   UNL     1      -0.154   1.955   0.379  0.00  0.00    +0.044 C 
ATOM      5  C   UNL     1      -0.256   0.455   0.278  0.00  0.00    -0.050 A 
ATOM      6  C   UNL     1      -0.502  -0.139  -0.947  0.00  0.00    +0.005 A 
ATOM      7  C   UNL     1      -0.596  -1.513  -1.043  0.00  0.00    +0.024 A 
ATOM      8  C   UNL     1      -0.444  -2.299   0.092  0.00  0.00    +0.041 A 
ATOM      9  C   UNL     1      -0.196  -1.700   1.320  0.00  0.00    -0.029 A 
ATOM     10  C   UNL     1      -0.099  -0.325   1.409  0.00  0.00    +0.008 A 
ATOM     11  C   UNL     1      -0.030  -2.549   2.554  0.00  0.00    +0.045 C 
ENDBRANCH   1   8
BRANCH   2  12
ATOM     12  C   UNL     1      -2.913  -3.505   0.507  0.00  0.00    +0.116 A 
ATOM     13  C   UNL     1      -4.221  -3.927   0.751  0.00  0.00    +0.076 A 
ATOM     14  C   UNL     1      -5.101  -2.880   1.018  0.00  0.00    +0.155 A 
ATOM     15  N   UNL     1      -4.654  -1.642   1.020  0.00  0.00    -0.203 NA
ATOM     16  S   UNL     1      -3.075  -1.739   0.686  0.00  0.00    +0.019 S 
BRANCH  14  17
ATOM     17  C   UNL     1      -6.522  -3.157   1.296  0.00  0.00    +0.262 C 
ATOM     18  O   UNL     1      -6.908  -4.306   1.407  0.00  0.00    -0.269 OA
ATOM     19  N   UNL     1      -7.395  -2.138   1.428  0.00  0.00    -0.324 N 
ATOM     20  H   UNL     1      -7.088  -1.223   1.339  0.00  0.00    +0.145 HD
ATOM     21  H   UNL     1      -8.330  -2.321   1.611  0.00  0.00    +0.145 HD
ENDBRANCH  14  17
BRANCH  13  22
ATOM     22  N   UNL     1      -4.608  -5.260   0.729  0.00  0.00    -0.355 N 
ATOM     23  H   UNL     1      -3.941  -5.957   0.630  0.00  0.00    +0.142 HD
ATOM     24  H   UNL     1      -5.545  -5.495   0.812  0.00  0.00    +0.142 HD
ENDBRANCH  13  22
ENDBRANCH   2  12
BRANCH   1  25
ATOM     25  C   UNL     1       0.650  -4.488  -0.314  0.00  0.00    +0.198 C 
BRANCH  25  26
ATOM     26  C   UNL     1       0.457  -5.181  -1.638  0.00  0.00    -0.015 A 
ATOM     27  C   UNL     1      -0.233  -4.562  -2.669  0.00  0.00    +0.025 A 
ATOM     28  C   UNL     1      -0.390  -5.229  -3.869  0.00  0.00    +0.111 A 
ATOM     29  N   UNL     1       0.106  -6.439  -4.039  0.00  0.00    -0.263 NA
ATOM     30  C   UNL     1       0.768  -7.058  -3.080  0.00  0.00    +0.111 A 
ATOM     31  C   UNL     1       0.970  -6.451  -1.855  0.00  0.00    +0.025 A 
ENDBRANCH  25  26
BRANCH  25  32
ATOM     32  C   UNL     1       1.854  -3.584  -0.391  0.00  0.00    +0.239 C 
ATOM     33  O   UNL     1       1.738  -2.399  -0.162  0.00  0.00    -0.273 OA
ATOM     34  N   UNL     1       3.059  -4.093  -0.716  0.00  0.00    -0.309 N 
ATOM     35  H   UNL     1       3.152  -5.041  -0.899  0.00  0.00    +0.149 HD
BRANCH  34  36
ATOM     36  C   UNL     1       4.229  -3.214  -0.791  0.00  0.00    +0.139 C 
BRANCH  36  37
ATOM     37  C   UNL     1       5.442  -4.024  -1.169  0.00  0.00    -0.030 A 
ATOM     38  C   UNL     1       6.221  -4.603  -0.185  0.00  0.00    +0.005 A 
ATOM     39  C   UNL     1       7.334  -5.346  -0.532  0.00  0.00    +0.000 A 
ATOM     40  C   UNL     1       7.667  -5.511  -1.863  0.00  0.00    +0.000 A 
ATOM     41  C   UNL     1       6.887  -4.933  -2.848  0.00  0.00    +0.000 A 
ATOM     42  C   UNL     1       5.772  -4.194  -2.501  0.00  0.00    +0.005 A 
ENDBRANCH  36  37
ENDBRANCH  34  36
ENDBRANCH  25  32
ENDBRANCH   1  25
TORSDOF 9
