REMARK  Name = ZINC20740278
REMARK  6 active torsions:
REMARK  status: ('A' for Active; 'I' for Inactive)
REMARK    1  A    between atoms: C_4  and  C_7
REMARK    2  A    between atoms: C_8  and  C_9
REMARK    3  A    between atoms: C_9  and  N_10
REMARK    4  A    between atoms: N_13  and  C_16
REMARK    5  A    between atoms: C_19  and  N_25
REMARK    6  A    between atoms: C_21  and  N_22
REMARK                            x       y       z     vdW  Elec       q    Type
REMARK                         _______ _______ _______ _____ _____    ______ ____
ROOT
ATOM      1  C   UNL     1       6.981  -5.101   4.458  0.00  0.00    +0.060 A 
ATOM      2  C   UNL     1       6.692  -6.122   5.355  0.00  0.00    +0.027 A 
ATOM      3  C   UNL     1       7.537  -6.365   6.419  0.00  0.00    +0.026 A 
ATOM      4  C   UNL     1       8.675  -5.589   6.594  0.00  0.00    +0.046 A 
ATOM      5  C   UNL     1       8.963  -4.569   5.698  0.00  0.00    +0.058 A 
ATOM      6  C   UNL     1       8.122  -4.329   4.630  0.00  0.00    +0.149 A 
ENDROOT
BRANCH   4   7
ATOM      7  N   UNL     1       9.533  -5.836   7.677  0.00  0.00    -0.210 N 
ATOM      8  C   UNL     1      10.675  -5.113   7.926  0.00  0.00    +0.231 C 
ATOM      9  O   UNL     1      10.976  -4.025   7.484  0.00  0.00    -0.274 OA
ATOM     10  C   UNL     1      11.468  -5.973   8.872  0.00  0.00    +0.095 C 
ATOM     11  C   UNL     1      12.267  -5.387  10.041  0.00  0.00    +0.025 C 
ATOM     12  C   UNL     1      12.276  -6.735  10.896  0.00  0.00    +0.016 C 
ATOM     13  C   UNL     1      10.700  -6.748  11.064  0.00  0.00    +0.025 C 
ATOM     14  C   UNL     1      10.186  -6.419   9.687  0.00  0.00    +0.095 C 
ATOM     15  C   UNL     1       9.320  -6.832   8.616  0.00  0.00    +0.231 C 
ATOM     16  O   UNL     1       8.594  -7.801   8.552  0.00  0.00    -0.274 OA
ATOM     17  C   UNL     1      10.573  -5.317  11.675  0.00  0.00    -0.027 C 
ATOM     18  C   UNL     1      11.431  -4.549  10.989  0.00  0.00    -0.027 C 
ENDBRANCH   4   7
BRANCH   1  22
ATOM     19  N   UNL     1       5.087  -3.681   1.066  0.00  0.00    +0.384 N 
ATOM     20  C   UNL     1       5.066  -2.929   2.326  0.00  0.00    -0.059 C 
ATOM     21  C   UNL     1       5.006  -3.908   3.503  0.00  0.00    +0.086 C 
ATOM     22  N   UNL     1       6.125  -4.855   3.380  0.00  0.00    -0.332 N 
ATOM     23  C   UNL     1       6.319  -5.534   2.090  0.00  0.00    +0.086 C 
ATOM     24  C   UNL     1       6.317  -4.478   0.979  0.00  0.00    -0.059 C 
ATOM     25  H   UNL     1       4.287  -4.295   1.030  0.00  0.00    -0.081 HD
BRANCH  19  26
ATOM     26  C   UNL     1       5.033  -2.743  -0.063  0.00  0.00    -0.051 C 
BRANCH  26  28
ATOM     27  C   UNL     1       3.695  -0.685  -0.038  0.00  0.00    +0.002 C 
ATOM     28  C   UNL     1       3.716  -2.010  -0.046  0.00  0.00    -0.045 C 
BRANCH  27  32
ATOM     29  C   UNL     1      -0.017   1.379   0.010  0.00  0.00    +0.000 A 
ATOM     30  C   UNL     1       1.168   2.093   0.002  0.00  0.00    +0.001 A 
ATOM     31  C   UNL     1       2.377   1.429  -0.013  0.00  0.00    +0.008 A 
ATOM     32  C   UNL     1       2.403   0.034  -0.021  0.00  0.00    -0.025 A 
ATOM     33  C   UNL     1       1.204  -0.681  -0.013  0.00  0.00    +0.008 A 
ATOM     34  C   UNL     1       0.002  -0.004   0.002  0.00  0.00    +0.001 A 
ENDBRANCH  27  32
ENDBRANCH  26  28
ENDBRANCH  19  26
ENDBRANCH   1  22
BRANCH   6  35
ATOM     35  N   UNL     1       8.434  -3.245   3.671  0.00  0.00    +0.058 N 
ATOM     36  O   UNL     1       9.427  -2.573   3.821  0.00  0.00    -0.126 OA
ATOM     37  O   UNL     1       7.694  -3.031   2.739  0.00  0.00    -0.126 OA
ENDBRANCH   6  35
TORSDOF 6
