REMARK  Name = ZINC36531036
REMARK  13 active torsions:
REMARK  status: ('A' for Active; 'I' for Inactive)
REMARK    1  A    between atoms: C_1  and  C_2
REMARK    2  A    between atoms: C_5  and  S_8
REMARK    3  A    between atoms: S_8  and  C_11
REMARK    4  A    between atoms: C_11  and  N_12
REMARK    5  A    between atoms: C_13  and  C_15
REMARK    6  A    between atoms: C_15  and  C_17
REMARK    7  A    between atoms: C_15  and  N_26
REMARK    8  A    between atoms: C_17  and  C_19
REMARK    9  A    between atoms: C_17  and  C_20
REMARK   10  A    between atoms: N_26  and  C_27
REMARK   11  A    between atoms: C_28  and  C_30
REMARK   12  A    between atoms: C_31  and  O_37
REMARK   13  A    between atoms: C_35  and  O_36
REMARK                            x       y       z     vdW  Elec       q    Type
REMARK                         _______ _______ _______ _____ _____    ______ ____
ROOT
ATOM      1  C   UNL     1       3.268  -5.036   3.562  0.00  0.00    +0.169 C 
ENDROOT
BRANCH   1   3
ATOM      2  N   UNL     1       2.984  -4.915   1.107  0.00  0.00    -0.295 N 
ATOM      3  C   UNL     1       2.581  -5.439   2.282  0.00  0.00    +0.235 C 
ATOM      4  O   UNL     1       1.667  -6.235   2.309  0.00  0.00    -0.274 OA
ATOM      5  H   UNL     1       3.662  -4.221   1.093  0.00  0.00    +0.150 HD
BRANCH   2   6
ATOM      6  C   UNL     1       2.398  -5.393  -0.147  0.00  0.00    +0.278 C 
BRANCH   6   7
ATOM      7  S   UNL     1       1.027  -4.306  -0.627  0.00  0.00    +0.013 S 
ATOM      8  O   UNL     1       0.177  -4.071   0.486  0.00  0.00    -0.168 OA
ATOM      9  O   UNL     1       0.489  -4.720  -1.876  0.00  0.00    -0.168 OA
BRANCH   7  14
ATOM     10  C   UNL     1       3.600   1.034  -1.756  0.00  0.00    +0.044 C 
ATOM     11  C   UNL     1       2.958  -0.300  -1.474  0.00  0.00    -0.050 A 
ATOM     12  C   UNL     1       2.815  -1.227  -2.490  0.00  0.00    +0.005 A 
ATOM     13  C   UNL     1       2.226  -2.451  -2.231  0.00  0.00    +0.027 A 
ATOM     14  C   UNL     1       1.780  -2.747  -0.957  0.00  0.00    +0.090 A 
ATOM     15  C   UNL     1       1.923  -1.821   0.059  0.00  0.00    +0.027 A 
ATOM     16  C   UNL     1       2.516  -0.599  -0.199  0.00  0.00    +0.005 A 
ENDBRANCH   7  14
ENDBRANCH   6   7
ENDBRANCH   2   6
ENDBRANCH   1   3
BRANCH   1  17
ATOM     17  N   UNL     1       3.365  -6.197   4.450  0.00  0.00    -0.288 N 
ATOM     18  C   UNL     1       2.150  -6.879   4.900  0.00  0.00    +0.133 C 
ATOM     19  C   UNL     1       4.574  -6.637   4.853  0.00  0.00    +0.254 C 
ATOM     20  O   UNL     1       5.583  -6.070   4.479  0.00  0.00    -0.270 OA
BRANCH  19  21
ATOM     21  C   UNL     1       4.672  -7.804   5.745  0.00  0.00    +0.119 A 
ATOM     22  C   UNL     1       4.780  -9.096   5.210  0.00  0.00    +0.133 A 
ATOM     23  C   UNL     1       4.872 -10.187   6.059  0.00  0.00    +0.046 A 
ATOM     24  C   UNL     1       4.859 -10.005   7.430  0.00  0.00    +0.007 A 
ATOM     25  C   UNL     1       4.753  -8.736   7.968  0.00  0.00    +0.046 A 
ATOM     26  C   UNL     1       4.665  -7.631   7.137  0.00  0.00    +0.133 A 
BRANCH  26  27
ATOM     27  O   UNL     1       4.567  -6.386   7.668  0.00  0.00    -0.506 OA
ATOM     28  H   UNL     1       3.658  -6.096   7.826  0.00  0.00    +0.292 HD
ENDBRANCH  26  27
BRANCH  22  29
ATOM     29  O   UNL     1       4.793  -9.276   3.866  0.00  0.00    -0.506 OA
ATOM     30  H   UNL     1       5.677  -9.255   3.474  0.00  0.00    +0.292 HD
ENDBRANCH  22  29
ENDBRANCH  19  21
ENDBRANCH   1  17
BRANCH   1  31
ATOM     31  C   UNL     1       2.458  -3.934   4.249  0.00  0.00    +0.045 C 
ATOM     32  C   UNL     1       2.314  -2.741   3.303  0.00  0.00    +0.015 C 
BRANCH  31  33
ATOM     33  C   UNL     1       3.170  -3.497   5.504  0.00  0.00    -0.042 A 
ATOM     34  C   UNL     1       4.445  -2.970   5.427  0.00  0.00    +0.004 A 
ATOM     35  C   UNL     1       5.098  -2.569   6.578  0.00  0.00    +0.000 A 
ATOM     36  C   UNL     1       4.474  -2.695   7.806  0.00  0.00    +0.000 A 
ATOM     37  C   UNL     1       3.199  -3.222   7.882  0.00  0.00    +0.000 A 
ATOM     38  C   UNL     1       2.545  -3.619   6.731  0.00  0.00    +0.004 A 
ENDBRANCH  31  33
ENDBRANCH   1  31
TORSDOF 10
