REMARK  Name = ZINC09096994
REMARK  10 active torsions:
REMARK  status: ('A' for Active; 'I' for Inactive)
REMARK    1  A    between atoms: C_1  and  O_2
REMARK    2  A    between atoms: O_2  and  C_3
REMARK    3  A    between atoms: C_8  and  N_9
REMARK    4  A    between atoms: N_9  and  S_10
REMARK    5  A    between atoms: S_10  and  C_13
REMARK    6  A    between atoms: C_15  and  N_32
REMARK    7  A    between atoms: C_18  and  N_19
REMARK    8  A    between atoms: N_19  and  N_20
REMARK    9  A    between atoms: C_21  and  C_22
REMARK   10  A    between atoms: C_27  and  C_28
REMARK                            x       y       z     vdW  Elec       q    Type
REMARK                         _______ _______ _______ _____ _____    ______ ____
ROOT
ATOM      1  C   UNL     1       1.692   2.444   1.525  0.00  0.00    +0.133 A 
ATOM      2  C   UNL     1       2.782   2.062   2.283  0.00  0.00    +0.063 A 
ATOM      3  C   UNL     1       3.004   2.641   3.518  0.00  0.00    +0.128 A 
ATOM      4  C   UNL     1       2.131   3.598   4.004  0.00  0.00    +0.035 A 
ATOM      5  C   UNL     1       1.037   3.981   3.255  0.00  0.00    +0.029 A 
ATOM      6  C   UNL     1       0.813   3.404   2.010  0.00  0.00    +0.075 A 
ENDROOT
BRANCH   1   7
ATOM      7  S   UNL     1       1.413   1.709  -0.052  0.00  0.00    +0.074 S 
ATOM      8  O   UNL     1       0.053   1.298  -0.074  0.00  0.00    -0.150 OA
ATOM      9  O   UNL     1       2.486   0.803  -0.274  0.00  0.00    -0.150 OA
BRANCH   7  10
ATOM     10  N   UNL     1       1.564   2.907  -1.185  0.00  0.00    -0.213 N 
ATOM     11  H   UNL     1       0.815   3.127  -1.761  0.00  0.00    +0.174 HD
BRANCH  10  17
ATOM     12  C   UNL     1       2.770   4.958  -1.628  0.00  0.00    +0.142 A 
ATOM     13  C   UNL     1       3.969   5.639  -1.754  0.00  0.00    +0.047 A 
ATOM     14  C   UNL     1       5.166   4.972  -1.568  0.00  0.00    +0.004 A 
ATOM     15  C   UNL     1       5.170   3.625  -1.256  0.00  0.00    +0.002 A 
ATOM     16  C   UNL     1       3.978   2.939  -1.123  0.00  0.00    +0.028 A 
ATOM     17  C   UNL     1       2.773   3.601  -1.313  0.00  0.00    +0.090 A 
BRANCH  12  19
ATOM     18  C   UNL     1       1.665   7.003  -2.130  0.00  0.00    +0.277 C 
ATOM     19  O   UNL     1       1.592   5.613  -1.810  0.00  0.00    -0.493 OA
ENDBRANCH  12  19
ENDBRANCH  10  17
ENDBRANCH   7  10
ENDBRANCH   1   7
BRANCH   3  20
ATOM     20  N   UNL     1       4.176   2.233   4.325  0.00  0.00    +0.056 N 
ATOM     21  O   UNL     1       4.370   2.739   5.416  0.00  0.00    -0.126 OA
ATOM     22  O   UNL     1       4.945   1.391   3.899  0.00  0.00    -0.126 OA
ENDBRANCH   3  20
BRANCH   6  23
ATOM     23  N   UNL     1      -0.292   3.788   1.250  0.00  0.00    -0.236 N 
ATOM     24  H   UNL     1      -0.404   3.446   0.349  0.00  0.00    +0.174 HD
BRANCH  23  25
ATOM     25  N   UNL     1      -1.240   4.669   1.787  0.00  0.00    -0.190 NA
ATOM     26  C   UNL     1      -2.316   4.952   1.118  0.00  0.00    +0.138 C 
BRANCH  26  27
ATOM     27  C   UNL     1      -3.260   5.961   1.632  0.00  0.00    +0.006 A 
ATOM     28  C   UNL     1      -4.416   6.272   0.911  0.00  0.00    +0.010 A 
ATOM     29  C   UNL     1      -5.298   7.213   1.401  0.00  0.00    +0.001 A 
ATOM     30  C   UNL     1      -5.033   7.857   2.597  0.00  0.00    +0.001 A 
ATOM     31  C   UNL     1      -3.888   7.557   3.314  0.00  0.00    +0.013 A 
ATOM     32  C   UNL     1      -3.001   6.614   2.839  0.00  0.00    +0.063 A 
BRANCH  32  33
ATOM     33  C   UNL     1      -1.754   6.289   3.621  0.00  0.00    +0.418 C 
ATOM     34  F   UNL     1      -1.717   7.066   4.784  0.00  0.00    -0.166 F 
ATOM     35  F   UNL     1      -1.760   4.933   3.966  0.00  0.00    -0.166 F 
ATOM     36  F   UNL     1      -0.628   6.566   2.839  0.00  0.00    -0.166 F 
ENDBRANCH  32  33
ENDBRANCH  26  27
ENDBRANCH  23  25
ENDBRANCH   6  23
TORSDOF 9
