REMARK  Name = ZINC39966184
REMARK  10 active torsions:
REMARK  status: ('A' for Active; 'I' for Inactive)
REMARK    1  A    between atoms: C_1  and  C_2
REMARK    2  A    between atoms: C_2  and  O_3
REMARK    3  A    between atoms: O_3  and  C_4
REMARK    4  A    between atoms: C_4  and  C_6
REMARK    5  A    between atoms: C_10  and  N_11
REMARK    6  A    between atoms: C_12  and  C_14
REMARK    7  A    between atoms: C_14  and  S_15
REMARK    8  A    between atoms: S_15  and  C_16
REMARK    9  A    between atoms: C_19  and  C_22
REMARK   10  A    between atoms: N_20  and  C_21
REMARK                            x       y       z     vdW  Elec       q    Type
REMARK                         _______ _______ _______ _____ _____    ______ ____
ROOT
ATOM      1  C   UNL     1      -2.584  -2.552  -5.398  0.00  0.00    +0.173 C 
ENDROOT
BRANCH   1   3
ATOM      2  N   UNL     1      -0.598  -2.412  -3.931  0.00  0.00    -0.279 N 
ATOM      3  C   UNL     1      -1.099  -2.646  -5.160  0.00  0.00    +0.228 C 
ATOM      4  O   UNL     1      -0.355  -2.931  -6.074  0.00  0.00    -0.275 OA
ATOM      5  H   UNL     1      -1.193  -2.183  -3.200  0.00  0.00    +0.155 HD
BRANCH   2  10
ATOM      6  C   UNL     1       1.454  -2.293  -2.528  0.00  0.00    +0.091 A 
ATOM      7  C   UNL     1       2.907  -2.453  -2.561  0.00  0.00    -0.021 A 
ATOM      8  C   UNL     1       3.396  -2.779  -3.770  0.00  0.00    -0.004 A 
ATOM      9  S   UNL     1       1.969  -2.871  -4.821  0.00  0.00    -0.077 S 
ATOM     10  C   UNL     1       0.768  -2.498  -3.712  0.00  0.00    +0.086 A 
ATOM     11  C   UNL     1       4.894  -2.926  -3.749  0.00  0.00    +0.043 C 
ATOM     12  C   UNL     1       5.336  -2.227  -2.444  0.00  0.00    +0.010 C 
ATOM     13  C   UNL     1       4.069  -2.353  -1.574  0.00  0.00    +0.037 C 
BRANCH   6  14
ATOM     14  C   UNL     1       0.754  -1.937  -1.292  0.00  0.00    +0.342 C 
ATOM     15  O   UNL     1       0.360  -2.811  -0.543  0.00  0.00    -0.245 OA
BRANCH  14  16
ATOM     16  O   UNL     1       0.545  -0.640  -0.985  0.00  0.00    -0.461 OA
BRANCH  16  18
ATOM     17  C   UNL     1      -0.286   1.147   0.413  0.00  0.00    +0.048 C 
ATOM     18  C   UNL     1      -0.145  -0.366   0.236  0.00  0.00    +0.229 C 
ENDBRANCH  16  18
ENDBRANCH  14  16
ENDBRANCH   6  14
ENDBRANCH   2  10
ENDBRANCH   1   3
BRANCH   1  19
ATOM     19  S   UNL     1      -2.942  -2.918  -7.139  0.00  0.00    -0.077 S 
BRANCH  19  20
ATOM     20  C   UNL     1      -4.694  -2.770  -7.255  0.00  0.00    +0.192 A 
ATOM     21  N   UNL     1      -5.515  -2.457  -6.280  0.00  0.00    -0.122 NA
ATOM     22  N   UNL     1      -6.725  -2.437  -6.710  0.00  0.00    -0.128 NA
ATOM     23  C   UNL     1      -6.752  -2.737  -7.988  0.00  0.00    +0.165 A 
ATOM     24  N   UNL     1      -5.451  -2.954  -8.379  0.00  0.00    -0.305 N 
ATOM     25  C   UNL     1      -4.976  -3.311  -9.718  0.00  0.00    +0.153 C 
BRANCH  23  26
ATOM     26  C   UNL     1      -7.953  -2.820  -8.847  0.00  0.00    +0.030 A 
ATOM     27  C   UNL     1      -8.141  -3.899  -9.659  0.00  0.00    +0.057 A 
ATOM     28  S   UNL     1      -9.694  -3.499 -10.445  0.00  0.00    -0.101 S 
ATOM     29  C   UNL     1      -9.983  -1.944  -9.640  0.00  0.00    -0.006 A 
ATOM     30  C   UNL     1      -8.911  -1.786  -8.826  0.00  0.00    -0.026 A 
ATOM     31  C   UNL     1      -8.738  -0.551  -7.946  0.00  0.00    +0.036 C 
ATOM     32  C   UNL     1     -10.099   0.048  -7.617  0.00  0.00    +0.005 C 
ATOM     33  C   UNL     1     -10.508   1.073  -8.673  0.00  0.00    +0.001 C 
ATOM     34  C   UNL     1     -10.654   0.397 -10.032  0.00  0.00    +0.005 C 
ATOM     35  C   UNL     1     -11.153  -1.031  -9.815  0.00  0.00    +0.043 C 
ENDBRANCH  23  26
ENDBRANCH  19  20
ENDBRANCH   1  19
TORSDOF 8
