REMARK  Name = ZINC40053620
REMARK  19 active torsions:
REMARK  status: ('A' for Active; 'I' for Inactive)
REMARK    1  A    between atoms: C_1  and  C_2
REMARK    2  A    between atoms: C_2  and  O_3
REMARK    3  A    between atoms: O_3  and  C_4
REMARK    4  A    between atoms: C_6  and  C_16
REMARK    5  A    between atoms: C_9  and  O_10
REMARK    6  A    between atoms: O_10  and  C_11
REMARK    7  A    between atoms: C_11  and  C_12
REMARK    8  A    between atoms: C_12  and  C_13
REMARK    9  A    between atoms: C_13  and  C_14
REMARK   10  A    between atoms: C_13  and  C_15
REMARK   11  A    between atoms: C_18  and  C_28
REMARK   12  A    between atoms: N_22  and  C_23
REMARK   13  A    between atoms: C_23  and  C_24
REMARK   14  A    between atoms: C_24  and  C_25
REMARK   15  A    between atoms: C_25  and  O_26
REMARK   16  A    between atoms: C_28  and  C_30
REMARK   17  A    between atoms: C_33  and  O_36
REMARK   18  A    between atoms: O_36  and  C_37
REMARK   19  A    between atoms: C_37  and  C_38
REMARK                            x       y       z     vdW  Elec       q    Type
REMARK                         _______ _______ _______ _____ _____    ______ ____
ROOT
ATOM      1  C   UNL     1      -0.361  -4.935  -0.305  0.00  0.00    +0.145 C 
ATOM      2  C   UNL     1      -1.792  -5.339  -0.033  0.00  0.00    +0.076 C 
ATOM      3  C   UNL     1      -1.812  -6.691   0.023  0.00  0.00    +0.249 C 
ATOM      4  C   UNL     1      -0.445  -7.207  -0.201  0.00  0.00    +0.288 C 
ATOM      5  O   UNL     1      -0.136  -8.382  -0.211  0.00  0.00    -0.266 OA
ATOM      6  N   UNL     1       0.407  -6.182  -0.395  0.00  0.00    -0.283 N 
ATOM      7  O   UNL     1      -2.909  -7.449   0.250  0.00  0.00    -0.282 OA
ENDROOT
BRANCH   1  10
ATOM      8  C   UNL     1       0.916  -1.964   1.646  0.00  0.00    +0.162 A 
ATOM      9  C   UNL     1       0.436  -2.747   0.609  0.00  0.00    +0.055 A 
ATOM     10  C   UNL     1       0.161  -4.085   0.824  0.00  0.00    -0.019 A 
ATOM     11  C   UNL     1       0.363  -4.644   2.072  0.00  0.00    +0.009 A 
ATOM     12  C   UNL     1       0.842  -3.868   3.111  0.00  0.00    +0.050 A 
ATOM     13  C   UNL     1       1.125  -2.527   2.901  0.00  0.00    +0.162 A 
BRANCH  13  14
ATOM     14  O   UNL     1       1.602  -1.764   3.921  0.00  0.00    -0.488 OA
BRANCH  14  15
ATOM     15  C   UNL     1       1.792  -2.410   5.181  0.00  0.00    +0.229 C 
BRANCH  15  16
ATOM     16  C   UNL     1       2.329  -1.399   6.197  0.00  0.00    +0.044 C 
BRANCH  16  17
ATOM     17  C   UNL     1       2.532  -2.091   7.546  0.00  0.00    -0.014 C 
ATOM     18  C   UNL     1       3.625  -3.154   7.415  0.00  0.00    +0.007 C 
ATOM     19  C   UNL     1       2.950  -1.056   8.592  0.00  0.00    +0.007 C 
ENDBRANCH  16  17
ENDBRANCH  15  16
ENDBRANCH  14  15
ENDBRANCH  13  14
BRANCH   8  20
ATOM     20  O   UNL     1       1.188  -0.647   1.437  0.00  0.00    -0.489 OA
BRANCH  20  22
ATOM     21  C   UNL     1       1.111   1.397   0.150  0.00  0.00    +0.048 C 
ATOM     22  C   UNL     1       0.847  -0.110   0.158  0.00  0.00    +0.226 C 
ENDBRANCH  20  22
ENDBRANCH   8  20
ENDBRANCH   1  10
BRANCH   2  23
ATOM     23  C   UNL     1      -2.937  -4.439   0.137  0.00  0.00    +0.195 C 
ATOM     24  O   UNL     1      -3.569  -4.449   1.176  0.00  0.00    -0.287 OA
BRANCH  23  25
ATOM     25  C   UNL     1      -3.323  -3.522  -0.954  0.00  0.00    +0.022 A 
ATOM     26  C   UNL     1      -2.678  -3.594  -2.192  0.00  0.00    +0.015 A 
ATOM     27  C   UNL     1      -3.041  -2.737  -3.206  0.00  0.00    +0.046 A 
ATOM     28  C   UNL     1      -4.047  -1.799  -3.000  0.00  0.00    +0.121 A 
ATOM     29  C   UNL     1      -4.690  -1.723  -1.769  0.00  0.00    +0.046 A 
ATOM     30  C   UNL     1      -4.338  -2.581  -0.752  0.00  0.00    +0.015 A 
BRANCH  28  31
ATOM     31  O   UNL     1      -4.402  -0.956  -4.002  0.00  0.00    -0.488 OA
BRANCH  31  32
ATOM     32  C   UNL     1      -5.442  -0.017  -3.722  0.00  0.00    +0.256 C 
BRANCH  32  33
ATOM     33  C   UNL     1      -5.698   0.828  -4.943  0.00  0.00    +0.006 C 
ATOM     34  C   UNL     1      -6.926   1.065  -5.330  0.00  0.00    +0.007 C 
ENDBRANCH  32  33
ENDBRANCH  31  32
ENDBRANCH  28  31
ENDBRANCH  23  25
ENDBRANCH   2  23
BRANCH   6  35
ATOM     35  C   UNL     1       1.846  -6.292  -0.649  0.00  0.00    +0.111 C 
BRANCH  35  36
ATOM     36  C   UNL     1       2.602  -6.275   0.681  0.00  0.00    +0.047 C 
BRANCH  36  37
ATOM     37  C   UNL     1       4.104  -6.389   0.415  0.00  0.00    +0.157 C 
BRANCH  37  38
ATOM     38  O   UNL     1       4.810  -6.373   1.657  0.00  0.00    -0.395 OA
ATOM     39  H   UNL     1       5.770  -6.443   1.565  0.00  0.00    +0.209 HD
ENDBRANCH  37  38
ENDBRANCH  36  37
ENDBRANCH  35  36
ENDBRANCH   6  35
TORSDOF 16
