REMARK  Name = ZINC16010163
REMARK  5 active torsions:
REMARK  status: ('A' for Active; 'I' for Inactive)
REMARK    1  A    between atoms: C_1  and  C_2
REMARK    2  A    between atoms: N_23  and  C_26
REMARK    3  A    between atoms: C_28  and  N_34
REMARK    4  A    between atoms: C_31  and  O_32
REMARK    5  A    between atoms: O_32  and  C_33
REMARK                            x       y       z     vdW  Elec       q    Type
REMARK                         _______ _______ _______ _____ _____    ______ ____
ROOT
ATOM      1  C   UNL     1       1.388   0.123   6.860  0.00  0.00    +0.046 C 
ATOM      2  C   UNL     1       1.519   1.046   5.676  0.00  0.00    -0.028 A 
ATOM      3  C   UNL     1       1.993   2.328   5.867  0.00  0.00    +0.025 A 
ATOM      4  C   UNL     1       2.083   3.166   4.817  0.00  0.00    +0.042 A 
ATOM      5  C   UNL     1       1.704   2.688   3.529  0.00  0.00    +0.024 A 
ATOM      6  C   UNL     1       1.195   1.416   3.318  0.00  0.00    -0.026 A 
ATOM      7  C   UNL     1       1.168   0.600   4.441  0.00  0.00    +0.039 A 
ATOM      8  N   UNL     1       0.659  -0.686   4.040  0.00  0.00    -0.286 N 
ATOM      9  C   UNL     1       0.374  -0.675   2.648  0.00  0.00    +0.212 C 
ATOM     10  O   UNL     1      -0.094  -1.592   2.006  0.00  0.00    -0.277 OA
ATOM     11  C   UNL     1       0.759   0.688   2.112  0.00  0.00    +0.053 C 
ATOM     12  C   UNL     1      -0.436   1.411   1.478  0.00  0.00    +0.089 C 
ATOM     13  C   UNL     1      -0.013   1.086   0.008  0.00  0.00    +0.074 C 
ATOM     14  C   UNL     1       1.430   1.392  -0.004  0.00  0.00    -0.054 C 
ATOM     15  C   UNL     1       1.881  -0.818   0.681  0.00  0.00    -0.076 C 
ATOM     16  C   UNL     1       2.450  -0.728  -0.792  0.00  0.00    -0.020 C 
ATOM     17  C   UNL     1       2.084   0.695  -1.293  0.00  0.00    -0.016 C 
ATOM     18  C   UNL     1      -1.259   1.354  -0.703  0.00  0.00    +0.229 C 
ATOM     19  O   UNL     1      -1.382   1.834  -1.809  0.00  0.00    -0.275 OA
ATOM     20  N   UNL     1      -2.303   0.936   0.148  0.00  0.00    -0.206 N 
ATOM     21  C   UNL     1      -1.780   0.678   1.430  0.00  0.00    +0.230 C 
ATOM     22  O   UNL     1      -2.286   0.015   2.310  0.00  0.00    -0.275 OA
ATOM     23 CL   UNL     1       2.647   4.794   5.029  0.00  0.00    -0.084 Cl
ATOM     24  H   UNL     1       0.531  -1.444   4.631  0.00  0.00    +0.155 HD
ATOM     25  N   UNL     1       1.808   0.546   1.100  0.00  0.00    +0.395 N 
ATOM     26  H   UNL     1       2.715   0.841   1.480  0.00  0.00    -0.079 HD
ENDROOT
BRANCH  20  27
ATOM     27  C   UNL     1      -3.651   0.802  -0.219  0.00  0.00    +0.088 A 
ATOM     28  C   UNL     1      -4.518   1.876  -0.086  0.00  0.00    +0.060 A 
ATOM     29  C   UNL     1      -5.844   1.744  -0.453  0.00  0.00    +0.128 A 
ATOM     30  C   UNL     1      -6.311   0.539  -0.945  0.00  0.00    +0.036 A 
ATOM     31  C   UNL     1      -5.455  -0.538  -1.076  0.00  0.00    +0.050 A 
ATOM     32  C   UNL     1      -4.123  -0.411  -0.714  0.00  0.00    +0.142 A 
BRANCH  29  33
ATOM     33  N   UNL     1      -6.766   2.893  -0.315  0.00  0.00    +0.056 N 
ATOM     34  O   UNL     1      -7.936   2.777  -0.634  0.00  0.00    -0.126 OA
ATOM     35  O   UNL     1      -6.356   3.955   0.117  0.00  0.00    -0.126 OA
ENDBRANCH  29  33
BRANCH  32  36
ATOM     36  O   UNL     1      -3.279  -1.470  -0.842  0.00  0.00    -0.493 OA
ATOM     37  C   UNL     1      -3.832  -2.682  -1.357  0.00  0.00    +0.277 C 
ENDBRANCH  32  36
ENDBRANCH  20  27
TORSDOF 3
