REMARK  Name = ZINC20069826
REMARK  6 active torsions:
REMARK  status: ('A' for Active; 'I' for Inactive)
REMARK    1  A    between atoms: C_1  and  C_2
REMARK    2  A    between atoms: C_5  and  N_9
REMARK    3  A    between atoms: C_7  and  C_8
REMARK    4  A    between atoms: C_18  and  C_22
REMARK    5  A    between atoms: C_18  and  N_26
REMARK    6  A    between atoms: C_27  and  C_29
REMARK                            x       y       z     vdW  Elec       q    Type
REMARK                         _______ _______ _______ _____ _____    ______ ____
ROOT
ATOM      1  N   UNL     1      -2.476   4.974   1.478  0.00  0.00    -0.249 N 
ATOM      2  C   UNL     1      -2.160   3.630   1.483  0.00  0.00    +0.125 A 
ATOM      3  C   UNL     1      -0.841   3.275   1.534  0.00  0.00    +0.097 A 
ATOM      4  C   UNL     1       0.156   4.257   1.580  0.00  0.00    +0.262 A 
ATOM      5  O   UNL     1       1.332   3.939   1.625  0.00  0.00    -0.267 OA
ATOM      6  N   UNL     1      -0.198   5.559   1.574  0.00  0.00    -0.274 N 
ATOM      7  H   UNL     1       0.576   6.340   1.609  0.00  0.00    +0.173 HD
ATOM      8  C   UNL     1      -1.497   5.906   1.525  0.00  0.00    +0.335 A 
ATOM      9  O   UNL     1      -1.799   7.084   1.520  0.00  0.00    -0.246 OA
ATOM     10  C   UNL     1      -0.805   1.765   1.526  0.00  0.00    +0.240 C 
ATOM     11  C   UNL     1      -2.267   1.372   1.468  0.00  0.00    +0.256 C 
ATOM     12  O   UNL     1      -2.717   0.246   1.446  0.00  0.00    -0.272 OA
ATOM     13  N   UNL     1      -2.968   2.520   1.447  0.00  0.00    -0.269 N 
ATOM     14  H   UNL     1      -4.061   2.636   1.405  0.00  0.00    +0.156 HD
ENDROOT
BRANCH   1  19
ATOM     15  C   UNL     1      -7.914   6.584   1.274  0.00  0.00    +0.044 C 
ATOM     16  C   UNL     1      -6.470   6.157   1.328  0.00  0.00    -0.047 A 
ATOM     17  C   UNL     1      -5.732   6.361   2.480  0.00  0.00    +0.005 A 
ATOM     18  C   UNL     1      -4.410   5.965   2.535  0.00  0.00    +0.026 A 
ATOM     19  C   UNL     1      -3.819   5.372   1.427  0.00  0.00    +0.053 A 
ATOM     20  C   UNL     1      -4.562   5.168   0.273  0.00  0.00    +0.030 A 
ATOM     21  C   UNL     1      -5.885   5.561   0.226  0.00  0.00    -0.046 A 
ATOM     22  C   UNL     1      -6.692   5.340  -1.027  0.00  0.00    +0.044 C 
ENDBRANCH   1  19
BRANCH  10  23
ATOM     23  C   UNL     1      -0.059   1.250   0.293  0.00  0.00    +0.424 C 
ATOM     24  F   UNL     1      -0.159  -0.144   0.236  0.00  0.00    -0.167 F 
ATOM     25  F   UNL     1       1.288   1.618   0.375  0.00  0.00    -0.167 F 
ATOM     26  F   UNL     1      -0.625   1.806  -0.859  0.00  0.00    -0.167 F 
ENDBRANCH  10  23
BRANCH  10  27
ATOM     27  N   UNL     1      -0.183   1.258   2.752  0.00  0.00    -0.287 N 
ATOM     28  C   UNL     1      -0.701   1.580   3.954  0.00  0.00    +0.238 C 
ATOM     29  O   UNL     1      -1.736   2.215   4.019  0.00  0.00    -0.271 OA
ATOM     30  H   UNL     1       0.707   0.613   2.691  0.00  0.00    +0.151 HD
BRANCH  28  31
ATOM     31  C   UNL     1      -0.013   1.164   5.186  0.00  0.00    +0.059 C 
ATOM     32  C   UNL     1      -0.524   1.483   6.372  0.00  0.00    +0.013 C 
ENDBRANCH  28  31
ENDBRANCH  10  27
TORSDOF 4
