REMARK  Name = ZINC28155910
REMARK  8 active torsions:
REMARK  status: ('A' for Active; 'I' for Inactive)
REMARK    1  A    between atoms: C_1  and  C_2
REMARK    2  A    between atoms: C_2  and  C_3
REMARK    3  A    between atoms: C_6  and  C_9
REMARK    4  A    between atoms: C_12  and  C_32
REMARK    5  A    between atoms: C_19  and  C_22
REMARK    6  A    between atoms: C_22  and  C_23
REMARK    7  A    between atoms: N_25  and  C_26
REMARK    8  A    between atoms: C_35  and  C_38
REMARK                            x       y       z     vdW  Elec       q    Type
REMARK                         _______ _______ _______ _____ _____    ______ ____
ROOT
ATOM      1  C   UNL     1       0.090  -6.577  -0.720  0.00  0.00    +0.136 C 
ATOM      2  C   UNL     1       0.069  -5.141  -1.279  0.00  0.00    +0.087 C 
ATOM      3  C   UNL     1       0.081  -4.269  -0.044  0.00  0.00    +0.069 C 
ATOM      4  N   UNL     1       0.096  -5.013   1.008  0.00  0.00    -0.182 NA
ATOM      5  N   UNL     1       0.103  -6.380   0.738  0.00  0.00    -0.195 N 
ATOM      6  C   UNL     1       0.120  -7.374   1.674  0.00  0.00    +0.170 C 
ATOM      7  N   UNL     1       0.127  -8.686   1.476  0.00  0.00    -0.157 NA
ATOM      8  C   UNL     1       0.143  -9.575   2.432  0.00  0.00    +0.252 C 
ATOM      9  O   UNL     1       0.150 -10.770   2.208  0.00  0.00    -0.272 OA
ATOM     10  C   UNL     1       0.154  -9.010   3.847  0.00  0.00    +0.150 C 
ATOM     11  S   UNL     1       0.144  -7.214   3.454  0.00  0.00    -0.078 S 
ENDROOT
BRANCH   3  12
ATOM     12  C   UNL     1       0.070  -2.795  -0.043  0.00  0.00    -0.002 A 
ATOM     13  C   UNL     1       0.077  -2.093   1.165  0.00  0.00    +0.010 A 
ATOM     14  C   UNL     1       0.066  -0.714   1.158  0.00  0.00    +0.004 A 
ATOM     15  C   UNL     1       0.049  -0.025  -0.041  0.00  0.00    -0.050 A 
ATOM     16  C   UNL     1       0.036  -0.713  -1.242  0.00  0.00    +0.004 A 
ATOM     17  C   UNL     1       0.052  -2.092  -1.250  0.00  0.00    +0.010 A 
ATOM     18  C   UNL     1       0.036   1.482  -0.041  0.00  0.00    +0.044 C 
ENDBRANCH   3  12
BRANCH   1  22
ATOM     19  C   UNL     1       3.601  -8.655  -1.988  0.00  0.00    -0.048 A 
ATOM     20  C   UNL     1       2.382  -8.933  -2.578  0.00  0.00    +0.004 A 
ATOM     21  C   UNL     1       1.246  -8.261  -2.168  0.00  0.00    +0.006 A 
ATOM     22  C   UNL     1       1.329  -7.311  -1.167  0.00  0.00    -0.025 A 
ATOM     23  C   UNL     1       2.548  -7.029  -0.581  0.00  0.00    +0.006 A 
ATOM     24  C   UNL     1       3.683  -7.705  -0.987  0.00  0.00    +0.004 A 
BRANCH  19  26
ATOM     25  C   UNL     1       5.505  -8.617  -3.575  0.00  0.00    +0.009 C 
ATOM     26  C   UNL     1       4.839  -9.389  -2.434  0.00  0.00    +0.032 C 
ENDBRANCH  19  26
ENDBRANCH   1  22
BRANCH  10  27
ATOM     27  C   UNL     1       1.428  -9.406   4.596  0.00  0.00    +0.120 C 
BRANCH  27  28
ATOM     28  C   UNL     1       1.339  -8.932   6.024  0.00  0.00    +0.219 C 
ATOM     29  O   UNL     1       0.354  -8.335   6.404  0.00  0.00    -0.275 OA
ATOM     30  N   UNL     1       2.354  -9.170   6.878  0.00  0.00    -0.285 N 
ATOM     31  H   UNL     1       3.214  -9.776   6.555  0.00  0.00    +0.155 HD
BRANCH  30  32
ATOM     32  C   UNL     1       2.315  -8.646   8.175  0.00  0.00    +0.033 A 
ATOM     33  C   UNL     1       3.487  -8.233   8.794  0.00  0.00    +0.023 A 
ATOM     34  C   UNL     1       3.444  -7.713  10.073  0.00  0.00    +0.002 A 
ATOM     35  C   UNL     1       2.237  -7.612  10.740  0.00  0.00    +0.000 A 
ATOM     36  C   UNL     1       1.069  -8.027  10.128  0.00  0.00    +0.002 A 
ATOM     37  C   UNL     1       1.104  -8.544   8.848  0.00  0.00    +0.023 A 
ENDBRANCH  30  32
ENDBRANCH  27  28
ENDBRANCH  10  27
TORSDOF 6
