REMARK  Name = ZINC63869130
REMARK  7 active torsions:
REMARK  status: ('A' for Active; 'I' for Inactive)
REMARK    1  A    between atoms: C_1  and  C_2
REMARK    2  A    between atoms: C_6  and  C_13
REMARK    3  A    between atoms: C_8  and  C_12
REMARK    4  A    between atoms: N_15  and  C_16
REMARK    5  A    between atoms: C_16  and  C_17
REMARK    6  A    between atoms: C_18  and  C_24
REMARK    7  A    between atoms: C_21  and  C_23
REMARK                            x       y       z     vdW  Elec       q    Type
REMARK                         _______ _______ _______ _____ _____    ______ ____
ROOT
ATOM      1  C   UNL     1       0.054   1.503   0.010  0.00  0.00    +0.044 C 
ATOM      2  C   UNL     1       0.055  -0.004   0.002  0.00  0.00    -0.048 A 
ATOM      3  C   UNL     1       0.059  -0.683  -1.215  0.00  0.00    +0.004 A 
ATOM      4  C   UNL     1       0.060  -2.045  -1.255  0.00  0.00    +0.011 A 
ATOM      5  C   UNL     1       0.058  -2.773  -0.058  0.00  0.00    +0.013 A 
ATOM      6  C   UNL     1       0.059  -4.191  -0.057  0.00  0.00    +0.048 A 
ATOM      7  C   UNL     1       0.057  -4.837   1.173  0.00  0.00    +0.036 A 
ATOM      8  C   UNL     1       0.052  -4.084   2.345  0.00  0.00    +0.040 A 
ATOM      9  N   UNL     1       0.050  -2.775   2.326  0.00  0.00    -0.252 NA
ATOM     10  C   UNL     1       0.053  -2.087   1.182  0.00  0.00    +0.072 A 
ATOM     11  C   UNL     1       0.058  -0.680   1.183  0.00  0.00    +0.031 A 
ATOM     12  C   UNL     1       0.050  -4.798   3.672  0.00  0.00    +0.065 C 
ENDROOT
BRANCH   6  13
ATOM     13  C   UNL     1       0.064  -4.956  -1.322  0.00  0.00    +0.245 C 
ATOM     14  O   UNL     1      -0.042  -4.375  -2.384  0.00  0.00    -0.270 OA
ATOM     15  N   UNL     1       0.184  -6.299  -1.298  0.00  0.00    -0.307 N 
ATOM     16  H   UNL     1       0.268  -6.763  -0.450  0.00  0.00    +0.149 HD
BRANCH  15  17
ATOM     17  C   UNL     1       0.188  -7.057  -2.551  0.00  0.00    +0.139 C 
BRANCH  17  18
ATOM     18  C   UNL     1       0.333  -8.526  -2.249  0.00  0.00    -0.004 C 
ATOM     19  C   UNL     1      -0.632  -9.440  -2.127  0.00  0.00    +0.063 C 
ATOM     20  N   UNL     1      -0.110 -10.656  -1.852  0.00  0.00    -0.159 NA
ATOM     21  N   UNL     1       1.121 -10.678  -1.771  0.00  0.00    -0.180 NA
ATOM     22  C   UNL     1       1.612  -9.312  -2.019  0.00  0.00    +0.154 C 
ATOM     23  C   UNL     1       2.503  -9.272  -3.263  0.00  0.00    +0.039 C 
ATOM     24  C   UNL     1      -2.104  -9.155  -2.276  0.00  0.00    +0.067 C 
ENDBRANCH  17  18
ENDBRANCH  15  17
ENDBRANCH   6  13
TORSDOF 3
