REMARK  Name = ZINC39690722
REMARK  8 active torsions:
REMARK  status: ('A' for Active; 'I' for Inactive)
REMARK    1  A    between atoms: C_1  and  O_2
REMARK    2  A    between atoms: O_2  and  C_3
REMARK    3  A    between atoms: C_6  and  O_33
REMARK    4  A    between atoms: C_7  and  C_9
REMARK    5  A    between atoms: C_13  and  C_22
REMARK    6  A    between atoms: N_24  and  C_25
REMARK    7  A    between atoms: C_25  and  C_26
REMARK    8  A    between atoms: O_33  and  C_34
REMARK                            x       y       z     vdW  Elec       q    Type
REMARK                         _______ _______ _______ _____ _____    ______ ____
ROOT
ATOM      1  C   UNL     1      -2.673  -4.406   0.120  0.00  0.00    +0.250 C 
ATOM      2  O   UNL     1      -2.719  -3.194   0.032  0.00  0.00    -0.270 OA
ATOM      3  N   UNL     1      -1.481  -5.032   0.176  0.00  0.00    -0.296 N 
ATOM      4  C   UNL     1      -0.134  -4.418   0.246  0.00  0.00    +0.121 C 
ATOM      5  C   UNL     1       0.653  -5.313   1.229  0.00  0.00    +0.100 C 
ATOM      6  C   UNL     1      -0.064  -6.673   1.182  0.00  0.00    -0.004 C 
ATOM      7  C   UNL     1      -1.221  -6.492   0.189  0.00  0.00    +0.115 C 
ATOM      8  C   UNL     1      -0.611  -7.030   2.561  0.00  0.00    -0.010 C 
ATOM      9  C   UNL     1      -1.269  -8.412   2.501  0.00  0.00    -0.082 C 
ATOM     10  N   UNL     1      -0.281  -9.408   2.071  0.00  0.00    +0.379 N 
ATOM     11  C   UNL     1       0.172  -9.109   0.707  0.00  0.00    -0.082 C 
ATOM     12  C   UNL     1       0.890  -7.757   0.691  0.00  0.00    -0.010 C 
ATOM     13  H   UNL     1       0.510  -9.389   2.698  0.00  0.00    -0.086 HD
ATOM     14  H   UNL     1      -0.700 -10.326   2.091  0.00  0.00    -0.086 HD
ENDROOT
BRANCH   1  19
ATOM     15  C   UNL     1      -5.187  -7.133  -0.477  0.00  0.00    +0.121 A 
ATOM     16  C   UNL     1      -6.274  -6.663   0.251  0.00  0.00    +0.049 A 
ATOM     17  C   UNL     1      -6.191  -5.466   0.934  0.00  0.00    +0.050 A 
ATOM     18  C   UNL     1      -5.020  -4.723   0.897  0.00  0.00    +0.132 A 
ATOM     19  C   UNL     1      -3.921  -5.190   0.165  0.00  0.00    +0.082 A 
ATOM     20  C   UNL     1      -4.012  -6.406  -0.519  0.00  0.00    +0.062 A 
BRANCH  15  22
ATOM     21  C   UNL     1      -6.521  -9.013  -1.060  0.00  0.00    +0.277 C 
ATOM     22  O   UNL     1      -5.278  -8.313  -1.146  0.00  0.00    -0.495 OA
ENDBRANCH  15  22
BRANCH  18  23
ATOM     23  O   UNL     1      -4.940  -3.546   1.567  0.00  0.00    -0.494 OA
ATOM     24  C   UNL     1      -6.100  -3.132   2.292  0.00  0.00    +0.277 C 
ENDBRANCH  18  23
ENDBRANCH   1  19
BRANCH   5  25
ATOM     25  C   UNL     1       0.599  -4.737   2.621  0.00  0.00    +0.218 C 
ATOM     26  O   UNL     1      -0.365  -4.092   2.973  0.00  0.00    -0.275 OA
ATOM     27  N   UNL     1       1.623  -4.939   3.474  0.00  0.00    -0.311 N 
ATOM     28  H   UNL     1       2.394  -5.456   3.192  0.00  0.00    +0.149 HD
BRANCH  27  29
ATOM     29  C   UNL     1       1.571  -4.380   4.827  0.00  0.00    +0.140 C 
BRANCH  29  30
ATOM     30  C   UNL     1       2.828  -4.747   5.571  0.00  0.00    -0.016 A 
ATOM     31  C   UNL     1       2.819  -5.803   6.464  0.00  0.00    +0.006 A 
ATOM     32  C   UNL     1       3.973  -6.141   7.147  0.00  0.00    +0.000 A 
ATOM     33  C   UNL     1       5.136  -5.423   6.937  0.00  0.00    +0.001 A 
ATOM     34  C   UNL     1       5.146  -4.368   6.045  0.00  0.00    +0.015 A 
ATOM     35  C   UNL     1       3.993  -4.032   5.358  0.00  0.00    +0.023 A 
ATOM     36 BR   UNL     1       4.007  -2.593   4.132  0.00  0.00    -0.050 Br
ENDBRANCH  29  30
ENDBRANCH  27  29
ENDBRANCH   5  25
TORSDOF 6
