REMARK  Name = ZINC14990181
REMARK  12 active torsions:
REMARK  status: ('A' for Active; 'I' for Inactive)
REMARK    1  A    between atoms: C_1  and  C_2
REMARK    2  A    between atoms: C_3  and  C_10
REMARK    3  A    between atoms: C_4  and  C_8
REMARK    4  A    between atoms: C_4  and  C_9
REMARK    5  A    between atoms: C_10  and  C_11
REMARK    6  A    between atoms: C_11  and  N_70
REMARK    7  A    between atoms: C_17  and  C_21
REMARK    8  A    between atoms: C_21  and  N_22
REMARK    9  A    between atoms: C_23  and  C_25
REMARK   10  A    between atoms: C_28  and  C_30
REMARK   11  A    between atoms: C_30  and  O_31
REMARK   12  A    between atoms: O_31  and  C_32
REMARK                            x       y       z     vdW  Elec       q    Type
REMARK                         _______ _______ _______ _____ _____    ______ ____
ROOT
ATOM      1  C   UNL     1       5.263   5.019  -2.619  0.00  0.00    -0.071 C 
ATOM      2  C   UNL     1       6.066   4.327  -1.513  0.00  0.00    +0.058 C 
ATOM      3  C   UNL     1       5.121   3.538  -0.645  0.00  0.00    +0.132 A 
ATOM      4  N   UNL     1       5.077   3.497   0.654  0.00  0.00    -0.134 NA
ATOM      5  N   UNL     1       4.147   2.689   1.029  0.00  0.00    -0.133 NA
ATOM      6  C   UNL     1       3.554   2.182  -0.020  0.00  0.00    +0.151 A 
ATOM      7  N   UNL     1       4.149   2.713  -1.109  0.00  0.00    -0.315 N 
ATOM      8  C   UNL     1       3.808   2.491  -2.514  0.00  0.00    +0.106 C 
ATOM      9  C   UNL     1       5.055   2.715  -3.374  0.00  0.00    -0.057 C 
ATOM     10  N   UNL     1       5.112   4.133  -3.795  0.00  0.00    +0.381 N 
ATOM     11  H   UNL     1       4.236   4.370  -4.276  0.00  0.00    -0.082 HD
ENDROOT
BRANCH  10  12
ATOM     12  C   UNL     1       6.237   4.338  -4.724  0.00  0.00    -0.074 C 
BRANCH  12  13
ATOM     13  C   UNL     1       6.119   5.736  -5.334  0.00  0.00    +0.013 C 
BRANCH  13  16
ATOM     14  C   UNL     1       5.642   5.242  -7.953  0.00  0.00    +0.039 C 
ATOM     15  C   UNL     1       7.019   5.714  -7.562  0.00  0.00    -0.073 C 
ATOM     16  C   UNL     1       7.245   5.955  -6.311  0.00  0.00    -0.067 C 
ATOM     17  C   UNL     1       8.558   6.445  -5.773  0.00  0.00    -0.014 C 
ATOM     18  C   UNL     1       9.670   6.201  -6.797  0.00  0.00    +0.011 C 
ATOM     19  C   UNL     1       9.202   6.743  -8.154  0.00  0.00    +0.005 C 
ATOM     20  C   UNL     1       8.042   5.876  -8.648  0.00  0.00    +0.030 C 
ATOM     21  C   UNL     1       8.456   7.943  -5.474  0.00  0.00    +0.015 C 
ATOM     22  C   UNL     1       8.888   5.695  -4.481  0.00  0.00    +0.015 C 
ENDBRANCH  13  16
ENDBRANCH  12  13
ENDBRANCH  10  12
BRANCH   6  23
ATOM     23  C   UNL     1       2.422   1.187  -0.015  0.00  0.00    +0.181 C 
BRANCH  23  24
ATOM     24  N   UNL     1       1.143   1.903   0.001  0.00  0.00    -0.302 N 
ATOM     25  C   UNL     1      -0.014   1.213   0.009  0.00  0.00    +0.280 C 
ATOM     26  O   UNL     1       0.002  -0.004   0.002  0.00  0.00    -0.267 OA
ATOM     27  H   UNL     1       1.130   2.872   0.007  0.00  0.00    +0.150 HD
BRANCH  25  28
ATOM     28  C   UNL     1      -1.294   1.929   0.019  0.00  0.00    +0.190 A 
ATOM     29  C   UNL     1      -2.534   1.356   0.021  0.00  0.00    +0.055 A 
ATOM     30  C   UNL     1      -3.464   2.407   0.032  0.00  0.00    +0.048 A 
ATOM     31  C   UNL     1      -2.760   3.561   0.036  0.00  0.00    +0.131 A 
ATOM     32  O   UNL     1      -1.453   3.268   0.033  0.00  0.00    -0.453 OA
BRANCH  31  33
ATOM     33  C   UNL     1      -3.349   4.948   0.046  0.00  0.00    +0.233 C 
BRANCH  33  34
ATOM     34  O   UNL     1      -3.529   5.379   1.397  0.00  0.00    -0.375 OA
ATOM     35  C   UNL     1      -4.085   6.690   1.520  0.00  0.00    +0.194 C 
ENDBRANCH  33  34
ENDBRANCH  31  33
ENDBRANCH  25  28
ENDBRANCH  23  24
ENDBRANCH   6  23
TORSDOF 8
