REMARK  Name = ZINC03668776
REMARK  11 active torsions:
REMARK  status: ('A' for Active; 'I' for Inactive)
REMARK    1  A    between atoms: C_1  and  C_2
REMARK    2  A    between atoms: C_2  and  O_3
REMARK    3  A    between atoms: O_3  and  C_4
REMARK    4  A    between atoms: C_6  and  C_11
REMARK    5  A    between atoms: C_9  and  O_10
REMARK    6  A    between atoms: C_18  and  C_37
REMARK    7  A    between atoms: C_19  and  C_32
REMARK    8  A    between atoms: C_20  and  C_22
REMARK    9  A    between atoms: C_32  and  O_34
REMARK   10  A    between atoms: O_34  and  C_35
REMARK   11  A    between atoms: C_35  and  C_36
REMARK                            x       y       z     vdW  Elec       q    Type
REMARK                         _______ _______ _______ _____ _____    ______ ____
ROOT
ATOM      1  C   UNL     1       4.919   1.046  -0.491  0.00  0.00    +0.028 C 
ATOM      2  C   UNL     1       6.097   1.723  -0.473  0.00  0.00    +0.081 A 
ATOM      3  C   UNL     1       6.341   3.172  -0.471  0.00  0.00    +0.268 A 
ATOM      4  O   UNL     1       5.416   3.964  -0.487  0.00  0.00    -0.266 OA
ATOM      5  N   UNL     1       7.611   3.596  -0.451  0.00  0.00    -0.275 N 
ATOM      6  C   UNL     1       8.619   2.659  -0.433  0.00  0.00    +0.178 A 
ATOM      7  N   UNL     1       9.894   2.955  -0.414  0.00  0.00    -0.228 NA
ATOM      8  C   UNL     1      10.385   4.188  -0.409  0.00  0.00    +0.053 C 
ATOM      9  C   UNL     1       9.550   5.269  -0.424  0.00  0.00    +0.085 C 
ATOM     10  C   UNL     1       8.060   5.017  -0.447  0.00  0.00    +0.162 C 
ATOM     11  C   UNL     1      11.877   4.398  -0.386  0.00  0.00    +0.066 C 
ATOM     12  S   UNL     1       7.768   1.094  -0.436  0.00  0.00    -0.046 S 
ENDROOT
BRANCH  10  13
ATOM     13  C   UNL     1       7.457   5.690   0.759  0.00  0.00    -0.012 A 
ATOM     14  C   UNL     1       7.210   4.973   1.890  0.00  0.00    +0.006 A 
ATOM     15  C   UNL     1       6.658   5.579   3.017  0.00  0.00    +0.001 A 
ATOM     16  C   UNL     1       6.341   6.903   3.016  0.00  0.00    +0.008 A 
ATOM     17  C   UNL     1       6.577   7.674   1.866  0.00  0.00    -0.018 A 
ATOM     18  C   UNL     1       7.143   7.059   0.721  0.00  0.00    -0.012 A 
ATOM     19  C   UNL     1       7.380   7.830  -0.430  0.00  0.00    +0.009 A 
ATOM     20  C   UNL     1       7.064   9.154  -0.430  0.00  0.00    +0.001 A 
ATOM     21  C   UNL     1       6.507   9.759   0.696  0.00  0.00    +0.001 A 
ATOM     22  C   UNL     1       6.264   9.043   1.828  0.00  0.00    +0.008 A 
ENDBRANCH  10  13
BRANCH   1  25
ATOM     23  C   UNL     1       1.323   2.067  -0.187  0.00  0.00    +0.162 A 
ATOM     24  C   UNL     1       2.506   1.381   0.005  0.00  0.00    +0.057 A 
ATOM     25  C   UNL     1       3.658   1.771  -0.689  0.00  0.00    -0.020 A 
ATOM     26  C   UNL     1       3.604   2.856  -1.574  0.00  0.00    +0.012 A 
ATOM     27  C   UNL     1       2.419   3.534  -1.758  0.00  0.00    +0.050 A 
ATOM     28  C   UNL     1       1.276   3.142  -1.074  0.00  0.00    +0.158 A 
BRANCH  28  29
ATOM     29  O   UNL     1       0.109   3.811  -1.265  0.00  0.00    -0.503 OA
ATOM     30  H   UNL     1      -0.020   4.556  -0.662  0.00  0.00    +0.292 HD
ENDBRANCH  28  29
BRANCH  23  31
ATOM     31  O   UNL     1       0.203   1.690   0.485  0.00  0.00    -0.489 OA
BRANCH  31  33
ATOM     32  C   UNL     1      -1.031   0.304   2.033  0.00  0.00    +0.048 C 
ATOM     33  C   UNL     1       0.322   0.577   1.373  0.00  0.00    +0.226 C 
ENDBRANCH  31  33
ENDBRANCH  23  31
ENDBRANCH   1  25
BRANCH   9  34
ATOM     34  C   UNL     1      10.060   6.578  -0.420  0.00  0.00    +0.339 C 
ATOM     35  O   UNL     1      10.130   7.201   0.625  0.00  0.00    -0.245 OA
BRANCH  34  36
ATOM     36  O   UNL     1      10.475   7.145  -1.574  0.00  0.00    -0.462 OA
BRANCH  36  37
ATOM     37  C   UNL     1      11.086   8.433  -1.480  0.00  0.00    +0.229 C 
ATOM     38  C   UNL     1      11.382   8.961  -2.886  0.00  0.00    +0.048 C 
ENDBRANCH  36  37
ENDBRANCH  34  36
ENDBRANCH   9  34
TORSDOF 8
