REMARK  Name = ZINC09361158
REMARK  8 active torsions:
REMARK  status: ('A' for Active; 'I' for Inactive)
REMARK    1  A    between atoms: C_1  and  C_2
REMARK    2  A    between atoms: C_7  and  N_30
REMARK    3  A    between atoms: C_8  and  C_13
REMARK    4  A    between atoms: N_17  and  C_21
REMARK    5  A    between atoms: C_21  and  C_23
REMARK    6  A    between atoms: C_21  and  C_24
REMARK    7  A    between atoms: C_32  and  C_39
REMARK    8  A    between atoms: C_35  and  C_38
REMARK                            x       y       z     vdW  Elec       q    Type
REMARK                         _______ _______ _______ _____ _____    ______ ____
ROOT
ATOM      1  C   UNL     1       6.920  -0.355  -0.406  0.00  0.00    +0.045 C 
ATOM      2  C   UNL     1       5.609  -1.099  -0.395  0.00  0.00    -0.034 A 
ATOM      3  C   UNL     1       5.600  -2.498  -0.303  0.00  0.00    +0.008 A 
ATOM      4  C   UNL     1       4.410  -3.163  -0.294  0.00  0.00    +0.047 A 
ATOM      5  C   UNL     1       3.208  -2.436  -0.376  0.00  0.00    +0.142 A 
ATOM      6  N   UNL     1       2.049  -3.095  -0.366  0.00  0.00    -0.214 NA
ATOM      7  C   UNL     1       0.888  -2.461  -0.436  0.00  0.00    +0.136 A 
ATOM      8  C   UNL     1       0.869  -1.050  -0.535  0.00  0.00    +0.081 A 
ATOM      9  C   UNL     1       2.105  -0.360  -0.545  0.00  0.00    +0.267 A 
ATOM     10  O   UNL     1       2.136   0.856  -0.625  0.00  0.00    -0.267 OA
ATOM     11  N   UNL     1       3.250  -1.072  -0.465  0.00  0.00    -0.267 N 
ATOM     12  C   UNL     1       4.445  -0.417  -0.474  0.00  0.00    +0.099 A 
ENDROOT
BRANCH   8  13
ATOM     13  C   UNL     1      -0.355  -0.345  -0.617  0.00  0.00    +0.037 C 
ATOM     14  C   UNL     1      -0.735   0.482   0.400  0.00  0.00    +0.077 C 
ATOM     15  C   UNL     1      -0.101   0.731   1.651  0.00  0.00    +0.259 C 
ATOM     16  O   UNL     1       0.939   0.170   1.948  0.00  0.00    -0.269 OA
ATOM     17  N   UNL     1      -0.673   1.587   2.479  0.00  0.00    -0.248 N 
ATOM     18  C   UNL     1      -1.826   2.209   2.149  0.00  0.00    +0.121 C 
ATOM     19  S   UNL     1      -2.732   3.344   3.056  0.00  0.00    -0.027 S 
ATOM     20  S   UNL     1      -2.161   1.554   0.521  0.00  0.00    -0.061 S 
BRANCH  17  21
ATOM     21  C   UNL     1      -0.047   1.866   3.774  0.00  0.00    +0.110 C 
ATOM     22  C   UNL     1      -0.964   1.381   4.899  0.00  0.00    +0.033 C 
BRANCH  21  23
ATOM     23  C   UNL     1       0.177   3.350   3.914  0.00  0.00    -0.027 A 
ATOM     24  C   UNL     1       0.450   4.116   2.797  0.00  0.00    +0.005 A 
ATOM     25  C   UNL     1       0.652   5.478   2.925  0.00  0.00    +0.000 A 
ATOM     26  C   UNL     1       0.590   6.071   4.172  0.00  0.00    +0.000 A 
ATOM     27  C   UNL     1       0.323   5.304   5.290  0.00  0.00    +0.000 A 
ATOM     28  C   UNL     1       0.117   3.943   5.161  0.00  0.00    +0.005 A 
ENDBRANCH  21  23
ENDBRANCH  17  21
ENDBRANCH   8  13
BRANCH   7  29
ATOM     29  N   UNL     1      -0.293  -3.171  -0.417  0.00  0.00    -0.314 N 
ATOM     30  C   UNL     1      -1.074  -2.862   0.787  0.00  0.00    +0.109 C 
ATOM     31  C   UNL     1      -2.437  -3.553   0.704  0.00  0.00    +0.004 C 
ATOM     32  C   UNL     1      -2.230  -5.065   0.581  0.00  0.00    +0.009 C 
ATOM     33  C   UNL     1      -1.373  -5.356  -0.654  0.00  0.00    +0.004 C 
ATOM     34  C   UNL     1      -0.041  -4.613  -0.531  0.00  0.00    +0.109 C 
ATOM     35  C   UNL     1      -1.112  -6.861  -0.751  0.00  0.00    +0.009 C 
ATOM     36  C   UNL     1      -3.196  -3.040  -0.521  0.00  0.00    +0.009 C 
ENDBRANCH   7  29
TORSDOF 4
