REMARK  Name = ZINC50604870
REMARK  6 active torsions:
REMARK  status: ('A' for Active; 'I' for Inactive)
REMARK    1  A    between atoms: C_3  and  C_10
REMARK    2  A    between atoms: C_5  and  C_6
REMARK    3  A    between atoms: C_7  and  C_8
REMARK    4  A    between atoms: C_8  and  N_9
REMARK    5  A    between atoms: N_12  and  C_13
REMARK    6  A    between atoms: C_13  and  C_14
REMARK                            x       y       z     vdW  Elec       q    Type
REMARK                         _______ _______ _______ _____ _____    ______ ____
ROOT
ATOM      1  C   UNL     1      -0.017   1.384   0.010  0.00  0.00    +0.025 A 
ATOM      2  C   UNL     1       1.172   2.056   0.002  0.00  0.00    +0.022 A 
ATOM      3  C   UNL     1       2.352   1.325  -0.013  0.00  0.00    +0.075 A 
ATOM      4  S   UNL     1       1.752  -0.356  -0.017  0.00  0.00    -0.075 S 
ATOM      5  C   UNL     1       0.002  -0.004   0.002  0.00  0.00    +0.063 A 
ENDROOT
BRANCH   3   6
ATOM      6  C   UNL     1       3.734   1.809  -0.024  0.00  0.00    +0.251 C 
ATOM      7  O   UNL     1       3.960   3.005  -0.020  0.00  0.00    -0.270 OA
ATOM      8  N   UNL     1       4.756   0.930  -0.039  0.00  0.00    -0.311 N 
ATOM      9  H   UNL     1       4.575  -0.023  -0.042  0.00  0.00    +0.149 HD
BRANCH   8  10
ATOM     10  C   UNL     1       6.138   1.415  -0.050  0.00  0.00    +0.109 C 
BRANCH  10  11
ATOM     11  C   UNL     1       7.096   0.222  -0.065  0.00  0.00    +0.029 C 
ATOM     12  C   UNL     1       6.934  -0.546  -1.387  0.00  0.00    +0.029 C 
ATOM     13  C   UNL     1       8.117  -1.548  -1.514  0.00  0.00    +0.166 C 
ATOM     14  S   UNL     1       9.506  -0.508  -0.893  0.00  0.00    -0.031 S 
ATOM     15  O   UNL     1      10.299  -1.281  -0.002  0.00  0.00    -0.174 OA
ATOM     16  O   UNL     1      10.125   0.142  -1.995  0.00  0.00    -0.174 OA
ATOM     17  C   UNL     1       8.552   0.730   0.073  0.00  0.00    +0.171 C 
ENDBRANCH  10  11
ENDBRANCH   8  10
ENDBRANCH   3   6
BRANCH   5  18
ATOM     18  C   UNL     1      -1.100  -0.919   0.008  0.00  0.00    -0.061 C 
ATOM     19  C   UNL     1      -2.003  -1.669   0.012  0.00  0.00    -0.116 C 
BRANCH  19  20
ATOM     20  C   UNL     1      -3.136  -2.609   0.018  0.00  0.00    +0.005 C 
BRANCH  20  21
ATOM     21  N   UNL     1      -2.628  -3.987   0.006  0.00  0.00    +0.385 N 
ATOM     22  H   UNL     1      -2.073  -4.134  -0.824  0.00  0.00    -0.089 HD
ATOM     23  H   UNL     1      -2.057  -4.143   0.823  0.00  0.00    -0.089 HD
ATOM     24  H   UNL     1      -3.404  -4.632   0.010  0.00  0.00    -0.089 HD
ENDBRANCH  20  21
ENDBRANCH  19  20
ENDBRANCH   5  18
TORSDOF 6
