REMARK  Name = ZINC12834250
REMARK  13 active torsions:
REMARK  status: ('A' for Active; 'I' for Inactive)
REMARK    1  A    between atoms: C_1  and  C_2
REMARK    2  A    between atoms: C_3  and  C_33
REMARK    3  A    between atoms: C_4  and  C_32
REMARK    4  A    between atoms: C_7  and  C_8
REMARK    5  A    between atoms: C_8  and  C_10
REMARK    6  A    between atoms: C_10  and  C_12
REMARK    7  A    between atoms: C_10  and  O_13
REMARK    8  A    between atoms: O_13  and  C_14
REMARK    9  A    between atoms: C_14  and  C_16
REMARK   10  A    between atoms: C_18  and  C_27
REMARK   11  A    between atoms: C_22  and  C_26
REMARK   12  A    between atoms: N_24  and  C_25
REMARK   13  A    between atoms: C_33  and  C_35
REMARK                            x       y       z     vdW  Elec       q    Type
REMARK                         _______ _______ _______ _____ _____    ______ ____
ROOT
ATOM      1  C   UNL     1      -2.236   9.734   2.954  0.00  0.00    +0.341 C 
ATOM      2  O   UNL     1      -2.071   9.899   1.762  0.00  0.00    -0.245 OA
ENDROOT
BRANCH   1   3
ATOM      3  C   UNL     1      -2.990  10.732   3.741  0.00  0.00    +0.073 A 
ATOM      4  C   UNL     1      -3.848  10.340   4.761  0.00  0.00    +0.044 A 
ATOM      5  C   UNL     1      -4.545  11.317   5.483  0.00  0.00    +0.081 A 
ATOM      6  N   UNL     1      -4.401  12.607   5.214  0.00  0.00    -0.227 NA
ATOM      7  C   UNL     1      -3.596  13.035   4.254  0.00  0.00    +0.160 A 
ATOM      8  C   UNL     1      -2.855  12.117   3.483  0.00  0.00    +0.055 A 
ATOM      9  C   UNL     1      -2.096  12.867   2.560  0.00  0.00    +0.070 A 
ATOM     10  N   UNL     1      -2.344  14.132   2.749  0.00  0.00    -0.174 NA
ATOM     11  N   UNL     1      -3.275  14.282   3.783  0.00  0.00    -0.249 N 
ATOM     12  C   UNL     1      -3.802  15.553   4.287  0.00  0.00    +0.174 C 
ATOM     13  C   UNL     1      -1.156  12.299   1.528  0.00  0.00    +0.068 C 
BRANCH   5  14
ATOM     14  C   UNL     1      -5.457  10.902   6.566  0.00  0.00    +0.038 A 
ATOM     15  C   UNL     1      -6.224  11.679   7.395  0.00  0.00    +0.017 A 
ATOM     16  C   UNL     1      -7.010  11.062   8.341  0.00  0.00    +0.008 A 
ATOM     17  C   UNL     1      -6.994   9.706   8.433  0.00  0.00    +0.046 A 
ATOM     18  S   UNL     1      -5.843   9.257   7.144  0.00  0.00    -0.095 S 
ENDBRANCH   5  14
ENDBRANCH   1   3
BRANCH   1  19
ATOM     19  O   UNL     1      -1.732   8.640   3.559  0.00  0.00    -0.450 OA
BRANCH  19  20
ATOM     20  C   UNL     1      -1.003   7.703   2.724  0.00  0.00    +0.246 C 
ATOM     21  C   UNL     1       0.478   8.086   2.699  0.00  0.00    +0.061 C 
BRANCH  20  22
ATOM     22  C   UNL     1      -1.152   6.311   3.283  0.00  0.00    +0.219 C 
ATOM     23  O   UNL     1      -1.566   6.152   4.413  0.00  0.00    -0.287 OA
BRANCH  22  30
ATOM     24  C   UNL     1      -1.371   3.353   4.210  0.00  0.00    +0.047 C 
ATOM     25  C   UNL     1      -0.896   3.870   2.876  0.00  0.00    -0.012 A 
ATOM     26  C   UNL     1      -0.455   3.094   1.780  0.00  0.00    +0.041 A 
ATOM     27  C   UNL     1      -0.109   3.977   0.768  0.00  0.00    +0.024 A 
ATOM     28  N   UNL     1      -0.328   5.227   1.197  0.00  0.00    -0.355 N 
ATOM     29  H   UNL     1      -0.170   6.033   0.681  0.00  0.00    +0.166 HD
ATOM     30  C   UNL     1      -0.809   5.189   2.490  0.00  0.00    +0.090 A 
ATOM     31  C   UNL     1       0.423   3.594  -0.589  0.00  0.00    +0.064 C 
BRANCH  26  32
ATOM     32  C   UNL     1      -0.372   1.631   1.726  0.00  0.00    +0.162 C 
ATOM     33  O   UNL     1       0.658   1.069   2.036  0.00  0.00    -0.292 OA
ATOM     34  C   UNL     1      -1.567   0.824   1.285  0.00  0.00    +0.091 C 
ENDBRANCH  26  32
ENDBRANCH  22  30
ENDBRANCH  20  22
ENDBRANCH  19  20
ENDBRANCH   1  19
TORSDOF 7
