REMARK  Name = ZINC40176050
REMARK  7 active torsions:
REMARK  status: ('A' for Active; 'I' for Inactive)
REMARK    1  A    between atoms: C_1  and  C_2
REMARK    2  A    between atoms: C_5  and  N_7
REMARK    3  A    between atoms: N_7  and  S_8
REMARK    4  A    between atoms: S_8  and  C_11
REMARK    5  A    between atoms: C_21  and  C_23
REMARK    6  A    between atoms: C_23  and  C_24
REMARK    7  A    between atoms: C_23  and  C_30
REMARK                            x       y       z     vdW  Elec       q    Type
REMARK                         _______ _______ _______ _____ _____    ______ ____
ROOT
ATOM      1  C   UNL     1      -0.255  -6.376   1.467  0.00  0.00    +0.111 A 
ATOM      2  C   UNL     1       0.904  -7.097   1.249  0.00  0.00    +0.031 A 
ATOM      3  C   UNL     1       1.037  -8.364   1.782  0.00  0.00    +0.026 A 
ATOM      4  C   UNL     1       0.006  -8.913   2.536  0.00  0.00    +0.040 A 
ATOM      5  C   UNL     1      -1.154  -8.189   2.757  0.00  0.00    -0.024 A 
ATOM      6  C   UNL     1      -1.278  -6.917   2.221  0.00  0.00    +0.034 A 
ATOM      7  C   UNL     1      -2.286  -8.747   3.577  0.00  0.00    +0.038 C 
ATOM      8  C   UNL     1      -2.195 -10.271   3.649  0.00  0.00    +0.024 C 
ATOM      9  C   UNL     1      -0.781 -10.664   4.095  0.00  0.00    +0.114 C 
ATOM     10  N   UNL     1       0.159 -10.203   3.064  0.00  0.00    -0.270 N 
ATOM     11  C   UNL     1       1.151 -11.007   2.633  0.00  0.00    +0.232 C 
ATOM     12  O   UNL     1       1.863 -10.653   1.716  0.00  0.00    -0.274 OA
ENDROOT
BRANCH   1  13
ATOM     13  S   UNL     1      -0.426  -4.760   0.786  0.00  0.00    +0.094 S 
ATOM     14  O   UNL     1      -1.821  -4.508   0.681  0.00  0.00    -0.148 OA
ATOM     15  O   UNL     1       0.446  -4.697  -0.335  0.00  0.00    -0.148 OA
BRANCH  13  16
ATOM     16  N   UNL     1       0.165  -3.692   1.905  0.00  0.00    -0.068 NA
BRANCH  16  21
ATOM     17  C   UNL     1       0.463   1.817   1.547  0.00  0.00    +0.075 C 
ATOM     18  C   UNL     1       0.297   0.322   1.456  0.00  0.00    +0.101 A 
ATOM     19  N   UNL     1      -0.200  -0.418   0.486  0.00  0.00    -0.145 NA
ATOM     20  N   UNL     1      -0.268  -1.675   0.566  0.00  0.00    -0.123 NA
ATOM     21  C   UNL     1       0.158  -2.331   1.637  0.00  0.00    +0.224 A 
ATOM     22  S   UNL     1       0.727  -0.957   2.634  0.00  0.00    -0.033 S 
ENDBRANCH  16  21
ENDBRANCH  13  16
ENDBRANCH   1  13
BRANCH  11  23
ATOM     23  C   UNL     1       1.376 -12.344   3.289  0.00  0.00    +0.135 C 
BRANCH  23  24
ATOM     24  C   UNL     1       0.471 -13.371   2.658  0.00  0.00    -0.031 A 
ATOM     25  C   UNL     1       0.337 -13.424   1.284  0.00  0.00    +0.005 A 
ATOM     26  C   UNL     1      -0.493 -14.366   0.705  0.00  0.00    +0.000 A 
ATOM     27  C   UNL     1      -1.188 -15.256   1.502  0.00  0.00    +0.000 A 
ATOM     28  C   UNL     1      -1.054 -15.204   2.877  0.00  0.00    +0.000 A 
ATOM     29  C   UNL     1      -0.220 -14.265   3.455  0.00  0.00    +0.005 A 
ENDBRANCH  23  24
BRANCH  23  30
ATOM     30  C   UNL     1       2.813 -12.759   3.104  0.00  0.00    -0.031 A 
ATOM     31  C   UNL     1       3.298 -13.026   1.837  0.00  0.00    +0.005 A 
ATOM     32  C   UNL     1       4.616 -13.406   1.667  0.00  0.00    +0.000 A 
ATOM     33  C   UNL     1       5.449 -13.521   2.764  0.00  0.00    +0.000 A 
ATOM     34  C   UNL     1       4.964 -13.254   4.031  0.00  0.00    +0.000 A 
ATOM     35  C   UNL     1       3.648 -12.869   4.200  0.00  0.00    +0.005 A 
ENDBRANCH  23  30
ENDBRANCH  11  23
TORSDOF 6
