REMARK  Name = ZINC01427017
REMARK  8 active torsions:
REMARK  status: ('A' for Active; 'I' for Inactive)
REMARK    1  A    between atoms: C_1  and  O_2
REMARK    2  A    between atoms: O_2  and  C_3
REMARK    3  A    between atoms: C_6  and  C_9
REMARK    4  A    between atoms: C_10  and  C_11
REMARK    5  A    between atoms: C_10  and  N_26
REMARK    6  A    between atoms: N_13  and  C_14
REMARK    7  A    between atoms: C_14  and  C_15
REMARK    8  A    between atoms: C_27  and  C_29
REMARK                            x       y       z     vdW  Elec       q    Type
REMARK                         _______ _______ _______ _____ _____    ______ ____
ROOT
ATOM      1  C   UNL     1       3.134  -2.781   3.773  0.00  0.00    +0.036 C 
ATOM      2  C   UNL     1       2.440  -2.401   2.675  0.00  0.00    +0.097 C 
ENDROOT
BRANCH   1   6
ATOM      3  C   UNL     1       4.268   0.104   6.668  0.00  0.00    +0.120 A 
ATOM      4  C   UNL     1       3.975  -1.196   7.064  0.00  0.00    +0.046 A 
ATOM      5  C   UNL     1       3.607  -2.136   6.128  0.00  0.00    +0.011 A 
ATOM      6  C   UNL     1       3.527  -1.781   4.777  0.00  0.00    -0.023 A 
ATOM      7  C   UNL     1       3.827  -0.472   4.383  0.00  0.00    +0.011 A 
ATOM      8  C   UNL     1       4.189   0.463   5.328  0.00  0.00    +0.046 A 
BRANCH   3  10
ATOM      9  C   UNL     1       4.918   2.345   7.121  0.00  0.00    +0.277 C 
ATOM     10  O   UNL     1       4.631   1.028   7.595  0.00  0.00    -0.495 OA
ENDBRANCH   3  10
ENDBRANCH   1   6
BRANCH   2  11
ATOM     11  C   UNL     1       1.942  -1.024   2.561  0.00  0.00    +0.258 C 
ATOM     12  O   UNL     1       2.405  -0.277   1.718  0.00  0.00    -0.269 OA
ATOM     13  N   UNL     1       0.972  -0.587   3.388  0.00  0.00    -0.308 N 
ATOM     14  H   UNL     1       0.490  -1.286   4.088  0.00  0.00    +0.149 HD
BRANCH  13  15
ATOM     15  C   UNL     1       0.560   0.819   3.357  0.00  0.00    +0.128 C 
BRANCH  15  16
ATOM     16  C   UNL     1      -0.547   1.049   4.387  0.00  0.00    +0.101 C 
ATOM     17  C   UNL     1      -0.899   2.513   4.420  0.00  0.00    -0.026 A 
ATOM     18  C   UNL     1      -1.000   3.195   3.216  0.00  0.00    +0.005 A 
ATOM     19  C   UNL     1      -1.323   4.537   3.200  0.00  0.00    +0.000 A 
ATOM     20  C   UNL     1      -1.549   5.206   4.388  0.00  0.00    +0.000 A 
ATOM     21  C   UNL     1      -1.448   4.528   5.587  0.00  0.00    +0.004 A 
ATOM     22  C   UNL     1      -1.122   3.181   5.605  0.00  0.00    -0.041 A 
ATOM     23  C   UNL     1      -1.014   2.485   6.938  0.00  0.00    +0.050 C 
ATOM     24  C   UNL     1      -1.062   0.970   6.740  0.00  0.00    +0.086 C 
ATOM     25  N   UNL     1      -0.084   0.602   5.704  0.00  0.00    -0.308 NA
ATOM     26  H   UNL     1       0.041  -0.491   5.698  0.00  0.00    +0.123 HD
ENDBRANCH  15  16
ENDBRANCH  13  15
ENDBRANCH   2  11
BRANCH   2  27
ATOM     27  N   UNL     1       2.197  -3.320   1.648  0.00  0.00    -0.277 N 
ATOM     28  C   UNL     1       1.406  -2.979   0.612  0.00  0.00    +0.248 C 
ATOM     29  O   UNL     1       0.985  -1.843   0.516  0.00  0.00    -0.270 OA
ATOM     30  H   UNL     1       2.651  -4.321   1.687  0.00  0.00    +0.155 HD
BRANCH  28  31
ATOM     31  C   UNL     1       1.052  -3.986  -0.410  0.00  0.00    +0.038 A 
ATOM     32  C   UNL     1       1.539  -5.291  -0.307  0.00  0.00    +0.013 A 
ATOM     33  C   UNL     1       1.200  -6.228  -1.261  0.00  0.00    +0.002 A 
ATOM     34  C   UNL     1       0.388  -5.875  -2.324  0.00  0.00    +0.015 A 
ATOM     35  C   UNL     1      -0.094  -4.583  -2.436  0.00  0.00    +0.019 A 
ATOM     36  C   UNL     1       0.233  -3.637  -1.485  0.00  0.00    +0.028 A 
ATOM     37 BR   UNL     1      -1.203  -4.112  -3.893  0.00  0.00    -0.050 Br
ENDBRANCH  28  31
ENDBRANCH   2  27
TORSDOF 7
