REMARK  Name = ZINC41286482
REMARK  6 active torsions:
REMARK  status: ('A' for Active; 'I' for Inactive)
REMARK    1  A    between atoms: C_1  and  C_2
REMARK    2  A    between atoms: C_2  and  O_3
REMARK    3  A    between atoms: O_3  and  C_4
REMARK    4  A    between atoms: C_9  and  C_10
REMARK    5  A    between atoms: C_12  and  O_13
REMARK    6  A    between atoms: C_22  and  C_24
REMARK                            x       y       z     vdW  Elec       q    Type
REMARK                         _______ _______ _______ _____ _____    ______ ____
ROOT
ATOM      1  C   UNL     1      -4.042  -1.987   0.693  0.00  0.00    +0.143 A 
ATOM      2  C   UNL     1      -3.812  -0.663   1.018  0.00  0.00    +0.093 A 
ATOM      3  C   UNL     1      -4.874   0.239   1.038  0.00  0.00    +0.131 A 
ATOM      4  C   UNL     1      -6.170  -0.239   0.720  0.00  0.00    +0.059 A 
ATOM      5  C   UNL     1      -7.277   0.626   0.724  0.00  0.00    +0.017 A 
ATOM      6  C   UNL     1      -8.512   0.150   0.416  0.00  0.00    +0.024 A 
ATOM      7  C   UNL     1      -8.690  -1.207   0.093  0.00  0.00    +0.037 A 
ATOM      8  C   UNL     1      -7.599  -2.079   0.085  0.00  0.00    +0.070 A 
ATOM      9  C   UNL     1      -6.338  -1.603   0.396  0.00  0.00    +0.141 A 
ATOM     10  O   UNL     1      -5.271  -2.430   0.388  0.00  0.00    -0.454 OA
ATOM     11  N   UNL     1      -9.930  -1.673  -0.213  0.00  0.00    -0.281 N 
ATOM     12  C   UNL     1     -10.069  -2.858  -0.791  0.00  0.00    +0.248 C 
ATOM     13  O   UNL     1      -9.084  -3.477  -1.161  0.00  0.00    -0.270 OA
ATOM     14  H   UNL     1     -10.713  -1.138  -0.009  0.00  0.00    +0.155 HD
ENDROOT
BRANCH  12  15
ATOM     15  C   UNL     1     -11.421  -3.432  -0.989  0.00  0.00    +0.037 A 
ATOM     16  C   UNL     1     -12.549  -2.725  -0.573  0.00  0.00    +0.014 A 
ATOM     17  C   UNL     1     -13.805  -3.263  -0.760  0.00  0.00    +0.021 A 
ATOM     18  C   UNL     1     -13.947  -4.504  -1.358  0.00  0.00    +0.041 A 
ATOM     19  C   UNL     1     -12.831  -5.211  -1.772  0.00  0.00    +0.021 A 
ATOM     20  C   UNL     1     -11.570  -4.679  -1.596  0.00  0.00    +0.014 A 
ATOM     21 CL   UNL     1     -15.531  -5.176  -1.590  0.00  0.00    -0.084 Cl
ENDBRANCH  12  15
BRANCH   1  27
ATOM     22  C   UNL     1      -3.140  -4.301   0.481  0.00  0.00    +0.131 A 
ATOM     23  C   UNL     1      -2.067  -5.179   0.461  0.00  0.00    +0.046 A 
ATOM     24  C   UNL     1      -0.781  -4.707   0.635  0.00  0.00    +0.004 A 
ATOM     25  C   UNL     1      -0.552  -3.354   0.833  0.00  0.00    +0.001 A 
ATOM     26  C   UNL     1      -1.605  -2.467   0.857  0.00  0.00    +0.015 A 
ATOM     27  C   UNL     1      -2.912  -2.930   0.675  0.00  0.00    +0.059 A 
BRANCH  22  28
ATOM     28  O   UNL     1      -4.403  -4.764   0.310  0.00  0.00    -0.492 OA
BRANCH  28  30
ATOM     29  C   UNL     1      -6.041  -6.503  -0.056  0.00  0.00    +0.048 C 
ATOM     30  C   UNL     1      -4.558  -6.172   0.118  0.00  0.00    +0.226 C 
ENDBRANCH  28  30
ENDBRANCH  22  28
ENDBRANCH   1  27
BRANCH   3  31
ATOM     31  O   UNL     1      -4.674   1.538   1.353  0.00  0.00    -0.506 OA
ATOM     32  H   UNL     1      -3.753   1.756   1.552  0.00  0.00    +0.292 HD
ENDBRANCH   3  31
TORSDOF 5
