REMARK  Name = ZINC03175938
REMARK  5 active torsions:
REMARK  status: ('A' for Active; 'I' for Inactive)
REMARK    1  A    between atoms: C_1  and  C_2
REMARK    2  A    between atoms: C_2  and  C_29
REMARK    3  A    between atoms: C_4  and  N_58
REMARK    4  A    between atoms: N_9  and  C_18
REMARK    5  A    between atoms: P_10  and  C_12
REMARK                            x       y       z     vdW  Elec       q    Type
REMARK                         _______ _______ _______ _____ _____    ______ ____
ROOT
ATOM      1  C   UNL     1      -2.606   5.557   3.065  0.00  0.00    +0.015 C 
ATOM      2  C   UNL     1      -1.132   5.832   2.764  0.00  0.00    -0.010 C 
ATOM      3  C   UNL     1      -0.709   4.999   1.560  0.00  0.00    +0.060 C 
ATOM      4  C   UNL     1      -0.573   3.534   1.924  0.00  0.00    +0.005 C 
ATOM      5  C   UNL     1      -0.148   3.255   3.140  0.00  0.00    +0.072 C 
ATOM      6  C   UNL     1       0.117   4.274   4.191  0.00  0.00    +0.055 C 
ATOM      7  C   UNL     1      -0.321   5.535   3.998  0.00  0.00    +0.005 C 
ATOM      8  N   UNL     1       0.724   3.728   5.296  0.00  0.00    -0.257 N 
ATOM      9  N   UNL     1       0.790   2.338   5.440  0.00  0.00    -0.193 N 
ATOM     10  P   UNL     1       0.241   1.704   4.003  0.00  0.00    +0.242 P 
ATOM     11  O   UNL     1       1.303   0.947   3.303  0.00  0.00    -0.289 OA
ATOM     12  C   UNL     1      -0.970   7.313   2.413  0.00  0.00    +0.015 C 
ATOM     13  H   UNL     1       1.106   4.305   5.976  0.00  0.00    +0.171 HD
ENDROOT
BRANCH   4  19
ATOM     14  C   UNL     1       0.164   1.616   0.531  0.00  0.00    +0.113 C 
ATOM     15  C   UNL     1       0.099   1.582  -1.000  0.00  0.00    +0.177 C 
ATOM     16  O   UNL     1      -1.241   1.300  -1.409  0.00  0.00    -0.377 OA
ATOM     17  C   UNL     1      -2.193   2.292  -1.016  0.00  0.00    +0.177 C 
ATOM     18  C   UNL     1      -2.247   2.361   0.514  0.00  0.00    +0.113 C 
ATOM     19  N   UNL     1      -0.948   2.308   1.288  0.00  0.00    -0.392 NA
ATOM     20  H   UNL     1      -1.147   1.682   2.077  0.00  0.00    +0.126 HD
ENDBRANCH   4  19
BRANCH  10  21
ATOM     21  C   UNL     1      -1.242   0.689   4.246  0.00  0.00    +0.034 A 
ATOM     22  C   UNL     1      -2.356   1.228   4.862  0.00  0.00    +0.013 A 
ATOM     23  C   UNL     1      -3.487   0.455   5.043  0.00  0.00    +0.001 A 
ATOM     24  C   UNL     1      -3.502  -0.859   4.617  0.00  0.00    +0.000 A 
ATOM     25  C   UNL     1      -2.387  -1.400   4.005  0.00  0.00    +0.001 A 
ATOM     26  C   UNL     1      -1.257  -0.626   3.820  0.00  0.00    +0.013 A 
ENDBRANCH  10  21
BRANCH   9  27
ATOM     27  C   UNL     1       1.227   1.627   6.560  0.00  0.00    +0.055 A 
ATOM     28  C   UNL     1       1.335   0.243   6.509  0.00  0.00    +0.025 A 
ATOM     29  C   UNL     1       1.771  -0.456   7.617  0.00  0.00    +0.002 A 
ATOM     30  C   UNL     1       2.092   0.220   8.780  0.00  0.00    +0.000 A 
ATOM     31  C   UNL     1       1.982   1.597   8.836  0.00  0.00    +0.002 A 
ATOM     32  C   UNL     1       1.550   2.303   7.731  0.00  0.00    +0.025 A 
ENDBRANCH   9  27
TORSDOF 3
