REMARK  Name = ZINC09725926
REMARK  7 active torsions:
REMARK  status: ('A' for Active; 'I' for Inactive)
REMARK    1  A    between atoms: C_2  and  C_3
REMARK    2  A    between atoms: C_3  and  N_4
REMARK    3  A    between atoms: C_8  and  S_28
REMARK    4  A    between atoms: N_13  and  C_14
REMARK    5  A    between atoms: C_14  and  C_16
REMARK    6  A    between atoms: C_19  and  C_22
REMARK    7  A    between atoms: S_28  and  N_31
REMARK                            x       y       z     vdW  Elec       q    Type
REMARK                         _______ _______ _______ _____ _____    ______ ____
ROOT
ATOM      1  N   UNL     1      -1.054  -0.862   0.007  0.00  0.00    -0.310 N 
ATOM      2  C   UNL     1      -0.837  -2.228  -0.002  0.00  0.00    +0.059 A 
ATOM      3  C   UNL     1      -1.787  -3.260   0.002  0.00  0.00    +0.029 A 
ATOM      4  C   UNL     1      -1.394  -4.578  -0.010  0.00  0.00    +0.030 A 
ATOM      5  C   UNL     1      -0.054  -4.927  -0.025  0.00  0.00    +0.106 A 
ATOM      6  C   UNL     1       0.904  -3.929  -0.029  0.00  0.00    +0.045 A 
ATOM      7  C   UNL     1       0.512  -2.611  -0.017  0.00  0.00    +0.041 A 
ATOM      8  S   UNL     1       1.377  -1.061  -0.025  0.00  0.00    -0.052 S 
ATOM      9  C   UNL     1       0.002  -0.004   0.002  0.00  0.00    +0.168 A 
ATOM     10  N   UNL     1      -0.016   1.324   0.009  0.00  0.00    -0.152 NA
ENDROOT
BRANCH   5  11
ATOM     11  S   UNL     1       0.425  -6.622  -0.040  0.00  0.00    +0.056 S 
ATOM     12  O   UNL     1       1.739  -6.678   0.498  0.00  0.00    -0.153 OA
ATOM     13  O   UNL     1      -0.658  -7.355   0.518  0.00  0.00    -0.153 OA
BRANCH  11  14
ATOM     14  N   UNL     1       0.542  -7.085  -1.625  0.00  0.00    -0.204 NA
ATOM     15  H   UNL     1       0.355  -6.447  -2.332  0.00  0.00    +0.144 HD
ATOM     16  H   UNL     1       0.797  -7.994  -1.848  0.00  0.00    +0.144 HD
ENDBRANCH  11  14
ENDBRANCH   5  11
BRANCH  10  17
ATOM     17  C   UNL     1       1.133   2.009   0.002  0.00  0.00    +0.269 C 
ATOM     18  O   UNL     1       2.196   1.414  -0.011  0.00  0.00    -0.268 OA
BRANCH  17  19
ATOM     19  C   UNL     1       1.113   3.489   0.010  0.00  0.00    +0.039 A 
ATOM     20  C   UNL     1      -0.105   4.170   0.020  0.00  0.00    +0.014 A 
ATOM     21  C   UNL     1      -0.123   5.547   0.033  0.00  0.00    +0.009 A 
ATOM     22  C   UNL     1       1.075   6.261   0.025  0.00  0.00    -0.018 A 
ATOM     23  C   UNL     1       2.293   5.580   0.010  0.00  0.00    +0.009 A 
ATOM     24  C   UNL     1       2.312   4.203   0.003  0.00  0.00    +0.014 A 
BRANCH  22  25
ATOM     25  C   UNL     1       1.055   7.743   0.033  0.00  0.00    -0.018 A 
ATOM     26  C   UNL     1       2.251   8.459   0.031  0.00  0.00    +0.008 A 
ATOM     27  C   UNL     1       2.226   9.839   0.034  0.00  0.00    +0.001 A 
ATOM     28  C   UNL     1       1.018  10.512   0.049  0.00  0.00    +0.000 A 
ATOM     29  C   UNL     1      -0.173   9.806   0.056  0.00  0.00    +0.001 A 
ATOM     30  C   UNL     1      -0.160   8.427   0.048  0.00  0.00    +0.008 A 
ENDBRANCH  22  25
ENDBRANCH  17  19
ENDBRANCH  10  17
BRANCH   1  31
ATOM     31  C   UNL     1      -2.422  -0.339   0.024  0.00  0.00    +0.212 C 
BRANCH  31  33
ATOM     32  C   UNL     1      -3.270  -0.011  -2.461  0.00  0.00    +0.005 C 
ATOM     33  C   UNL     1      -2.894  -0.156  -1.358  0.00  0.00    -0.084 C 
ENDBRANCH  31  33
ENDBRANCH   1  31
TORSDOF 7
