REMARK  Name = ZINC22066914
REMARK  3 active torsions:
REMARK  status: ('A' for Active; 'I' for Inactive)
REMARK    1  A    between atoms: C_1  and  C_2
REMARK    2  A    between atoms: C_5  and  C_7
REMARK    3  A    between atoms: C_12  and  C_15
REMARK                            x       y       z     vdW  Elec       q    Type
REMARK                         _______ _______ _______ _____ _____    ______ ____
ROOT
ATOM      1  C   UNL     1       0.118  -2.011   1.645  0.00  0.00    +0.222 C 
ATOM      2  O   UNL     1      -0.872  -2.464   1.111  0.00  0.00    -0.275 OA
ATOM      3  N   UNL     1       0.695  -2.673   2.667  0.00  0.00    -0.264 N 
ATOM      4  C   UNL     1       0.156  -3.875   3.109  0.00  0.00    +0.165 A 
ATOM      5  N   UNL     1       0.563  -4.665   4.086  0.00  0.00    -0.225 NA
ATOM      6  C   UNL     1      -0.078  -5.787   4.375  0.00  0.00    +0.080 A 
ATOM      7  C   UNL     1      -1.182  -6.135   3.649  0.00  0.00    +0.076 A 
ATOM      8  S   UNL     1      -1.278  -4.759   2.511  0.00  0.00    -0.060 S 
ATOM      9  H   UNL     1       1.487  -2.311   3.094  0.00  0.00    +0.157 HD
ENDROOT
BRANCH   6  10
ATOM     10  C   UNL     1       0.399  -6.658   5.477  0.00  0.00    +0.005 A 
ATOM     11  C   UNL     1      -0.276  -7.841   5.773  0.00  0.00    +0.014 A 
ATOM     12  C   UNL     1       0.169  -8.652   6.798  0.00  0.00    +0.050 A 
ATOM     13  C   UNL     1       1.287  -8.293   7.536  0.00  0.00    +0.166 A 
ATOM     14  C   UNL     1       1.965  -7.111   7.244  0.00  0.00    +0.167 A 
ATOM     15  C   UNL     1       1.526  -6.298   6.214  0.00  0.00    +0.059 A 
ATOM     16  O   UNL     1       3.018  -6.988   8.105  0.00  0.00    -0.453 OA
ATOM     17  C   UNL     1       2.737  -7.895   9.187  0.00  0.00    +0.466 C 
ATOM     18  O   UNL     1       1.916  -8.909   8.580  0.00  0.00    -0.453 OA
ENDBRANCH   6  10
BRANCH   1  22
ATOM     19  C   UNL     1      -0.019   1.526   0.010  0.00  0.00    +0.008 C 
ATOM     20  C   UNL     1       0.002  -0.004   0.002  0.00  0.00    -0.002 C 
ATOM     21  C   UNL     1       1.351  -0.691  -0.221  0.00  0.00    +0.017 C 
ATOM     22  C   UNL     1       0.703  -0.708   1.166  0.00  0.00    +0.078 C 
ENDBRANCH   1  22
TORSDOF 2
