REMARK  Name = ZINC40841699
REMARK  6 active torsions:
REMARK  status: ('A' for Active; 'I' for Inactive)
REMARK    1  A    between atoms: C_1  and  C_2
REMARK    2  A    between atoms: C_5  and  C_8
REMARK    3  A    between atoms: C_8  and  N_9
REMARK    4  A    between atoms: N_13  and  C_21
REMARK    5  A    between atoms: C_21  and  C_22
REMARK    6  A    between atoms: C_24  and  C_27
REMARK                            x       y       z     vdW  Elec       q    Type
REMARK                         _______ _______ _______ _____ _____    ______ ____
ROOT
ATOM      1  N   UNL     1       1.447  -4.746  -0.032  0.00  0.00    -0.321 N 
ATOM      2  C   UNL     1       1.717  -6.102  -0.041  0.00  0.00    +0.185 A 
ATOM      3  C   UNL     1       3.114  -6.575  -0.045  0.00  0.00    +0.292 A 
ATOM      4  O   UNL     1       4.035  -5.779  -0.040  0.00  0.00    -0.264 OA
ATOM      5  N   UNL     1       3.358  -7.904  -0.053  0.00  0.00    -0.295 N 
ATOM      6  C   UNL     1       2.290  -8.783  -0.058  0.00  0.00    +0.071 A 
ATOM      7  C   UNL     1       2.514 -10.156  -0.067  0.00  0.00    +0.028 A 
ATOM      8  C   UNL     1       1.445 -11.026  -0.071  0.00  0.00    +0.002 A 
ATOM      9  C   UNL     1       0.144 -10.541  -0.067  0.00  0.00    +0.002 A 
ATOM     10  C   UNL     1      -0.098  -9.198  -0.059  0.00  0.00    +0.030 A 
ATOM     11  C   UNL     1       0.973  -8.293  -0.054  0.00  0.00    +0.090 A 
ATOM     12  N   UNL     1       0.733  -6.965  -0.040  0.00  0.00    -0.226 NA
ATOM     13  H   UNL     1       2.176  -4.106  -0.032  0.00  0.00    +0.148 HD
ENDROOT
BRANCH   1  14
ATOM     14  C   UNL     1       0.059  -4.275  -0.021  0.00  0.00    +0.138 C 
BRANCH  14  19
ATOM     15  C   UNL     1      -0.018   1.503   0.010  0.00  0.00    +0.044 C 
ATOM     16  C   UNL     1       0.002  -0.004   0.002  0.00  0.00    -0.050 A 
ATOM     17  C   UNL     1       0.006  -0.689  -1.199  0.00  0.00    +0.003 A 
ATOM     18  C   UNL     1       0.025  -2.071  -1.206  0.00  0.00    +0.005 A 
ATOM     19  C   UNL     1       0.040  -2.768  -0.013  0.00  0.00    -0.030 A 
ATOM     20  C   UNL     1       0.037  -2.084   1.188  0.00  0.00    +0.005 A 
ATOM     21  C   UNL     1       0.023  -0.702   1.195  0.00  0.00    +0.003 A 
ENDBRANCH  14  19
ENDBRANCH   1  14
BRANCH   5  22
ATOM     22  C   UNL     1       4.734  -8.407  -0.058  0.00  0.00    +0.224 C 
BRANCH  22  23
ATOM     23  C   UNL     1       5.208  -8.588   1.361  0.00  0.00    +0.248 A 
ATOM     24  N   UNL     1       5.089  -9.674   2.070  0.00  0.00    -0.190 NA
ATOM     25  C   UNL     1       5.620  -9.487   3.292  0.00  0.00    +0.202 A 
ATOM     26  N   UNL     1       6.084  -8.264   3.363  0.00  0.00    -0.056 NA
ATOM     27  O   UNL     1       5.827  -7.662   2.104  0.00  0.00    -0.336 OA
BRANCH  25  28
ATOM     28  C   UNL     1       5.671 -10.498   4.378  0.00  0.00    +0.025 A 
ATOM     29  C   UNL     1       5.147 -11.779   4.191  0.00  0.00    +0.031 A 
ATOM     30  C   UNL     1       5.216 -12.689   5.227  0.00  0.00    +0.111 A 
ATOM     31  N   UNL     1       5.765 -12.361   6.380  0.00  0.00    -0.263 NA
ATOM     32  C   UNL     1       6.270 -11.162   6.598  0.00  0.00    +0.111 A 
ATOM     33  C   UNL     1       6.248 -10.195   5.614  0.00  0.00    +0.031 A 
ENDBRANCH  25  28
ENDBRANCH  22  23
ENDBRANCH   5  22
TORSDOF 5
