REMARK  Name = ZINC20617220
REMARK  12 active torsions:
REMARK  status: ('A' for Active; 'I' for Inactive)
REMARK    1  A    between atoms: C_1  and  C_2
REMARK    2  A    between atoms: C_6  and  C_20
REMARK    3  A    between atoms: N_8  and  C_9
REMARK    4  A    between atoms: C_12  and  C_15
REMARK    5  A    between atoms: C_15  and  O_17
REMARK    6  A    between atoms: O_17  and  C_18
REMARK    7  A    between atoms: N_22  and  C_23
REMARK    8  A    between atoms: C_26  and  C_29
REMARK    9  A    between atoms: C_29  and  O_31
REMARK   10  A    between atoms: O_31  and  C_32
REMARK   11  A    between atoms: C_33  and  C_36
REMARK   12  A    between atoms: C_36  and  O_37
REMARK                            x       y       z     vdW  Elec       q    Type
REMARK                         _______ _______ _______ _____ _____    ______ ____
ROOT
ATOM      1  C   UNL     1       0.547   7.292   0.091  0.00  0.00    +0.069 C 
ATOM      2  C   UNL     1       0.776   5.802   0.070  0.00  0.00    +0.081 A 
ATOM      3  C   UNL     1       2.071   5.304   0.038  0.00  0.00    +0.159 A 
ATOM      4  C   UNL     1       2.259   3.908   0.022  0.00  0.00    +0.027 A 
ATOM      5  C   UNL     1       3.617   3.361  -0.004  0.00  0.00    +0.030 A 
ATOM      6  C   UNL     1       4.659   4.240   0.259  0.00  0.00    +0.098 A 
ATOM      7  C   UNL     1       4.301   5.644   0.542  0.00  0.00    +0.212 A 
ATOM      8  N   UNL     1       5.081   6.407   1.280  0.00  0.00    -0.325 N 
ATOM      9  O   UNL     1       3.145   6.128   0.021  0.00  0.00    -0.437 OA
ATOM     10  C   UNL     1       1.131   3.079   0.034  0.00  0.00    +0.007 A 
ATOM     11  C   UNL     1      -0.117   3.668   0.059  0.00  0.00    +0.117 A 
ATOM     12  N   UNL     1      -0.254   4.981   0.083  0.00  0.00    -0.256 NA
ATOM     13  H   UNL     1       5.972   5.978   1.762  0.00  0.00    +0.169 HD
ENDROOT
BRANCH   8  14
ATOM     14  C   UNL     1       4.785   7.726   1.445  0.00  0.00    +0.042 A 
ATOM     15  C   UNL     1       5.212   8.664   0.496  0.00  0.00    +0.026 A 
ATOM     16  C   UNL     1       4.912   9.984   0.659  0.00  0.00    +0.017 A 
ATOM     17  C   UNL     1       4.186  10.404   1.781  0.00  0.00    +0.059 A 
ATOM     18  C   UNL     1       3.764   9.467   2.732  0.00  0.00    +0.017 A 
ATOM     19  C   UNL     1       4.060   8.146   2.567  0.00  0.00    +0.026 A 
BRANCH  17  20
ATOM     20  C   UNL     1       3.867  11.830   1.960  0.00  0.00    +0.339 C 
ATOM     21  O   UNL     1       3.236  12.194   2.933  0.00  0.00    -0.245 OA
BRANCH  20  22
ATOM     22  O   UNL     1       4.273  12.732   1.044  0.00  0.00    -0.464 OA
ATOM     23  C   UNL     1       3.922  14.120   1.284  0.00  0.00    +0.280 C 
ENDBRANCH  20  22
ENDBRANCH  17  20
ENDBRANCH   8  14
BRANCH   6  24
ATOM     24  C   UNL     1       6.063   3.791   0.256  0.00  0.00    +0.253 C 
ATOM     25  O   UNL     1       6.329   2.628   0.020  0.00  0.00    -0.270 OA
ATOM     26  N   UNL     1       7.052   4.670   0.515  0.00  0.00    -0.281 N 
ATOM     27  H   UNL     1       6.809   5.703   0.802  0.00  0.00    +0.155 HD
BRANCH  26  28
ATOM     28  C   UNL     1       8.383   4.268   0.421  0.00  0.00    +0.034 A 
ATOM     29  C   UNL     1       9.346   5.159  -0.043  0.00  0.00    +0.024 A 
ATOM     30  C   UNL     1      10.662   4.768  -0.132  0.00  0.00    +0.017 A 
ATOM     31  C   UNL     1      11.030   3.469   0.232  0.00  0.00    +0.059 A 
ATOM     32  C   UNL     1      10.059   2.574   0.692  0.00  0.00    +0.017 A 
ATOM     33  C   UNL     1       8.745   2.974   0.785  0.00  0.00    +0.024 A 
BRANCH  31  34
ATOM     34  C   UNL     1      12.438   3.044   0.132  0.00  0.00    +0.339 C 
ATOM     35  O   UNL     1      12.756   1.915   0.449  0.00  0.00    -0.245 OA
BRANCH  34  36
ATOM     36  O   UNL     1      13.372   3.908  -0.312  0.00  0.00    -0.464 OA
ATOM     37  C   UNL     1      14.738   3.421  -0.385  0.00  0.00    +0.280 C 
ENDBRANCH  34  36
ENDBRANCH  31  34
ENDBRANCH  26  28
ENDBRANCH   6  24
BRANCH  10  38
ATOM     38  C   UNL     1       1.275   1.579   0.014  0.00  0.00    +0.193 C 
BRANCH  38  39
ATOM     39  O   UNL     1      -0.020   0.976   0.031  0.00  0.00    -0.390 OA
ATOM     40  H   UNL     1      -0.116  -0.120   0.020  0.00  0.00    +0.210 HD
ENDBRANCH  38  39
ENDBRANCH  10  38
TORSDOF 9
