REMARK  Name = ZINC49578567
REMARK  6 active torsions:
REMARK  status: ('A' for Active; 'I' for Inactive)
REMARK    1  A    between atoms: C_4  and  C_7
REMARK    2  A    between atoms: C_7  and  N_8
REMARK    3  A    between atoms: N_16  and  C_17
REMARK    4  A    between atoms: C_17  and  C_19
REMARK    5  A    between atoms: C_19  and  O_20
REMARK    6  A    between atoms: O_20  and  C_21
REMARK                            x       y       z     vdW  Elec       q    Type
REMARK                         _______ _______ _______ _____ _____    ______ ____
ROOT
ATOM      1  N   UNL     1       4.153  -0.953   1.342  0.00  0.00    +0.386 N 
ATOM      2  C   UNL     1       5.489  -1.562   1.326  0.00  0.00    -0.072 C 
ATOM      3  C   UNL     1       6.093  -1.550   2.734  0.00  0.00    +0.035 C 
ATOM      4  C   UNL     1       5.081  -2.175   3.686  0.00  0.00    +0.024 A 
ATOM      5  C   UNL     1       3.797  -2.294   3.308  0.00  0.00    -0.004 A 
ATOM      6  S   UNL     1       3.022  -3.059   4.702  0.00  0.00    -0.059 S 
ATOM      7  C   UNL     1       4.376  -3.184   5.695  0.00  0.00    +0.163 A 
ATOM      8  N   UNL     1       5.367  -2.644   4.938  0.00  0.00    -0.339 N 
ATOM      9  N   UNL     1       4.457  -3.690   6.928  0.00  0.00    -0.154 NA
ATOM     10  C   UNL     1       3.204  -1.866   2.007  0.00  0.00    -0.033 C 
ATOM     11  H   UNL     1       6.272  -2.592   5.283  0.00  0.00    +0.167 HD
ATOM     12  H   UNL     1       4.188  -0.079   1.845  0.00  0.00    -0.081 HD
ENDROOT
BRANCH   9  13
ATOM     13  C   UNL     1       5.620  -3.705   7.564  0.00  0.00    +0.276 C 
ATOM     14  O   UNL     1       6.614  -3.256   7.025  0.00  0.00    -0.270 OA
BRANCH  13  15
ATOM     15  C   UNL     1       5.712  -4.276   8.956  0.00  0.00    +0.326 C 
BRANCH  15  16
ATOM     16  O   UNL     1       7.058  -4.179   9.423  0.00  0.00    -0.483 OA
BRANCH  16  17
ATOM     17  C   UNL     1       7.314  -4.654  10.671  0.00  0.00    +0.121 A 
ATOM     18  C   UNL     1       6.290  -5.207  11.427  0.00  0.00    +0.047 A 
ATOM     19  C   UNL     1       6.552  -5.688  12.695  0.00  0.00    +0.023 A 
ATOM     20  C   UNL     1       7.834  -5.619  13.211  0.00  0.00    +0.041 A 
ATOM     21  C   UNL     1       8.856  -5.067  12.459  0.00  0.00    +0.023 A 
ATOM     22  C   UNL     1       8.600  -4.590  11.188  0.00  0.00    +0.047 A 
ATOM     23 CL   UNL     1       8.160  -6.224  14.805  0.00  0.00    -0.084 Cl
ENDBRANCH  16  17
ENDBRANCH  15  16
ENDBRANCH  13  15
ENDBRANCH   9  13
BRANCH   1  24
ATOM     24  C   UNL     1       3.711  -0.707  -0.038  0.00  0.00    -0.043 C 
BRANCH  24  28
ATOM     25  C   UNL     1      -0.017   1.378   0.010  0.00  0.00    +0.000 A 
ATOM     26  C   UNL     1       1.171   2.086   0.002  0.00  0.00    +0.000 A 
ATOM     27  C   UNL     1       2.377   1.411  -0.013  0.00  0.00    +0.002 A 
ATOM     28  C   UNL     1       2.396   0.029  -0.020  0.00  0.00    -0.064 A 
ATOM     29  C   UNL     1       1.208  -0.679  -0.012  0.00  0.00    +0.002 A 
ATOM     30  C   UNL     1       0.002  -0.004   0.002  0.00  0.00    +0.000 A 
ENDBRANCH  24  28
ENDBRANCH   1  24
TORSDOF 6
