REMARK  Name = ZINC39923227
REMARK  10 active torsions:
REMARK  status: ('A' for Active; 'I' for Inactive)
REMARK    1  A    between atoms: C_1  and  C_2
REMARK    2  A    between atoms: C_2  and  C_3
REMARK    3  A    between atoms: C_3  and  C_4
REMARK    4  A    between atoms: C_4  and  C_5
REMARK    5  A    between atoms: C_5  and  O_6
REMARK    6  A    between atoms: O_6  and  C_7
REMARK    7  A    between atoms: C_10  and  C_13
REMARK    8  A    between atoms: C_15  and  C_19
REMARK    9  A    between atoms: N_21  and  N_22
REMARK   10  A    between atoms: C_23  and  C_24
REMARK                            x       y       z     vdW  Elec       q    Type
REMARK                         _______ _______ _______ _____ _____    ______ ____
ROOT
ATOM      1  C   UNL     1       3.969  -6.440  -6.900  0.00  0.00    +0.092 C 
ATOM      2  C   UNL     1       4.067  -7.772  -7.071  0.00  0.00    +0.041 C 
ATOM      3  C   UNL     1       4.816  -7.916  -8.384  0.00  0.00    +0.240 C 
ATOM      4  N   UNL     1       5.047  -6.520  -8.793  0.00  0.00    -0.170 NA
ATOM      5  N   UNL     1       4.552  -5.784  -7.936  0.00  0.00    -0.153 NA
ENDROOT
BRANCH   1   9
ATOM      6  C   UNL     1       2.078  -4.553  -3.589  0.00  0.00    +0.121 A 
ATOM      7  C   UNL     1       2.645  -3.782  -4.595  0.00  0.00    +0.046 A 
ATOM      8  C   UNL     1       3.259  -4.391  -5.670  0.00  0.00    +0.013 A 
ATOM      9  C   UNL     1       3.309  -5.782  -5.745  0.00  0.00    +0.002 A 
ATOM     10  C   UNL     1       2.740  -6.553  -4.733  0.00  0.00    +0.013 A 
ATOM     11  C   UNL     1       2.132  -5.938  -3.659  0.00  0.00    +0.046 A 
BRANCH   6  12
ATOM     12  O   UNL     1       1.474  -3.950  -2.532  0.00  0.00    -0.492 OA
BRANCH  12  13
ATOM     13  C   UNL     1       1.455  -2.521  -2.524  0.00  0.00    +0.229 C 
BRANCH  13  14
ATOM     14  C   UNL     1       0.739  -2.027  -1.265  0.00  0.00    +0.041 C 
BRANCH  14  15
ATOM     15  C   UNL     1       0.718  -0.497  -1.257  0.00  0.00    +0.003 C 
BRANCH  15  17
ATOM     16  C   UNL     1      -0.019   1.526   0.010  0.00  0.00    +0.004 C 
ATOM     17  C   UNL     1       0.002  -0.004   0.002  0.00  0.00    -0.003 C 
ENDBRANCH  15  17
ENDBRANCH  14  15
ENDBRANCH  13  14
ENDBRANCH  12  13
ENDBRANCH   6  12
ENDBRANCH   1   9
BRANCH   3  18
ATOM     18  C   UNL     1       6.123  -8.637  -8.176  0.00  0.00    +0.263 C 
ATOM     19  O   UNL     1       7.157  -8.008  -8.100  0.00  0.00    -0.271 OA
ATOM     20  N   UNL     1       6.142  -9.980  -8.074  0.00  0.00    -0.205 N 
ATOM     21  H   UNL     1       5.315 -10.483  -8.135  0.00  0.00    +0.177 HD
BRANCH  20  22
ATOM     22  N   UNL     1       7.357 -10.650  -7.881  0.00  0.00    -0.188 NA
ATOM     23  C   UNL     1       7.376 -11.956  -7.782  0.00  0.00    +0.136 C 
BRANCH  23  24
ATOM     24  C   UNL     1       8.592 -12.627  -7.588  0.00  0.00    +0.000 C 
ATOM     25  C   UNL     1       8.786 -14.001  -7.469  0.00  0.00    +0.004 A 
ATOM     26  C   UNL     1       7.896 -15.097  -7.500  0.00  0.00    +0.010 A 
ATOM     27  C   UNL     1       8.375 -16.358  -7.354  0.00  0.00    +0.001 A 
ATOM     28  C   UNL     1       9.739 -16.607  -7.172  0.00  0.00    +0.002 A 
ATOM     29  C   UNL     1      10.650 -15.605  -7.131  0.00  0.00    +0.026 A 
ATOM     30  C   UNL     1      10.225 -14.258  -7.277  0.00  0.00    +0.043 A 
ATOM     31  N   UNL     1      10.898 -13.127  -7.274  0.00  0.00    -0.380 N 
ATOM     32  C   UNL     1       9.969 -12.010  -7.471  0.00  0.00    +0.150 C 
ATOM     33  H   UNL     1      11.858 -13.045  -7.164  0.00  0.00    +0.160 HD
ENDBRANCH  23  24
ENDBRANCH  20  22
ENDBRANCH   3  18
TORSDOF 9
