REMARK  Name = ZINC09408957
REMARK  11 active torsions:
REMARK  status: ('A' for Active; 'I' for Inactive)
REMARK    1  A    between atoms: C_1  and  C_2
REMARK    2  A    between atoms: C_2  and  C_3
REMARK    3  A    between atoms: C_2  and  C_4
REMARK    4  A    between atoms: C_4  and  C_5
REMARK    5  A    between atoms: C_5  and  O_6
REMARK    6  A    between atoms: O_6  and  C_7
REMARK    7  A    between atoms: C_11  and  C_13
REMARK    8  A    between atoms: C_16  and  C_31
REMARK    9  A    between atoms: N_23  and  C_24
REMARK   10  A    between atoms: C_24  and  C_25
REMARK   11  A    between atoms: C_36  and  O_37
REMARK                            x       y       z     vdW  Elec       q    Type
REMARK                         _______ _______ _______ _____ _____    ______ ____
ROOT
ATOM      1  C   UNL     1      -5.694  -6.418  -0.337  0.00  0.00    +0.141 C 
ATOM      2  C   UNL     1      -5.983  -7.118   0.963  0.00  0.00    +0.035 A 
ATOM      3  C   UNL     1      -6.114  -7.020   2.352  0.00  0.00    +0.102 A 
ATOM      4  N   UNL     1      -6.415  -8.220   2.806  0.00  0.00    -0.173 NA
ATOM      5  N   UNL     1      -6.487  -9.067   1.841  0.00  0.00    -0.272 N 
ATOM      6  H   UNL     1      -6.697 -10.009   1.941  0.00  0.00    +0.189 HD
ATOM      7  C   UNL     1      -6.227  -8.443   0.655  0.00  0.00    +0.126 A 
ATOM      8  C   UNL     1      -6.105  -8.614  -0.797  0.00  0.00    +0.266 C 
ATOM      9  O   UNL     1      -6.261  -9.666  -1.388  0.00  0.00    -0.268 OA
ATOM     10  N   UNL     1      -5.796  -7.442  -1.384  0.00  0.00    -0.283 N 
ENDROOT
BRANCH   1  15
ATOM     11  C   UNL     1      -2.851  -3.929  -0.308  0.00  0.00    +0.121 A 
ATOM     12  C   UNL     1      -1.749  -4.771  -0.274  0.00  0.00    +0.045 A 
ATOM     13  C   UNL     1      -1.929  -6.141  -0.259  0.00  0.00    +0.004 A 
ATOM     14  C   UNL     1      -3.205  -6.672  -0.280  0.00  0.00    +0.006 A 
ATOM     15  C   UNL     1      -4.305  -5.835  -0.314  0.00  0.00    -0.019 A 
ATOM     16  C   UNL     1      -4.131  -4.464  -0.323  0.00  0.00    +0.051 A 
BRANCH  11  17
ATOM     17  O   UNL     1      -2.677  -2.581  -0.321  0.00  0.00    -0.492 OA
BRANCH  17  18
ATOM     18  C   UNL     1      -1.332  -2.100  -0.305  0.00  0.00    +0.229 C 
BRANCH  18  19
ATOM     19  C   UNL     1      -1.336  -0.570  -0.323  0.00  0.00    +0.044 C 
BRANCH  19  21
ATOM     20  C   UNL     1       0.103   1.468  -0.450  0.00  0.00    +0.007 C 
ATOM     21  C   UNL     1       0.104  -0.056  -0.305  0.00  0.00    -0.014 C 
ATOM     22  C   UNL     1       0.768  -0.442   1.018  0.00  0.00    +0.007 C 
ENDBRANCH  19  21
ENDBRANCH  18  19
ENDBRANCH  17  18
ENDBRANCH  11  17
ENDBRANCH   1  15
BRANCH   3  23
ATOM     23  C   UNL     1      -5.944  -5.790   3.166  0.00  0.00    +0.044 A 
ATOM     24  C   UNL     1      -5.752  -4.560   2.542  0.00  0.00    +0.014 A 
ATOM     25  C   UNL     1      -5.595  -3.419   3.302  0.00  0.00    +0.001 A 
ATOM     26  C   UNL     1      -5.626  -3.493   4.684  0.00  0.00    +0.004 A 
ATOM     27  C   UNL     1      -5.815  -4.709   5.313  0.00  0.00    +0.046 A 
ATOM     28  C   UNL     1      -5.981  -5.861   4.561  0.00  0.00    +0.126 A 
BRANCH  28  29
ATOM     29  O   UNL     1      -6.173  -7.056   5.178  0.00  0.00    -0.506 OA
ATOM     30  H   UNL     1      -5.355  -7.534   5.373  0.00  0.00    +0.292 HD
ENDBRANCH  28  29
ENDBRANCH   3  23
BRANCH  10  31
ATOM     31  C   UNL     1      -5.595  -7.226  -2.819  0.00  0.00    +0.140 C 
BRANCH  31  32
ATOM     32  C   UNL     1      -4.121  -7.445  -3.167  0.00  0.00    +0.136 C 
ATOM     33  C   UNL     1      -3.877  -7.101  -4.652  0.00  0.00    +0.035 C 
ATOM     34  C   UNL     1      -2.878  -8.209  -5.086  0.00  0.00    +0.031 C 
ATOM     35  C   UNL     1      -3.371  -9.402  -4.229  0.00  0.00    +0.160 C 
ATOM     36  O   UNL     1      -3.777  -8.822  -2.976  0.00  0.00    -0.375 OA
ENDBRANCH  31  32
ENDBRANCH  10  31
TORSDOF 9
