REMARK  Name = ZINC04980478
REMARK  5 active torsions:
REMARK  status: ('A' for Active; 'I' for Inactive)
REMARK    1  A    between atoms: C_1  and  C_2
REMARK    2  A    between atoms: C_5  and  C_32
REMARK    3  A    between atoms: N_8  and  C_10
REMARK    4  A    between atoms: C_12  and  C_26
REMARK    5  A    between atoms: C_17  and  C_19
REMARK                            x       y       z     vdW  Elec       q    Type
REMARK                         _______ _______ _______ _____ _____    ______ ____
ROOT
ATOM      1  C   UNL     1       3.577   6.033   0.001  0.00  0.00    +0.127 A 
ATOM      2  C   UNL     1       2.398   5.343   0.003  0.00  0.00    +0.072 A 
ATOM      3  C   UNL     1       2.424   3.938   0.001  0.00  0.00    +0.077 A 
ATOM      4  N   UNL     1       3.580   3.294  -0.013  0.00  0.00    -0.228 NA
ATOM      5  C   UNL     1       4.741   3.963  -0.021  0.00  0.00    +0.159 A 
ATOM      6  N   UNL     1       4.758   5.335  -0.014  0.00  0.00    -0.200 N 
ATOM      7  N   UNL     1       6.095   5.749  -0.024  0.00  0.00    -0.163 NA
ATOM      8  C   UNL     1       6.870   4.680  -0.037  0.00  0.00    +0.095 A 
ATOM      9  C   UNL     1       6.062   3.540  -0.035  0.00  0.00    +0.078 A 
ENDROOT
BRANCH   1  15
ATOM     10  C   UNL     1       5.263   9.996   2.220  0.00  0.00    +0.009 C 
ATOM     11  C   UNL     1       4.466   9.454   1.032  0.00  0.00    +0.004 C 
ATOM     12  C   UNL     1       3.059  10.058   1.042  0.00  0.00    +0.009 C 
ATOM     13  C   UNL     1       2.249   9.465  -0.115  0.00  0.00    +0.004 C 
ATOM     14  C   UNL     1       2.211   7.941   0.024  0.00  0.00    +0.109 C 
ATOM     15  N   UNL     1       3.580   7.412   0.008  0.00  0.00    -0.315 N 
ATOM     16  C   UNL     1       4.363   7.931   1.137  0.00  0.00    +0.109 C 
ATOM     17  C   UNL     1       2.908   9.840  -1.444  0.00  0.00    +0.009 C 
ENDBRANCH   1  15
BRANCH   8  18
ATOM     18  C   UNL     1       8.355   4.688  -0.049  0.00  0.00    +0.002 A 
ATOM     19  C   UNL     1       9.060   3.486  -0.055  0.00  0.00    +0.013 A 
ATOM     20  C   UNL     1      10.440   3.498  -0.072  0.00  0.00    +0.039 A 
ATOM     21  C   UNL     1      11.124   4.703  -0.072  0.00  0.00    +0.123 A 
ATOM     22  C   UNL     1      10.427   5.900  -0.060  0.00  0.00    +0.039 A 
ATOM     23  C   UNL     1       9.047   5.897  -0.049  0.00  0.00    +0.013 A 
ATOM     24  F   UNL     1      12.475   4.710  -0.083  0.00  0.00    -0.205 F 
ENDBRANCH   8  18
BRANCH   3  25
ATOM     25  C   UNL     1       1.153   3.175   0.008  0.00  0.00    +0.001 A 
ATOM     26  C   UNL     1       1.174   1.781   0.000  0.00  0.00    +0.010 A 
ATOM     27  C   UNL     1      -0.013   1.076   0.008  0.00  0.00    +0.001 A 
ATOM     28  C   UNL     1      -1.221   1.750   0.017  0.00  0.00    +0.000 A 
ATOM     29  C   UNL     1      -1.247   3.133   0.031  0.00  0.00    +0.001 A 
ATOM     30  C   UNL     1      -0.067   3.848   0.023  0.00  0.00    +0.010 A 
ENDBRANCH   3  25
TORSDOF 3
