REMARK  Name = ZINC43688324
REMARK  4 active torsions:
REMARK  status: ('A' for Active; 'I' for Inactive)
REMARK    1  A    between atoms: C_5  and  C_6
REMARK    2  A    between atoms: C_6  and  N_7
REMARK    3  A    between atoms: C_10  and  N_13
REMARK    4  A    between atoms: C_17  and  C_19
REMARK                            x       y       z     vdW  Elec       q    Type
REMARK                         _______ _______ _______ _____ _____    ______ ____
ROOT
ATOM      1  N   UNL     1      -1.546  -1.275  -1.375  0.00  0.00    -0.298 NA
ATOM      2  C   UNL     1      -2.080  -0.084  -2.046  0.00  0.00    +0.083 C 
ATOM      3  C   UNL     1      -2.339  -0.401  -3.521  0.00  0.00    +0.000 C 
ATOM      4  C   UNL     1      -3.337  -1.558  -3.622  0.00  0.00    -0.065 C 
ATOM      5  C   UNL     1      -2.777  -2.771  -2.873  0.00  0.00    +0.000 C 
ATOM      6  C   UNL     1      -2.506  -2.385  -1.417  0.00  0.00    +0.083 C 
ENDROOT
BRANCH   4   7
ATOM      7  N   UNL     1      -3.544  -1.906  -5.034  0.00  0.00    +0.391 N 
ATOM      8  C   UNL     1      -4.097  -0.741  -5.757  0.00  0.00    -0.077 C 
ATOM      9  C   UNL     1      -5.083  -1.346  -6.787  0.00  0.00    -0.020 C 
ATOM     10  C   UNL     1      -5.695  -2.522  -5.981  0.00  0.00    -0.006 C 
ATOM     11  C   UNL     1      -4.505  -3.020  -5.134  0.00  0.00    +0.047 C 
ATOM     12  H   UNL     1      -2.666  -2.176  -5.450  0.00  0.00    -0.080 HD
BRANCH  11  13
ATOM     13  C   UNL     1      -3.854  -4.199  -5.809  0.00  0.00    +0.343 C 
ATOM     14  O   UNL     1      -4.418  -5.280  -5.826  0.00  0.00    -0.248 OA
ATOM     15  O   UNL     1      -2.763  -4.073  -6.338  0.00  0.00    -0.248 OA
ENDBRANCH  11  13
ENDBRANCH   4   7
BRANCH   1  16
ATOM     16  C   UNL     1      -1.156  -0.969   0.008  0.00  0.00    +0.126 C 
BRANCH  16  21
ATOM     17  C   UNL     1      -0.016   1.351   0.009  0.00  0.00    +0.027 A 
ATOM     18  C   UNL     1       1.184   2.038   0.002  0.00  0.00    +0.025 A 
ATOM     19  C   UNL     1       2.343   1.335  -0.013  0.00  0.00    +0.060 A 
ATOM     20  S   UNL     1       1.753  -0.350  -0.017  0.00  0.00    -0.099 S 
ATOM     21  C   UNL     1       0.002  -0.004   0.002  0.00  0.00    +0.005 A 
ATOM     22 BR   UNL     1       1.208   3.929   0.011  0.00  0.00    -0.050 Br
ENDBRANCH  16  21
ENDBRANCH   1  16
TORSDOF 4
