REMARK  Name = ZINC06444560
REMARK  11 active torsions:
REMARK  status: ('A' for Active; 'I' for Inactive)
REMARK    1  A    between atoms: C_1  and  C_2
REMARK    2  A    between atoms: C_7  and  C_8
REMARK    3  A    between atoms: C_13  and  C_18
REMARK    4  A    between atoms: C_21  and  O_26
REMARK    5  A    between atoms: C_22  and  O_24
REMARK    6  A    between atoms: O_24  and  C_25
REMARK    7  A    between atoms: O_26  and  C_27
REMARK    8  A    between atoms: C_29  and  C_39
REMARK    9  A    between atoms: C_30  and  C_31
REMARK   10  A    between atoms: C_31  and  O_33
REMARK   11  A    between atoms: O_33  and  C_34
REMARK                            x       y       z     vdW  Elec       q    Type
REMARK                         _______ _______ _______ _____ _____    ______ ____
ROOT
ATOM      1  C   UNL     1      -3.486  -1.755   1.859  0.00  0.00    +0.092 C 
ATOM      2  C   UNL     1      -4.891  -2.275   1.674  0.00  0.00    +0.024 C 
ATOM      3  C   UNL     1      -5.136  -3.321   0.857  0.00  0.00    +0.016 C 
ATOM      4  C   UNL     1      -6.537  -3.849   0.669  0.00  0.00    +0.059 C 
ATOM      5  C   UNL     1      -7.344  -3.631   1.950  0.00  0.00    +0.032 C 
ATOM      6  C   UNL     1      -7.352  -2.132   2.271  0.00  0.00    +0.088 C 
ATOM      7  C   UNL     1      -5.931  -1.649   2.383  0.00  0.00    +0.162 C 
ATOM      8  O   UNL     1      -5.679  -0.700   3.098  0.00  0.00    -0.292 OA
ATOM      9  N   UNL     1      -4.114  -3.924   0.175  0.00  0.00    -0.321 N 
ATOM     10  C   UNL     1      -2.928  -3.273  -0.022  0.00  0.00    +0.016 C 
ATOM     11  C   UNL     1      -2.589  -2.228   0.752  0.00  0.00    +0.065 C 
ATOM     12  C   UNL     1      -1.996  -3.729  -1.114  0.00  0.00    +0.061 C 
ATOM     13  H   UNL     1      -4.242  -4.943  -0.220  0.00  0.00    +0.152 HD
ENDROOT
BRANCH   1  20
ATOM     14  C   UNL     1      -2.517   0.145   3.808  0.00  0.00    +0.044 C 
ATOM     15  C   UNL     1      -2.478  -1.331   4.110  0.00  0.00    -0.046 A 
ATOM     16  C   UNL     1      -1.979  -1.776   5.320  0.00  0.00    +0.003 A 
ATOM     17  C   UNL     1      -1.944  -3.129   5.598  0.00  0.00    +0.000 A 
ATOM     18  C   UNL     1      -2.409  -4.038   4.665  0.00  0.00    +0.000 A 
ATOM     19  C   UNL     1      -2.911  -3.593   3.457  0.00  0.00    +0.005 A 
ATOM     20  C   UNL     1      -2.942  -2.240   3.178  0.00  0.00    -0.032 A 
ENDBRANCH   1  20
BRANCH   5  21
ATOM     21  C   UNL     1      -8.758  -4.113   1.752  0.00  0.00    -0.040 A 
ATOM     22  C   UNL     1      -9.540  -3.563   0.753  0.00  0.00    +0.008 A 
ATOM     23  C   UNL     1     -10.838  -4.002   0.566  0.00  0.00    +0.049 A 
ATOM     24  C   UNL     1     -11.357  -4.995   1.381  0.00  0.00    +0.161 A 
ATOM     25  C   UNL     1     -10.570  -5.549   2.386  0.00  0.00    +0.162 A 
ATOM     26  C   UNL     1      -9.268  -5.108   2.564  0.00  0.00    +0.053 A 
BRANCH  25  27
ATOM     27  O   UNL     1     -11.075  -6.524   3.188  0.00  0.00    -0.491 OA
ATOM     28  C   UNL     1     -10.209  -7.046   4.198  0.00  0.00    +0.277 C 
ENDBRANCH  25  27
BRANCH  24  29
ATOM     29  O   UNL     1     -12.633  -5.428   1.198  0.00  0.00    -0.491 OA
ATOM     30  C   UNL     1     -13.383  -4.815   0.147  0.00  0.00    +0.277 C 
ENDBRANCH  24  29
ENDBRANCH   5  21
BRANCH  11  31
ATOM     31  C   UNL     1      -1.361  -1.565   0.523  0.00  0.00    +0.338 C 
ATOM     32  O   UNL     1      -1.344  -0.504  -0.072  0.00  0.00    -0.245 OA
BRANCH  31  33
ATOM     33  O   UNL     1      -0.208  -2.109   0.966  0.00  0.00    -0.458 OA
BRANCH  33  34
ATOM     34  C   UNL     1       0.995  -1.385   0.700  0.00  0.00    +0.177 C 
ATOM     35  C   UNL     1       2.043  -1.649   1.809  0.00  0.00    +0.044 C 
ATOM     36  C   UNL     1       3.382  -1.336   1.096  0.00  0.00    +0.004 C 
ATOM     37  C   UNL     1       3.184  -1.876  -0.335  0.00  0.00    +0.004 C 
ATOM     38  C   UNL     1       1.667  -1.908  -0.587  0.00  0.00    +0.044 C 
ENDBRANCH  33  34
ENDBRANCH  31  33
ENDBRANCH  11  31
TORSDOF 7
