REMARK  Name = ZINC39923046
REMARK  8 active torsions:
REMARK  status: ('A' for Active; 'I' for Inactive)
REMARK    1  A    between atoms: C_9  and  O_37
REMARK    2  A    between atoms: C_10  and  C_11
REMARK    3  A    between atoms: N_12  and  N_13
REMARK    4  A    between atoms: C_14  and  C_16
REMARK    5  A    between atoms: C_19  and  C_22
REMARK    6  A    between atoms: C_25  and  O_28
REMARK    7  A    between atoms: O_28  and  C_29
REMARK    8  A    between atoms: C_29  and  C_30
REMARK                            x       y       z     vdW  Elec       q    Type
REMARK                         _______ _______ _______ _____ _____    ______ ____
ROOT
ATOM      1  C   UNL     1       9.793   0.233  -0.090  0.00  0.00    +0.240 C 
ATOM      2  C   UNL     1      10.175   0.660   1.316  0.00  0.00    +0.041 C 
ATOM      3  C   UNL     1      11.346   0.032   1.537  0.00  0.00    +0.092 C 
ATOM      4  N   UNL     1      11.701  -0.704   0.451  0.00  0.00    -0.153 NA
ATOM      5  N   UNL     1      10.902  -0.648  -0.491  0.00  0.00    -0.170 NA
ENDROOT
BRANCH   3   6
ATOM      6  C   UNL     1      12.136   0.130   2.789  0.00  0.00    +0.002 A 
ATOM      7  C   UNL     1      11.675   0.911   3.846  0.00  0.00    +0.013 A 
ATOM      8  C   UNL     1      12.411   1.000   5.009  0.00  0.00    +0.046 A 
ATOM      9  C   UNL     1      13.611   0.312   5.126  0.00  0.00    +0.121 A 
ATOM     10  C   UNL     1      14.074  -0.467   4.074  0.00  0.00    +0.046 A 
ATOM     11  C   UNL     1      13.339  -0.565   2.912  0.00  0.00    +0.013 A 
BRANCH   9  12
ATOM     12  O   UNL     1      14.335   0.402   6.272  0.00  0.00    -0.487 OA
BRANCH  12  13
ATOM     13  C   UNL     1      15.560  -0.332   6.325  0.00  0.00    +0.264 C 
BRANCH  13  14
ATOM     14  C   UNL     1      16.220  -0.112   7.662  0.00  0.00    -0.010 A 
ATOM     15  C   UNL     1      17.103   0.937   7.833  0.00  0.00    +0.008 A 
ATOM     16  C   UNL     1      17.709   1.139   9.059  0.00  0.00    +0.020 A 
ATOM     17  C   UNL     1      17.430   0.291  10.116  0.00  0.00    +0.041 A 
ATOM     18  C   UNL     1      16.546  -0.760   9.944  0.00  0.00    +0.020 A 
ATOM     19  C   UNL     1      15.937  -0.957   8.719  0.00  0.00    +0.008 A 
ATOM     20 CL   UNL     1      18.191   0.543  11.656  0.00  0.00    -0.084 Cl
ENDBRANCH  13  14
ENDBRANCH  12  13
ENDBRANCH   9  12
ENDBRANCH   3   6
BRANCH   1  22
ATOM     21  N   UNL     1       7.321   0.148  -0.067  0.00  0.00    -0.205 N 
ATOM     22  C   UNL     1       8.489  -0.523  -0.081  0.00  0.00    +0.263 C 
ATOM     23  O   UNL     1       8.492  -1.736  -0.087  0.00  0.00    -0.271 OA
ATOM     24  H   UNL     1       7.319   1.118  -0.062  0.00  0.00    +0.177 HD
BRANCH  21  26
ATOM     25  C   UNL     1       4.982   0.092  -0.045  0.00  0.00    +0.142 C 
ATOM     26  N   UNL     1       6.109  -0.555  -0.059  0.00  0.00    -0.188 NA
BRANCH  25  36
ATOM     27  C   UNL     1      -0.016   1.357   0.009  0.00  0.00    +0.001 A 
ATOM     28  C   UNL     1       1.167   2.091   0.002  0.00  0.00    +0.001 A 
ATOM     29  C   UNL     1       2.379   1.466  -0.013  0.00  0.00    +0.009 A 
ATOM     30  C   UNL     1       2.435   0.067  -0.021  0.00  0.00    -0.006 A 
ATOM     31  C   UNL     1       1.233  -0.683  -0.013  0.00  0.00    -0.017 A 
ATOM     32  C   UNL     1       0.002  -0.004   0.002  0.00  0.00    +0.008 A 
ATOM     33  C   UNL     1       1.291  -2.087  -0.021  0.00  0.00    +0.012 A 
ATOM     34  C   UNL     1       2.487  -2.733  -0.035  0.00  0.00    +0.046 A 
ATOM     35  C   UNL     1       3.696  -2.040  -0.042  0.00  0.00    +0.126 A 
ATOM     36  C   UNL     1       3.711  -0.645  -0.036  0.00  0.00    +0.044 A 
BRANCH  35  37
ATOM     37  O   UNL     1       4.868  -2.727  -0.056  0.00  0.00    -0.506 OA
ATOM     38  H   UNL     1       5.199  -2.922  -0.943  0.00  0.00    +0.292 HD
ENDBRANCH  35  37
ENDBRANCH  25  36
ENDBRANCH  21  26
ENDBRANCH   1  22
TORSDOF 8
