REMARK  Name = ZINC36019115
REMARK  13 active torsions:
REMARK  status: ('A' for Active; 'I' for Inactive)
REMARK    1  A    between atoms: C_1  and  C_2
REMARK    2  A    between atoms: C_2  and  C_3
REMARK    3  A    between atoms: C_3  and  N_4
REMARK    4  A    between atoms: N_11  and  C_14
REMARK    5  A    between atoms: C_14  and  C_15
REMARK    6  A    between atoms: C_16  and  C_33
REMARK    7  A    between atoms: C_17  and  C_26
REMARK    8  A    between atoms: N_22  and  C_23
REMARK    9  A    between atoms: C_23  and  C_24
REMARK   10  A    between atoms: C_29  and  C_32
REMARK   11  A    between atoms: C_33  and  O_35
REMARK   12  A    between atoms: O_35  and  C_36
REMARK   13  A    between atoms: C_36  and  C_37
REMARK                            x       y       z     vdW  Elec       q    Type
REMARK                         _______ _______ _______ _____ _____    ______ ____
ROOT
ATOM      1  C   UNL     1      -5.465  -7.106   3.152  0.00  0.00    +0.011 C 
ATOM      2  C   UNL     1      -5.986  -8.292   3.534  0.00  0.00    +0.076 C 
ATOM      3  C   UNL     1      -7.474  -8.504   3.338  0.00  0.00    +0.143 C 
ATOM      4  N   UNL     1      -8.234  -7.392   2.744  0.00  0.00    -0.288 N 
ATOM      5  C   UNL     1      -7.571  -6.266   2.413  0.00  0.00    +0.307 C 
ATOM      6  O   UNL     1      -8.190  -5.342   1.922  0.00  0.00    -0.252 OA
ATOM      7  N   UNL     1      -6.255  -6.130   2.613  0.00  0.00    -0.257 N 
ATOM      8  H   UNL     1      -9.190  -7.468   2.594  0.00  0.00    +0.151 HD
ENDROOT
BRANCH   3   9
ATOM      9  C   UNL     1      -8.079  -8.814   4.683  0.00  0.00    -0.022 A 
ATOM     10  C   UNL     1      -8.363  -7.788   5.566  0.00  0.00    +0.006 A 
ATOM     11  C   UNL     1      -8.918  -8.072   6.800  0.00  0.00    +0.004 A 
ATOM     12  C   UNL     1      -9.191  -9.381   7.150  0.00  0.00    -0.050 A 
ATOM     13  C   UNL     1      -8.908 -10.406   6.267  0.00  0.00    +0.004 A 
ATOM     14  C   UNL     1      -8.357 -10.122   5.032  0.00  0.00    +0.006 A 
ATOM     15  C   UNL     1      -9.796  -9.691   8.495  0.00  0.00    +0.044 C 
ENDBRANCH   3   9
BRANCH   2  16
ATOM     16  C   UNL     1      -5.171  -9.301   4.097  0.00  0.00    +0.339 C 
ATOM     17  O   UNL     1      -4.007  -9.066   4.362  0.00  0.00    -0.245 OA
BRANCH  16  18
ATOM     18  O   UNL     1      -5.684 -10.526   4.339  0.00  0.00    -0.462 OA
BRANCH  18  19
ATOM     19  C   UNL     1      -4.804 -11.497   4.908  0.00  0.00    +0.229 C 
ATOM     20  C   UNL     1      -5.558 -12.813   5.109  0.00  0.00    +0.048 C 
ENDBRANCH  18  19
ENDBRANCH  16  18
ENDBRANCH   2  16
BRANCH   1  21
ATOM     21  C   UNL     1      -3.990  -6.853   3.328  0.00  0.00    -0.026 C 
BRANCH  21  29
ATOM     22  N   UNL     1      -2.944  -7.827   8.523  0.00  0.00    -0.299 N 
ATOM     23  C   UNL     1      -2.240  -6.736   8.165  0.00  0.00    +0.302 C 
ATOM     24  O   UNL     1      -1.110  -6.576   8.586  0.00  0.00    -0.253 OA
ATOM     25  N   UNL     1      -2.786  -5.822   7.338  0.00  0.00    -0.287 N 
ATOM     26  C   UNL     1      -1.951  -4.700   6.865  0.00  0.00    +0.107 C 
ATOM     27  C   UNL     1      -2.202  -4.414   5.373  0.00  0.00    +0.000 C 
ATOM     28  C   UNL     1      -2.354  -5.722   4.629  0.00  0.00    -0.077 C 
ATOM     29  N   UNL     1      -3.771  -6.071   4.553  0.00  0.00    +0.384 N 
ATOM     30  C   UNL     1      -4.260  -6.815   5.650  0.00  0.00    -0.059 C 
ATOM     31  C   UNL     1      -4.171  -5.979   6.942  0.00  0.00    +0.091 C 
ATOM     32  H   UNL     1      -3.869  -7.920   8.246  0.00  0.00    +0.150 HD
ATOM     33  H   UNL     1      -4.306  -5.219   4.482  0.00  0.00    -0.081 HD
BRANCH  22  34
ATOM     34  C   UNL     1      -2.314  -8.874   9.332  0.00  0.00    +0.105 C 
BRANCH  34  36
ATOM     35  C   UNL     1      -2.665 -11.085  10.441  0.00  0.00    +0.005 C 
ATOM     36  C   UNL     1      -3.324  -9.992   9.597  0.00  0.00    +0.015 C 
ENDBRANCH  34  36
ENDBRANCH  22  34
ENDBRANCH  21  29
ENDBRANCH   1  21
BRANCH   7  37
ATOM     37  C   UNL     1      -5.624  -4.865   2.227  0.00  0.00    +0.141 C 
BRANCH  37  38
ATOM     38  C   UNL     1      -5.268  -4.908   0.763  0.00  0.00    -0.015 C 
ATOM     39  C   UNL     1      -5.699  -3.970  -0.043  0.00  0.00    +0.005 C 
ENDBRANCH  37  38
ENDBRANCH   7  37
TORSDOF 10
