REMARK  Name = ZINC02109805
REMARK  7 active torsions:
REMARK  status: ('A' for Active; 'I' for Inactive)
REMARK    1  A    between atoms: C_1  and  C_2
REMARK    2  A    between atoms: C_2  and  O_3
REMARK    3  A    between atoms: O_3  and  C_4
REMARK    4  A    between atoms: C_9  and  C_10
REMARK    5  A    between atoms: N_29  and  C_32
REMARK    6  A    between atoms: C_32  and  C_33
REMARK    7  A    between atoms: C_33  and  C_34
REMARK                            x       y       z     vdW  Elec       q    Type
REMARK                         _______ _______ _______ _____ _____    ______ ____
ROOT
ATOM      1  C   UNL     1       0.222   9.925   1.812  0.00  0.00    +0.157 C 
ATOM      2  C   UNL     1      -0.855  10.505   0.923  0.00  0.00    +0.046 A 
ATOM      3  C   UNL     1      -1.773   9.754   0.277  0.00  0.00    -0.015 A 
ATOM      4  C   UNL     1      -2.623  10.666  -0.461  0.00  0.00    +0.003 A 
ATOM      5  C   UNL     1      -3.726  10.468  -1.297  0.00  0.00    +0.010 A 
ATOM      6  C   UNL     1      -4.303  11.589  -1.839  0.00  0.00    +0.001 A 
ATOM      7  C   UNL     1      -3.825  12.863  -1.578  0.00  0.00    +0.002 A 
ATOM      8  C   UNL     1      -2.735  13.088  -0.755  0.00  0.00    +0.026 A 
ATOM      9  C   UNL     1      -2.128  11.968  -0.191  0.00  0.00    +0.047 A 
ATOM     10  N   UNL     1      -1.059  11.831   0.647  0.00  0.00    -0.356 N 
ATOM     11  H   UNL     1      -0.524  12.562   0.994  0.00  0.00    +0.166 HD
ATOM     12  C   UNL     1      -1.851   8.250   0.342  0.00  0.00    +0.069 C 
ATOM     13  C   UNL     1      -1.052   7.767   1.560  0.00  0.00    +0.167 C 
ATOM     14  N   UNL     1       0.234   8.462   1.597  0.00  0.00    -0.276 N 
ATOM     15  C   UNL     1       1.405   7.838   1.453  0.00  0.00    +0.234 C 
ATOM     16  O   UNL     1       2.409   8.518   1.430  0.00  0.00    -0.274 OA
ATOM     17  C   UNL     1       1.563   6.358   1.324  0.00  0.00    +0.203 C 
ATOM     18  N   UNL     1       0.287   5.665   1.387  0.00  0.00    -0.291 N 
ATOM     19  C   UNL     1      -0.887   6.283   1.497  0.00  0.00    +0.237 C 
ATOM     20  O   UNL     1      -1.886   5.598   1.548  0.00  0.00    -0.274 OA
ENDROOT
BRANCH   1  26
ATOM     21  C   UNL     1       0.895  10.079   4.223  0.00  0.00    +0.126 A 
ATOM     22  C   UNL     1       0.607  10.359   5.551  0.00  0.00    +0.046 A 
ATOM     23  C   UNL     1      -0.658  10.785   5.907  0.00  0.00    +0.004 A 
ATOM     24  C   UNL     1      -1.636  10.932   4.941  0.00  0.00    +0.001 A 
ATOM     25  C   UNL     1      -1.350  10.658   3.616  0.00  0.00    +0.009 A 
ATOM     26  C   UNL     1      -0.088  10.227   3.256  0.00  0.00    +0.020 A 
BRANCH  21  27
ATOM     27  O   UNL     1       2.139   9.661   3.870  0.00  0.00    -0.492 OA
BRANCH  27  29
ATOM     28  C   UNL     1       4.432   9.053   4.332  0.00  0.00    +0.048 C 
ATOM     29  C   UNL     1       3.102   9.531   4.918  0.00  0.00    +0.225 C 
ENDBRANCH  27  29
ENDBRANCH  21  27
ENDBRANCH   1  26
BRANCH  18  30
ATOM     30  C   UNL     1       0.295   4.201   1.334  0.00  0.00    +0.112 C 
BRANCH  30  31
ATOM     31  C   UNL     1       0.190   3.743  -0.122  0.00  0.00    +0.049 C 
BRANCH  31  32
ATOM     32  C   UNL     1       0.198   2.237  -0.178  0.00  0.00    -0.072 C 
ATOM     33  C   UNL     1      -0.943   1.626  -0.215  0.00  0.00    -0.028 C 
ATOM     34  C   UNL     1      -1.095   0.134  -0.262  0.00  0.00    +0.027 C 
ATOM     35  C   UNL     1       0.224  -0.518  -0.683  0.00  0.00    +0.004 C 
ATOM     36  C   UNL     1       1.350   0.065   0.180  0.00  0.00    +0.005 C 
ATOM     37  C   UNL     1       1.526   1.540  -0.186  0.00  0.00    +0.030 C 
ENDBRANCH  31  32
ENDBRANCH  30  31
ENDBRANCH  18  30
TORSDOF 6
